MODEL 1
REMARK VINA RESULT:     -10.6      0.000      0.000
REMARK  Name = 131831436
REMARK  6 active torsions:
REMARK  status: ('A' for Active; 'I' for Inactive)
REMARK    1  A    between atoms: O_2  and  C_18
REMARK    2  A    between atoms: O_2  and  C_25
REMARK    3  A    between atoms: O_11  and  C_39
REMARK    4  A    between atoms: C_19  and  C_31
REMARK    5  A    between atoms: C_21  and  C_32
REMARK    6  A    between atoms: C_27  and  C_34
REMARK                            x       y       z     vdW  Elec       q    Type
REMARK                         _______ _______ _______ _____ _____    ______ ____
ROOT
ATOM      1  O   UNL     1     109.902 130.350 136.052  0.00  0.00    +0.000 OA
ATOM      2  O   UNL     1     112.284 130.835 137.665  0.00  0.00    +0.000 OA
ATOM      3  O   UNL     1     110.025 132.521 136.589  0.00  0.00    +0.000 OA
ATOM      4  O   UNL     1     113.481 131.058 138.471  0.00  0.00    +0.000 OA
ATOM      5  C   UNL     1     111.971 129.488 137.182  0.00  0.00    +0.000 A 
ATOM      6  C   UNL     1     112.675 129.176 137.562  0.00  0.00    +0.000 C 
ATOM      7  C   UNL     1     111.103 130.576 136.861  0.00  0.00    +0.000 A 
ATOM      8  C   UNL     1     110.917 131.413 136.920  0.00  0.00    +0.000 C 
ATOM      9  C   UNL     1     111.782 130.289 137.231  0.00  0.00    +0.000 A 
ATOM     10  C   UNL     1     111.480 128.973 136.762  0.00  0.00    +0.000 A 
ATOM     11  C   UNL     1     110.210 131.719 136.537  0.00  0.00    +0.000 C 
ATOM     12  C   UNL     1     109.700 131.183 136.100  0.00  0.00    +0.000 C 
ATOM     13  C   UNL     1     110.613 130.063 136.442  0.00  0.00    +0.000 A 
ATOM     14  C   UNL     1     113.189 129.707 138.000  0.00  0.00    +0.000 C 
ATOM     15  C   UNL     1     110.801 129.261 136.392  0.00  0.00    +0.000 A 
ATOM     16  C   UNL     1     112.993 130.541 138.052  0.00  0.00    +0.000 C 
ENDROOT
BRANCH  12  19
ATOM     17  O   UNL     1     106.877 131.628 136.110  0.00  0.00    +0.000 OA
ATOM     18  O   UNL     1     106.982 132.322 134.617  0.00  0.00    +0.000 OA
ATOM     19  C   UNL     1     109.020 131.468 135.729  0.00  0.00    +0.000 A 
ATOM     20  C   UNL     1     108.288 131.406 136.105  0.00  0.00    +0.000 A 
ATOM     21  C   UNL     1     109.072 131.815 134.983  0.00  0.00    +0.000 A 
ATOM     22  C   UNL     1     107.609 131.691 135.735  0.00  0.00    +0.000 A 
ATOM     23  C   UNL     1     108.392 132.100 134.612  0.00  0.00    +0.000 A 
ATOM     24  C   UNL     1     107.661 132.038 134.987  0.00  0.00    +0.000 A 
ENDBRANCH  12  19
BRANCH   6  26
ATOM     25  O   UNL     1     113.397 125.963 137.344  0.00  0.00    +0.000 OA
ATOM     26  C   UNL     1     112.856 128.373 137.507  0.00  0.00    +0.000 A 
ATOM     27  C   UNL     1     112.702 127.871 138.144  0.00  0.00    +0.000 A 
ATOM     28  C   UNL     1     113.189 128.072 136.816  0.00  0.00    +0.000 A 
ATOM     29  C   UNL     1     112.883 127.068 138.090  0.00  0.00    +0.000 A 
ATOM     30  C   UNL     1     113.370 127.268 136.762  0.00  0.00    +0.000 A 
ATOM     31  C   UNL     1     113.217 126.767 137.398  0.00  0.00    +0.000 A 
BRANCH  29  32
ATOM     32  O   UNL     1     112.730 126.566 138.726  0.00  0.00    +0.000 OA
ATOM     33  C   UNL     1     112.955 126.785 139.489  0.00  0.00    +0.000 C 
ENDBRANCH  29  32
ENDBRANCH   6  26
BRANCH  10  34
ATOM     34  O   UNL     1     111.669 128.172 136.712  0.00  0.00    +0.000 OA
BRANCH  34  42
ATOM     35  O   UNL     1     110.529 127.347 136.964  0.00  0.00    +0.000 OA
ATOM     36  O   UNL     1     110.568 126.577 134.612  0.00  0.00    +0.000 OA
ATOM     37  O   UNL     1     111.695 127.658 135.145  0.00  0.00    +0.000 OA
ATOM     38  O   UNL     1     109.416 126.009 135.647  0.00  0.00    +0.000 OA
ATOM     39  C   UNL     1     110.555 126.833 135.396  0.00  0.00    +0.000 C 
ATOM     40  C   UNL     1     111.119 127.375 135.663  0.00  0.00    +0.000 C 
ATOM     41  C   UNL     1     109.979 126.550 135.914  0.00  0.00    +0.000 C 
ATOM     42  C   UNL     1     111.106 127.631 136.446  0.00  0.00    +0.000 C 
ATOM     43  C   UNL     1     109.966 126.807 136.698  0.00  0.00    +0.000 C 
BRANCH  43  45
ATOM     44  O   UNL     1     109.496 126.591 138.030  0.00  0.00    +0.000 OA
ATOM     45  C   UNL     1     109.390 126.523 137.215  0.00  0.00    +0.000 C 
ENDBRANCH  43  45
ENDBRANCH  34  42
ENDBRANCH  10  34
TORSDOF 6
ENDMDL
MODEL 2
REMARK VINA RESULT:     -10.5      2.477      5.421
REMARK  Name = 131831436
REMARK  6 active torsions:
REMARK  status: ('A' for Active; 'I' for Inactive)
REMARK    1  A    between atoms: O_2  and  C_18
REMARK    2  A    between atoms: O_2  and  C_25
REMARK    3  A    between atoms: O_11  and  C_39
REMARK    4  A    between atoms: C_19  and  C_31
REMARK    5  A    between atoms: C_21  and  C_32
REMARK    6  A    between atoms: C_27  and  C_34
REMARK                            x       y       z     vdW  Elec       q    Type
REMARK                         _______ _______ _______ _____ _____    ______ ____
ROOT
ATOM      1  O   UNL     1     111.951 127.109 138.072  0.00  0.00    +0.000 OA
ATOM      2  O   UNL     1     114.125 126.813 139.995  0.00  0.00    +0.000 OA
ATOM      3  O   UNL     1     112.998 125.156 137.738  0.00  0.00    +0.000 OA
ATOM      4  O   UNL     1     115.208 126.683 140.965  0.00  0.00    +0.000 OA
ATOM      5  C   UNL     1     113.281 128.010 140.000  0.00  0.00    +0.000 A 
ATOM      6  C   UNL     1     113.725 128.333 140.660  0.00  0.00    +0.000 C 
ATOM      7  C   UNL     1     113.039 126.976 139.044  0.00  0.00    +0.000 A 
ATOM      8  C   UNL     1     113.250 126.210 138.718  0.00  0.00    +0.000 C 
ATOM      9  C   UNL     1     113.474 127.275 139.678  0.00  0.00    +0.000 A 
ATOM     10  C   UNL     1     112.652 128.445 139.688  0.00  0.00    +0.000 A 
ATOM     11  C   UNL     1     112.801 125.891 138.057  0.00  0.00    +0.000 C 
ATOM     12  C   UNL     1     112.147 126.344 137.732  0.00  0.00    +0.000 C 
ATOM     13  C   UNL     1     112.412 127.410 138.732  0.00  0.00    +0.000 A 
ATOM     14  C   UNL     1     114.380 127.885 140.989  0.00  0.00    +0.000 C 
ATOM     15  C   UNL     1     112.218 128.145 139.054  0.00  0.00    +0.000 A 
ATOM     16  C   UNL     1     114.581 127.120 140.654  0.00  0.00    +0.000 C 
ENDROOT
BRANCH  12  19
ATOM     17  O   UNL     1     111.413 126.439 134.972  0.00  0.00    +0.000 OA
ATOM     18  O   UNL     1     110.402 125.154 135.197  0.00  0.00    +0.000 OA
ATOM     19  C   UNL     1     111.711 126.047 137.098  0.00  0.00    +0.000 A 
ATOM     20  C   UNL     1     111.780 126.392 136.352  0.00  0.00    +0.000 A 
ATOM     21  C   UNL     1     111.206 125.404 137.211  0.00  0.00    +0.000 A 
ATOM     22  C   UNL     1     111.344 126.094 135.718  0.00  0.00    +0.000 A 
ATOM     23  C   UNL     1     110.770 125.107 136.577  0.00  0.00    +0.000 A 
ATOM     24  C   UNL     1     110.839 125.451 135.831  0.00  0.00    +0.000 A 
ENDBRANCH  12  19
BRANCH   6  26
ATOM     25  O   UNL     1     112.924 131.277 141.919  0.00  0.00    +0.000 OA
ATOM     26  C   UNL     1     113.525 129.069 140.975  0.00  0.00    +0.000 A 
ATOM     27  C   UNL     1     113.970 129.736 140.781  0.00  0.00    +0.000 A 
ATOM     28  C   UNL     1     112.879 129.138 141.484  0.00  0.00    +0.000 A 
ATOM     29  C   UNL     1     113.770 130.472 141.095  0.00  0.00    +0.000 A 
ATOM     30  C   UNL     1     112.679 129.874 141.799  0.00  0.00    +0.000 A 
ATOM     31  C   UNL     1     113.124 130.541 141.605  0.00  0.00    +0.000 A 
BRANCH  29  32
ATOM     32  O   UNL     1     114.214 131.139 140.901  0.00  0.00    +0.000 OA
ATOM     33  C   UNL     1     115.039 131.106 140.917  0.00  0.00    +0.000 C 
ENDBRANCH  29  32
ENDBRANCH   6  26
BRANCH  10  34
ATOM     34  O   UNL     1     112.459 129.180 140.009  0.00  0.00    +0.000 OA
BRANCH  34  42
ATOM     35  O   UNL     1     112.226 130.150 138.986  0.00  0.00    +0.000 OA
ATOM     36  O   UNL     1     109.842 130.265 139.638  0.00  0.00    +0.000 OA
ATOM     37  O   UNL     1     110.869 129.257 140.444  0.00  0.00    +0.000 OA
ATOM     38  O   UNL     1     110.404 131.197 138.398  0.00  0.00    +0.000 OA
ATOM     39  C   UNL     1     110.637 130.227 139.421  0.00  0.00    +0.000 C 
ATOM     40  C   UNL     1     111.151 129.722 139.824  0.00  0.00    +0.000 C 
ATOM     41  C   UNL     1     110.918 130.693 138.801  0.00  0.00    +0.000 C 
ATOM     42  C   UNL     1     111.946 129.684 139.607  0.00  0.00    +0.000 C 
ATOM     43  C   UNL     1     111.713 130.654 138.584  0.00  0.00    +0.000 C 
BRANCH  43  45
ATOM     44  O   UNL     1     112.784 131.355 137.947  0.00  0.00    +0.000 OA
ATOM     45  C   UNL     1     111.994 131.120 137.963  0.00  0.00    +0.000 C 
ENDBRANCH  43  45
ENDBRANCH  34  42
ENDBRANCH  10  34
TORSDOF 6
ENDMDL
MODEL 3
REMARK VINA RESULT:     -10.4      1.643      5.671
REMARK  Name = 131831436
REMARK  6 active torsions:
REMARK  status: ('A' for Active; 'I' for Inactive)
REMARK    1  A    between atoms: O_2  and  C_18
REMARK    2  A    between atoms: O_2  and  C_25
REMARK    3  A    between atoms: O_11  and  C_39
REMARK    4  A    between atoms: C_19  and  C_31
REMARK    5  A    between atoms: C_21  and  C_32
REMARK    6  A    between atoms: C_27  and  C_34
REMARK                            x       y       z     vdW  Elec       q    Type
REMARK                         _______ _______ _______ _____ _____    ______ ____
ROOT
ATOM      1  O   UNL     1     111.122 127.509 137.252  0.00  0.00    +0.000 OA
ATOM      2  O   UNL     1     108.896 129.051 136.166  0.00  0.00    +0.000 OA
ATOM      3  O   UNL     1     109.931 126.234 135.848  0.00  0.00    +0.000 OA
ATOM      4  O   UNL     1     107.788 129.838 135.634  0.00  0.00    +0.000 OA
ATOM      5  C   UNL     1     109.833 129.658 137.115  0.00  0.00    +0.000 A 
ATOM      6  C   UNL     1     109.403 130.401 137.080  0.00  0.00    +0.000 C 
ATOM      7  C   UNL     1     110.010 128.297 136.716  0.00  0.00    +0.000 A 
ATOM      8  C   UNL     1     109.745 127.625 136.251  0.00  0.00    +0.000 C 
ATOM      9  C   UNL     1     109.588 129.005 136.673  0.00  0.00    +0.000 A 
ATOM     10  C   UNL     1     110.499 129.602 137.599  0.00  0.00    +0.000 A 
ATOM     11  C   UNL     1     110.179 126.884 136.291  0.00  0.00    +0.000 C 
ATOM     12  C   UNL     1     110.873 126.826 136.795  0.00  0.00    +0.000 C 
ATOM     13  C   UNL     1     110.675 128.241 137.199  0.00  0.00    +0.000 A 
ATOM     14  C   UNL     1     108.709 130.465 136.578  0.00  0.00    +0.000 C 
ATOM     15  C   UNL     1     110.920 128.894 137.641  0.00  0.00    +0.000 A 
ATOM     16  C   UNL     1     108.454 129.785 136.118  0.00  0.00    +0.000 C 
ENDROOT
BRANCH  12  19
ATOM     17  O   UNL     1     111.372 124.316 138.066  0.00  0.00    +0.000 OA
ATOM     18  O   UNL     1     112.565 123.999 136.970  0.00  0.00    +0.000 OA
ATOM     19  C   UNL     1     111.296 126.119 136.839  0.00  0.00    +0.000 A 
ATOM     20  C   UNL     1     111.122 125.571 137.430  0.00  0.00    +0.000 A 
ATOM     21  C   UNL     1     111.892 125.961 136.291  0.00  0.00    +0.000 A 
ATOM     22  C   UNL     1     111.545 124.864 137.474  0.00  0.00    +0.000 A 
ATOM     23  C   UNL     1     112.315 125.254 136.335  0.00  0.00    +0.000 A 
ATOM     24  C   UNL     1     112.142 124.706 136.926  0.00  0.00    +0.000 A 
ENDBRANCH  12  19
BRANCH   6  26
ATOM     25  O   UNL     1     110.414 132.990 138.859  0.00  0.00    +0.000 OA
ATOM     26  C   UNL     1     109.656 131.048 137.525  0.00  0.00    +0.000 A 
ATOM     27  C   UNL     1     110.078 131.658 137.163  0.00  0.00    +0.000 A 
ATOM     28  C   UNL     1     109.486 131.085 138.331  0.00  0.00    +0.000 A 
ATOM     29  C   UNL     1     110.331 132.305 137.607  0.00  0.00    +0.000 A 
ATOM     30  C   UNL     1     109.739 131.733 138.775  0.00  0.00    +0.000 A 
ATOM     31  C   UNL     1     110.161 132.342 138.414  0.00  0.00    +0.000 A 
BRANCH  29  32
ATOM     32  O   UNL     1     110.753 132.914 137.246  0.00  0.00    +0.000 OA
ATOM     33  C   UNL     1     110.435 133.308 136.595  0.00  0.00    +0.000 C 
ENDBRANCH  29  32
ENDBRANCH   6  26
BRANCH  10  34
ATOM     34  O   UNL     1     110.744 130.255 138.040  0.00  0.00    +0.000 OA
BRANCH  34  42
ATOM     35  O   UNL     1     112.153 130.473 137.945  0.00  0.00    +0.000 OA
ATOM     36  O   UNL     1     112.412 129.845 140.325  0.00  0.00    +0.000 OA
ATOM     37  O   UNL     1     110.917 129.836 139.627  0.00  0.00    +0.000 OA
ATOM     38  O   UNL     1     113.734 130.273 139.437  0.00  0.00    +0.000 OA
ATOM     39  C   UNL     1     112.326 130.054 139.532  0.00  0.00    +0.000 C 
ATOM     40  C   UNL     1     111.577 130.050 139.182  0.00  0.00    +0.000 C 
ATOM     41  C   UNL     1     112.986 130.268 139.087  0.00  0.00    +0.000 C 
ATOM     42  C   UNL     1     111.491 130.259 138.389  0.00  0.00    +0.000 C 
ATOM     43  C   UNL     1     112.900 130.478 138.294  0.00  0.00    +0.000 C 
BRANCH  43  45
ATOM     44  O   UNL     1     113.479 131.192 137.200  0.00  0.00    +0.000 OA
ATOM     45  C   UNL     1     113.562 130.692 137.850  0.00  0.00    +0.000 C 
ENDBRANCH  43  45
ENDBRANCH  34  42
ENDBRANCH  10  34
TORSDOF 6
ENDMDL
MODEL 4
REMARK VINA RESULT:     -10.3      2.441      5.045
REMARK  Name = 131831436
REMARK  6 active torsions:
REMARK  status: ('A' for Active; 'I' for Inactive)
REMARK    1  A    between atoms: O_2  and  C_18
REMARK    2  A    between atoms: O_2  and  C_25
REMARK    3  A    between atoms: O_11  and  C_39
REMARK    4  A    between atoms: C_19  and  C_31
REMARK    5  A    between atoms: C_21  and  C_32
REMARK    6  A    between atoms: C_27  and  C_34
REMARK                            x       y       z     vdW  Elec       q    Type
REMARK                         _______ _______ _______ _____ _____    ______ ____
ROOT
ATOM      1  O   UNL     1     111.685 127.253 137.630  0.00  0.00    +0.000 OA
ATOM      2  O   UNL     1     112.358 126.586 140.389  0.00  0.00    +0.000 OA
ATOM      3  O   UNL     1     111.041 125.155 138.081  0.00  0.00    +0.000 OA
ATOM      4  O   UNL     1     112.702 126.271 141.772  0.00  0.00    +0.000 OA
ATOM      5  C   UNL     1     112.675 127.907 139.841  0.00  0.00    +0.000 A 
ATOM      6  C   UNL     1     113.018 128.147 140.591  0.00  0.00    +0.000 C 
ATOM      7  C   UNL     1     112.030 126.934 139.018  0.00  0.00    +0.000 A 
ATOM      8  C   UNL     1     111.701 126.145 138.928  0.00  0.00    +0.000 C 
ATOM      9  C   UNL     1     112.356 127.152 139.743  0.00  0.00    +0.000 A 
ATOM     10  C   UNL     1     112.668 128.443 139.213  0.00  0.00    +0.000 A 
ATOM     11  C   UNL     1     111.359 125.911 138.175  0.00  0.00    +0.000 C 
ATOM     12  C   UNL     1     111.352 126.469 137.521  0.00  0.00    +0.000 C 
ATOM     13  C   UNL     1     112.022 127.469 138.390  0.00  0.00    +0.000 A 
ATOM     14  C   UNL     1     113.028 127.594 141.248  0.00  0.00    +0.000 C 
ATOM     15  C   UNL     1     112.342 128.223 138.488  0.00  0.00    +0.000 A 
ATOM     16  C   UNL     1     112.696 126.808 141.147  0.00  0.00    +0.000 C 
ENDROOT
BRANCH  12  19
ATOM     17  O   UNL     1     109.172 126.517 135.673  0.00  0.00    +0.000 OA
ATOM     18  O   UNL     1     110.050 125.603 134.616  0.00  0.00    +0.000 OA
ATOM     19  C   UNL     1     111.026 126.252 136.795  0.00  0.00    +0.000 A 
ATOM     20  C   UNL     1     110.262 126.493 136.597  0.00  0.00    +0.000 A 
ATOM     21  C   UNL     1     111.464 125.796 136.266  0.00  0.00    +0.000 A 
ATOM     22  C   UNL     1     109.936 126.276 135.871  0.00  0.00    +0.000 A 
ATOM     23  C   UNL     1     111.138 125.579 135.539  0.00  0.00    +0.000 A 
ATOM     24  C   UNL     1     110.375 125.819 135.342  0.00  0.00    +0.000 A 
ENDBRANCH  12  19
BRANCH   6  26
ATOM     25  O   UNL     1     114.283 131.174 140.946  0.00  0.00    +0.000 OA
ATOM     26  C   UNL     1     113.335 128.904 140.680  0.00  0.00    +0.000 A 
ATOM     27  C   UNL     1     112.903 129.488 141.071  0.00  0.00    +0.000 A 
ATOM     28  C   UNL     1     114.082 129.076 140.377  0.00  0.00    +0.000 A 
ATOM     29  C   UNL     1     113.219 130.245 141.159  0.00  0.00    +0.000 A 
ATOM     30  C   UNL     1     114.398 129.833 140.466  0.00  0.00    +0.000 A 
ATOM     31  C   UNL     1     113.967 130.417 140.857  0.00  0.00    +0.000 A 
BRANCH  29  32
ATOM     32  O   UNL     1     112.788 130.830 141.550  0.00  0.00    +0.000 OA
ATOM     33  C   UNL     1     112.447 130.672 142.285  0.00  0.00    +0.000 C 
ENDBRANCH  29  32
ENDBRANCH   6  26
BRANCH  10  34
ATOM     34  O   UNL     1     112.987 129.197 139.311  0.00  0.00    +0.000 OA
BRANCH  34  42
ATOM     35  O   UNL     1     112.121 130.206 138.787  0.00  0.00    +0.000 OA
ATOM     36  O   UNL     1     113.782 130.715 137.023  0.00  0.00    +0.000 OA
ATOM     37  O   UNL     1     114.094 129.537 138.136  0.00  0.00    +0.000 OA
ATOM     38  O   UNL     1     112.362 131.554 137.087  0.00  0.00    +0.000 OA
ATOM     39  C   UNL     1     113.228 130.545 137.611  0.00  0.00    +0.000 C 
ATOM     40  C   UNL     1     113.384 129.956 138.168  0.00  0.00    +0.000 C 
ATOM     41  C   UNL     1     112.518 130.964 137.643  0.00  0.00    +0.000 C 
ATOM     42  C   UNL     1     112.831 129.786 138.755  0.00  0.00    +0.000 C 
ATOM     43  C   UNL     1     111.965 130.794 138.231  0.00  0.00    +0.000 C 
BRANCH  43  45
ATOM     44  O   UNL     1     110.944 131.447 138.989  0.00  0.00    +0.000 OA
ATOM     45  C   UNL     1     111.255 131.214 138.262  0.00  0.00    +0.000 C 
ENDBRANCH  43  45
ENDBRANCH  34  42
ENDBRANCH  10  34
TORSDOF 6
ENDMDL
MODEL 5
REMARK VINA RESULT:     -10.2      8.083     10.892
REMARK  Name = 131831436
REMARK  6 active torsions:
REMARK  status: ('A' for Active; 'I' for Inactive)
REMARK    1  A    between atoms: O_2  and  C_18
REMARK    2  A    between atoms: O_2  and  C_25
REMARK    3  A    between atoms: O_11  and  C_39
REMARK    4  A    between atoms: C_19  and  C_31
REMARK    5  A    between atoms: C_21  and  C_32
REMARK    6  A    between atoms: C_27  and  C_34
REMARK                            x       y       z     vdW  Elec       q    Type
REMARK                         _______ _______ _______ _____ _____    ______ ____
ROOT
ATOM      1  O   UNL     1     104.797 128.896 143.054  0.00  0.00    +0.000 OA
ATOM      2  O   UNL     1     103.224 129.114 140.607  0.00  0.00    +0.000 OA
ATOM      3  O   UNL     1     105.080 127.058 141.806  0.00  0.00    +0.000 OA
ATOM      4  O   UNL     1     102.431 129.241 139.389  0.00  0.00    +0.000 OA
ATOM      5  C   UNL     1     103.214 130.191 141.601  0.00  0.00    +0.000 A 
ATOM      6  C   UNL     1     102.672 130.647 141.115  0.00  0.00    +0.000 C 
ATOM      7  C   UNL     1     104.002 129.021 141.831  0.00  0.00    +0.000 A 
ATOM      8  C   UNL     1     104.273 128.251 141.564  0.00  0.00    +0.000 C 
ATOM      9  C   UNL     1     103.481 129.450 141.355  0.00  0.00    +0.000 A 
ATOM     10  C   UNL     1     103.468 130.503 142.321  0.00  0.00    +0.000 A 
ATOM     11  C   UNL     1     104.816 127.799 142.055  0.00  0.00    +0.000 C 
ATOM     12  C   UNL     1     105.079 128.124 142.805  0.00  0.00    +0.000 C 
ATOM     13  C   UNL     1     104.255 129.333 142.551  0.00  0.00    +0.000 A 
ATOM     14  C   UNL     1     102.404 130.327 140.364  0.00  0.00    +0.000 C 
ATOM     15  C   UNL     1     103.988 130.074 142.796  0.00  0.00    +0.000 A 
ATOM     16  C   UNL     1     102.682 129.556 140.109  0.00  0.00    +0.000 C 
ENDROOT
BRANCH  12  19
ATOM     17  O   UNL     1     107.749 127.480 143.595  0.00  0.00    +0.000 OA
ATOM     18  O   UNL     1     107.161 126.417 144.713  0.00  0.00    +0.000 OA
ATOM     19  C   UNL     1     105.600 127.697 143.282  0.00  0.00    +0.000 A 
ATOM     20  C   UNL     1     106.414 127.802 143.200  0.00  0.00    +0.000 A 
ATOM     21  C   UNL     1     105.307 127.166 143.841  0.00  0.00    +0.000 A 
ATOM     22  C   UNL     1     106.935 127.375 143.677  0.00  0.00    +0.000 A 
ATOM     23  C   UNL     1     105.827 126.739 144.318  0.00  0.00    +0.000 A 
ATOM     24  C   UNL     1     106.640 126.844 144.236  0.00  0.00    +0.000 A 
ENDBRANCH  12  19
BRANCH   6  26
ATOM     25  O   UNL     1     101.626 133.609 142.129  0.00  0.00    +0.000 OA
ATOM     26  C   UNL     1     102.410 131.387 141.369  0.00  0.00    +0.000 A 
ATOM     27  C   UNL     1     102.761 132.073 141.072  0.00  0.00    +0.000 A 
ATOM     28  C   UNL     1     101.798 131.442 141.919  0.00  0.00    +0.000 A 
ATOM     29  C   UNL     1     102.500 132.813 141.326  0.00  0.00    +0.000 A 
ATOM     30  C   UNL     1     101.537 132.183 142.172  0.00  0.00    +0.000 A 
ATOM     31  C   UNL     1     101.887 132.868 141.876  0.00  0.00    +0.000 A 
BRANCH  29  32
ATOM     32  O   UNL     1     102.851 133.499 141.030  0.00  0.00    +0.000 OA
ATOM     33  C   UNL     1     103.065 133.543 140.234  0.00  0.00    +0.000 C 
ENDBRANCH  29  32
ENDBRANCH   6  26
BRANCH  10  34
ATOM     34  O   UNL     1     103.200 131.244 142.567  0.00  0.00    +0.000 OA
BRANCH  34  42
ATOM     35  O   UNL     1     104.271 132.059 143.050  0.00  0.00    +0.000 OA
ATOM     36  O   UNL     1     103.322 131.949 145.334  0.00  0.00    +0.000 OA
ATOM     37  O   UNL     1     102.568 131.171 144.089  0.00  0.00    +0.000 OA
ATOM     38  O   UNL     1     104.708 132.800 145.056  0.00  0.00    +0.000 OA
ATOM     39  C   UNL     1     103.638 131.986 144.573  0.00  0.00    +0.000 C 
ATOM     40  C   UNL     1     103.261 131.597 143.950  0.00  0.00    +0.000 C 
ATOM     41  C   UNL     1     104.331 132.411 144.433  0.00  0.00    +0.000 C 
ATOM     42  C   UNL     1     103.577 131.633 143.189  0.00  0.00    +0.000 C 
ATOM     43  C   UNL     1     104.647 132.447 143.672  0.00  0.00    +0.000 C 
BRANCH  43  45
ATOM     44  O   UNL     1     105.616 132.974 142.763  0.00  0.00    +0.000 OA
ATOM     45  C   UNL     1     105.341 132.873 143.534  0.00  0.00    +0.000 C 
ENDBRANCH  43  45
ENDBRANCH  34  42
ENDBRANCH  10  34
TORSDOF 6
ENDMDL
MODEL 6
REMARK VINA RESULT:     -10.2      1.833      5.843
REMARK  Name = 131831436
REMARK  6 active torsions:
REMARK  status: ('A' for Active; 'I' for Inactive)
REMARK    1  A    between atoms: O_2  and  C_18
REMARK    2  A    between atoms: O_2  and  C_25
REMARK    3  A    between atoms: O_11  and  C_39
REMARK    4  A    between atoms: C_19  and  C_31
REMARK    5  A    between atoms: C_21  and  C_32
REMARK    6  A    between atoms: C_27  and  C_34
REMARK                            x       y       z     vdW  Elec       q    Type
REMARK                         _______ _______ _______ _____ _____    ______ ____
ROOT
ATOM      1  O   UNL     1     112.811 127.408 137.136  0.00  0.00    +0.000 OA
ATOM      2  O   UNL     1     110.316 128.218 135.861  0.00  0.00    +0.000 OA
ATOM      3  O   UNL     1     112.003 125.716 135.911  0.00  0.00    +0.000 OA
ATOM      4  O   UNL     1     109.068 128.642 135.232  0.00  0.00    +0.000 OA
ATOM      5  C   UNL     1     111.051 129.147 136.722  0.00  0.00    +0.000 A 
ATOM      6  C   UNL     1     110.457 129.754 136.591  0.00  0.00    +0.000 C 
ATOM      7  C   UNL     1     111.559 127.830 136.503  0.00  0.00    +0.000 A 
ATOM      8  C   UNL     1     111.477 127.061 136.130  0.00  0.00    +0.000 C 
ATOM      9  C   UNL     1     110.982 128.405 136.369  0.00  0.00    +0.000 A 
ATOM     10  C   UNL     1     111.696 129.316 137.209  0.00  0.00    +0.000 A 
ATOM     11  C   UNL     1     112.074 126.457 136.265  0.00  0.00    +0.000 C 
ATOM     12  C   UNL     1     112.746 126.633 136.771  0.00  0.00    +0.000 C 
ATOM     13  C   UNL     1     112.204 127.998 136.989  0.00  0.00    +0.000 A 
ATOM     14  C   UNL     1     109.783 129.585 136.086  0.00  0.00    +0.000 C 
ATOM     15  C   UNL     1     112.272 128.741 137.342  0.00  0.00    +0.000 A 
ATOM     16  C   UNL     1     109.712 128.812 135.719  0.00  0.00    +0.000 C 
ENDROOT
BRANCH  12  19
ATOM     17  O   UNL     1     115.238 125.418 136.075  0.00  0.00    +0.000 OA
ATOM     18  O   UNL     1     115.058 124.341 137.313  0.00  0.00    +0.000 OA
ATOM     19  C   UNL     1     113.324 126.060 136.907  0.00  0.00    +0.000 A 
ATOM     20  C   UNL     1     113.992 126.025 136.423  0.00  0.00    +0.000 A 
ATOM     21  C   UNL     1     113.235 125.521 137.525  0.00  0.00    +0.000 A 
ATOM     22  C   UNL     1     114.570 125.452 136.558  0.00  0.00    +0.000 A 
ATOM     23  C   UNL     1     113.813 124.948 137.660  0.00  0.00    +0.000 A 
ATOM     24  C   UNL     1     114.480 124.914 137.177  0.00  0.00    +0.000 A 
ENDBRANCH  12  19
BRANCH   6  26
ATOM     25  O   UNL     1     110.764 132.713 138.021  0.00  0.00    +0.000 OA
ATOM     26  C   UNL     1     110.534 130.494 136.948  0.00  0.00    +0.000 A 
ATOM     27  C   UNL     1     110.089 130.676 137.619  0.00  0.00    +0.000 A 
ATOM     28  C   UNL     1     111.055 131.051 136.635  0.00  0.00    +0.000 A 
ATOM     29  C   UNL     1     110.166 131.416 137.977  0.00  0.00    +0.000 A 
ATOM     30  C   UNL     1     111.132 131.791 136.993  0.00  0.00    +0.000 A 
ATOM     31  C   UNL     1     110.688 131.973 137.663  0.00  0.00    +0.000 A 
BRANCH  29  32
ATOM     32  O   UNL     1     109.722 131.598 138.648  0.00  0.00    +0.000 OA
ATOM     33  C   UNL     1     108.913 131.433 138.666  0.00  0.00    +0.000 C 
ENDBRANCH  29  32
ENDBRANCH   6  26
BRANCH  10  34
ATOM     34  O   UNL     1     111.765 130.058 137.562  0.00  0.00    +0.000 OA
BRANCH  34  42
ATOM     35  O   UNL     1     112.121 129.984 138.944  0.00  0.00    +0.000 OA
ATOM     36  O   UNL     1     114.347 130.930 138.421  0.00  0.00    +0.000 OA
ATOM     37  O   UNL     1     113.249 130.689 137.213  0.00  0.00    +0.000 OA
ATOM     38  O   UNL     1     113.961 130.541 139.977  0.00  0.00    +0.000 OA
ATOM     39  C   UNL     1     113.605 130.615 138.595  0.00  0.00    +0.000 C 
ATOM     40  C   UNL     1     113.055 130.494 137.991  0.00  0.00    +0.000 C 
ATOM     41  C   UNL     1     113.411 130.420 139.373  0.00  0.00    +0.000 C 
ATOM     42  C   UNL     1     112.313 130.179 138.165  0.00  0.00    +0.000 C 
ATOM     43  C   UNL     1     112.669 130.105 139.547  0.00  0.00    +0.000 C 
BRANCH  43  45
ATOM     44  O   UNL     1     111.688 129.811 140.543  0.00  0.00    +0.000 OA
ATOM     45  C   UNL     1     112.477 129.910 140.326  0.00  0.00    +0.000 C 
ENDBRANCH  43  45
ENDBRANCH  34  42
ENDBRANCH  10  34
TORSDOF 6
ENDMDL
MODEL 7
REMARK VINA RESULT:     -10.1      1.789      2.659
REMARK  Name = 131831436
REMARK  6 active torsions:
REMARK  status: ('A' for Active; 'I' for Inactive)
REMARK    1  A    between atoms: O_2  and  C_18
REMARK    2  A    between atoms: O_2  and  C_25
REMARK    3  A    between atoms: O_11  and  C_39
REMARK    4  A    between atoms: C_19  and  C_31
REMARK    5  A    between atoms: C_21  and  C_32
REMARK    6  A    between atoms: C_27  and  C_34
REMARK                            x       y       z     vdW  Elec       q    Type
REMARK                         _______ _______ _______ _____ _____    ______ ____
ROOT
ATOM      1  O   UNL     1     111.099 129.862 137.409  0.00  0.00    +0.000 OA
ATOM      2  O   UNL     1     113.536 128.965 136.081  0.00  0.00    +0.000 OA
ATOM      3  O   UNL     1     112.340 131.634 136.827  0.00  0.00    +0.000 OA
ATOM      4  O   UNL     1     114.750 128.497 135.419  0.00  0.00    +0.000 OA
ATOM      5  C   UNL     1     112.548 127.997 136.563  0.00  0.00    +0.000 A 
ATOM      6  C   UNL     1     113.032 127.346 136.279  0.00  0.00    +0.000 C 
ATOM      7  C   UNL     1     112.318 129.395 136.744  0.00  0.00    +0.000 A 
ATOM      8  C   UNL     1     112.582 130.206 136.638  0.00  0.00    +0.000 C 
ATOM      9  C   UNL     1     112.792 128.779 136.467  0.00  0.00    +0.000 A 
ATOM     10  C   UNL     1     111.830 127.830 136.935  0.00  0.00    +0.000 A 
ATOM     11  C   UNL     1     112.093 130.853 136.924  0.00  0.00    +0.000 C 
ATOM     12  C   UNL     1     111.346 130.679 137.312  0.00  0.00    +0.000 C 
ATOM     13  C   UNL     1     111.601 129.229 137.116  0.00  0.00    +0.000 A 
ATOM     14  C   UNL     1     113.780 127.513 135.891  0.00  0.00    +0.000 C 
ATOM     15  C   UNL     1     111.357 128.447 137.212  0.00  0.00    +0.000 A 
ATOM     16  C   UNL     1     114.034 128.328 135.791  0.00  0.00    +0.000 C 
ENDROOT
BRANCH  12  19
ATOM     17  O   UNL     1     110.257 132.176 139.490  0.00  0.00    +0.000 OA
ATOM     18  O   UNL     1     109.444 133.137 138.422  0.00  0.00    +0.000 OA
ATOM     19  C   UNL     1     110.871 131.294 137.590  0.00  0.00    +0.000 A 
ATOM     20  C   UNL     1     110.802 131.428 138.401  0.00  0.00    +0.000 A 
ATOM     21  C   UNL     1     110.464 131.774 137.056  0.00  0.00    +0.000 A 
ATOM     22  C   UNL     1     110.326 132.042 138.678  0.00  0.00    +0.000 A 
ATOM     23  C   UNL     1     109.989 132.388 137.334  0.00  0.00    +0.000 A 
ATOM     24  C   UNL     1     109.920 132.522 138.144  0.00  0.00    +0.000 A 
ENDBRANCH  12  19
BRANCH   6  26
ATOM     25  O   UNL     1     112.026 124.229 136.682  0.00  0.00    +0.000 OA
ATOM     26  C   UNL     1     112.780 126.567 136.379  0.00  0.00    +0.000 A 
ATOM     27  C   UNL     1     113.130 126.092 136.956  0.00  0.00    +0.000 A 
ATOM     28  C   UNL     1     112.179 126.263 135.903  0.00  0.00    +0.000 A 
ATOM     29  C   UNL     1     112.879 125.312 137.057  0.00  0.00    +0.000 A 
ATOM     30  C   UNL     1     111.928 125.484 136.004  0.00  0.00    +0.000 A 
ATOM     31  C   UNL     1     112.277 125.009 136.581  0.00  0.00    +0.000 A 
BRANCH  29  32
ATOM     32  O   UNL     1     113.228 124.837 137.634  0.00  0.00    +0.000 OA
ATOM     33  C   UNL     1     114.047 124.748 137.655  0.00  0.00    +0.000 C 
ENDBRANCH  29  32
ENDBRANCH   6  26
BRANCH  10  34
ATOM     34  O   UNL     1     111.587 127.048 137.031  0.00  0.00    +0.000 OA
BRANCH  34  42
ATOM     35  O   UNL     1     111.113 126.776 138.352  0.00  0.00    +0.000 OA
ATOM     36  O   UNL     1     108.813 126.519 137.473  0.00  0.00    +0.000 OA
ATOM     37  O   UNL     1     110.054 126.876 136.446  0.00  0.00    +0.000 OA
ATOM     38  O   UNL     1     109.106 126.333 139.086  0.00  0.00    +0.000 OA
ATOM     39  C   UNL     1     109.580 126.605 137.766  0.00  0.00    +0.000 C 
ATOM     40  C   UNL     1     110.201 126.784 137.252  0.00  0.00    +0.000 C 
ATOM     41  C   UNL     1     109.727 126.512 138.572  0.00  0.00    +0.000 C 
ATOM     42  C   UNL     1     110.967 126.869 137.545  0.00  0.00    +0.000 C 
ATOM     43  C   UNL     1     110.493 126.597 138.865  0.00  0.00    +0.000 C 
BRANCH  43  45
ATOM     44  O   UNL     1     111.320 126.115 139.926  0.00  0.00    +0.000 OA
ATOM     45  C   UNL     1     110.639 126.504 139.672  0.00  0.00    +0.000 C 
ENDBRANCH  43  45
ENDBRANCH  34  42
ENDBRANCH  10  34
TORSDOF 6
ENDMDL
MODEL 8
REMARK VINA RESULT:     -10.0      2.036      5.128
REMARK  Name = 131831436
REMARK  6 active torsions:
REMARK  status: ('A' for Active; 'I' for Inactive)
REMARK    1  A    between atoms: O_2  and  C_18
REMARK    2  A    between atoms: O_2  and  C_25
REMARK    3  A    between atoms: O_11  and  C_39
REMARK    4  A    between atoms: C_19  and  C_31
REMARK    5  A    between atoms: C_21  and  C_32
REMARK    6  A    between atoms: C_27  and  C_34
REMARK                            x       y       z     vdW  Elec       q    Type
REMARK                         _______ _______ _______ _____ _____    ______ ____
ROOT
ATOM      1  O   UNL     1     112.459 126.921 137.416  0.00  0.00    +0.000 OA
ATOM      2  O   UNL     1     113.387 128.748 139.491  0.00  0.00    +0.000 OA
ATOM      3  O   UNL     1     113.785 125.826 138.851  0.00  0.00    +0.000 OA
ATOM      4  O   UNL     1     113.841 129.678 140.521  0.00  0.00    +0.000 OA
ATOM      5  C   UNL     1     112.501 129.218 138.424  0.00  0.00    +0.000 A 
ATOM      6  C   UNL     1     112.504 130.010 138.756  0.00  0.00    +0.000 C 
ATOM      7  C   UNL     1     112.916 127.852 138.451  0.00  0.00    +0.000 A 
ATOM      8  C   UNL     1     113.365 127.225 138.830  0.00  0.00    +0.000 C 
ATOM      9  C   UNL     1     112.927 128.608 138.780  0.00  0.00    +0.000 A 
ATOM     10  C   UNL     1     112.062 129.072 137.740  0.00  0.00    +0.000 A 
ATOM     11  C   UNL     1     113.357 126.434 138.493  0.00  0.00    +0.000 C 
ATOM     12  C   UNL     1     112.901 126.281 137.781  0.00  0.00    +0.000 C 
ATOM     13  C   UNL     1     112.478 127.705 137.768  0.00  0.00    +0.000 A 
ATOM     14  C   UNL     1     112.958 130.169 139.468  0.00  0.00    +0.000 C 
ATOM     15  C   UNL     1     112.051 128.315 137.412  0.00  0.00    +0.000 A 
ATOM     16  C   UNL     1     113.403 129.534 139.838  0.00  0.00    +0.000 C 
ENDROOT
BRANCH  12  19
ATOM     17  O   UNL     1     111.591 123.770 137.395  0.00  0.00    +0.000 OA
ATOM     18  O   UNL     1     112.850 123.258 136.459  0.00  0.00    +0.000 OA
ATOM     19  C   UNL     1     112.888 125.525 137.450  0.00  0.00    +0.000 A 
ATOM     20  C   UNL     1     112.246 125.026 137.588  0.00  0.00    +0.000 A 
ATOM     21  C   UNL     1     113.517 125.269 136.982  0.00  0.00    +0.000 A 
ATOM     22  C   UNL     1     112.233 124.270 137.257  0.00  0.00    +0.000 A 
ATOM     23  C   UNL     1     113.505 124.513 136.652  0.00  0.00    +0.000 A 
ATOM     24  C   UNL     1     112.863 124.014 136.789  0.00  0.00    +0.000 A 
ENDBRANCH  12  19
BRANCH   6  26
ATOM     25  O   UNL     1     110.782 132.425 137.308  0.00  0.00    +0.000 OA
ATOM     26  C   UNL     1     112.074 130.614 138.394  0.00  0.00    +0.000 A 
ATOM     27  C   UNL     1     111.338 130.834 138.695  0.00  0.00    +0.000 A 
ATOM     28  C   UNL     1     112.379 130.998 137.731  0.00  0.00    +0.000 A 
ATOM     29  C   UNL     1     110.907 131.438 138.334  0.00  0.00    +0.000 A 
ATOM     30  C   UNL     1     111.949 131.601 137.369  0.00  0.00    +0.000 A 
ATOM     31  C   UNL     1     111.213 131.821 137.670  0.00  0.00    +0.000 A 
BRANCH  29  32
ATOM     32  O   UNL     1     110.171 131.658 138.634  0.00  0.00    +0.000 OA
ATOM     33  C   UNL     1     110.059 131.718 139.450  0.00  0.00    +0.000 C 
ENDBRANCH  29  32
ENDBRANCH   6  26
BRANCH  10  34
ATOM     34  O   UNL     1     111.635 129.682 137.385  0.00  0.00    +0.000 OA
BRANCH  34  42
ATOM     35  O   UNL     1     110.322 129.280 136.991  0.00  0.00    +0.000 OA
ATOM     36  O   UNL     1     110.979 129.460 134.612  0.00  0.00    +0.000 OA
ATOM     37  O   UNL     1     112.074 129.802 135.799  0.00  0.00    +0.000 OA
ATOM     38  O   UNL     1     109.446 128.998 135.011  0.00  0.00    +0.000 OA
ATOM     39  C   UNL     1     110.760 129.400 135.405  0.00  0.00    +0.000 C 
ATOM     40  C   UNL     1     111.308 129.571 135.999  0.00  0.00    +0.000 C 
ATOM     41  C   UNL     1     109.994 129.169 135.605  0.00  0.00    +0.000 C 
ATOM     42  C   UNL     1     111.088 129.511 136.792  0.00  0.00    +0.000 C 
ATOM     43  C   UNL     1     109.775 129.109 136.398  0.00  0.00    +0.000 C 
BRANCH  43  45
ATOM     44  O   UNL     1     108.625 129.226 137.240  0.00  0.00    +0.000 OA
ATOM     45  C   UNL     1     109.008 128.878 136.598  0.00  0.00    +0.000 C 
ENDBRANCH  43  45
ENDBRANCH  34  42
ENDBRANCH  10  34
TORSDOF 6
ENDMDL
MODEL 9
REMARK VINA RESULT:     -10.0      1.743      3.541
REMARK  Name = 131831436
REMARK  6 active torsions:
REMARK  status: ('A' for Active; 'I' for Inactive)
REMARK    1  A    between atoms: O_2  and  C_18
REMARK    2  A    between atoms: O_2  and  C_25
REMARK    3  A    between atoms: O_11  and  C_39
REMARK    4  A    between atoms: C_19  and  C_31
REMARK    5  A    between atoms: C_21  and  C_32
REMARK    6  A    between atoms: C_27  and  C_34
REMARK                            x       y       z     vdW  Elec       q    Type
REMARK                         _______ _______ _______ _____ _____    ______ ____
ROOT
ATOM      1  O   UNL     1     110.163 129.026 137.195  0.00  0.00    +0.000 OA
ATOM      2  O   UNL     1     109.541 126.758 135.470  0.00  0.00    +0.000 OA
ATOM      3  O   UNL     1     108.292 129.446 136.037  0.00  0.00    +0.000 OA
ATOM      4  O   UNL     1     109.246 125.612 134.614  0.00  0.00    +0.000 OA
ATOM      5  C   UNL     1     110.722 126.735 136.337  0.00  0.00    +0.000 A 
ATOM      6  C   UNL     1     110.928 125.951 136.054  0.00  0.00    +0.000 C 
ATOM      7  C   UNL     1     109.865 127.879 136.335  0.00  0.00    +0.000 A 
ATOM      8  C   UNL     1     109.164 128.274 136.034  0.00  0.00    +0.000 C 
ATOM      9  C   UNL     1     110.052 127.125 136.055  0.00  0.00    +0.000 A 
ATOM     10  C   UNL     1     111.206 127.099 136.899  0.00  0.00    +0.000 A 
ATOM     11  C   UNL     1     108.964 129.059 136.321  0.00  0.00    +0.000 C 
ATOM     12  C   UNL     1     109.467 129.438 136.906  0.00  0.00    +0.000 C 
ATOM     13  C   UNL     1     110.348 128.242 136.896  0.00  0.00    +0.000 A 
ATOM     14  C   UNL     1     110.429 125.568 135.469  0.00  0.00    +0.000 C 
ATOM     15  C   UNL     1     111.018 127.852 137.178  0.00  0.00    +0.000 A 
ATOM     16  C   UNL     1     109.731 125.974 135.176  0.00  0.00    +0.000 C 
ENDROOT
BRANCH  12  19
ATOM     17  O   UNL     1     108.436 131.125 138.969  0.00  0.00    +0.000 OA
ATOM     18  O   UNL     1     108.728 132.451 138.030  0.00  0.00    +0.000 OA
ATOM     19  C   UNL     1     109.282 130.191 137.187  0.00  0.00    +0.000 A 
ATOM     20  C   UNL     1     108.951 130.281 137.938  0.00  0.00    +0.000 A 
ATOM     21  C   UNL     1     109.428 130.854 136.718  0.00  0.00    +0.000 A 
ATOM     22  C   UNL     1     108.766 131.035 138.219  0.00  0.00    +0.000 A 
ATOM     23  C   UNL     1     109.243 131.607 137.000  0.00  0.00    +0.000 A 
ATOM     24  C   UNL     1     108.912 131.697 137.749  0.00  0.00    +0.000 A 
ENDBRANCH  12  19
BRANCH   6  26
ATOM     25  O   UNL     1     113.616 124.422 137.206  0.00  0.00    +0.000 OA
ATOM     26  C   UNL     1     111.600 125.569 136.341  0.00  0.00    +0.000 A 
ATOM     27  C   UNL     1     111.523 124.942 136.873  0.00  0.00    +0.000 A 
ATOM     28  C   UNL     1     112.349 125.814 136.098  0.00  0.00    +0.000 A 
ATOM     29  C   UNL     1     112.194 124.560 137.161  0.00  0.00    +0.000 A 
ATOM     30  C   UNL     1     113.021 125.431 136.387  0.00  0.00    +0.000 A 
ATOM     31  C   UNL     1     112.944 124.805 136.917  0.00  0.00    +0.000 A 
BRANCH  29  32
ATOM     32  O   UNL     1     112.118 123.933 137.692  0.00  0.00    +0.000 OA
ATOM     33  C   UNL     1     111.780 123.222 137.445  0.00  0.00    +0.000 C 
ENDBRANCH  29  32
ENDBRANCH   6  26
BRANCH  10  34
ATOM     34  O   UNL     1     111.876 126.709 137.180  0.00  0.00    +0.000 OA
BRANCH  34  42
ATOM     35  O   UNL     1     111.955 126.699 138.607  0.00  0.00    +0.000 OA
ATOM     36  O   UNL     1     113.885 128.247 138.511  0.00  0.00    +0.000 OA
ATOM     37  O   UNL     1     113.162 127.741 137.116  0.00  0.00    +0.000 OA
ATOM     38  O   UNL     1     113.321 127.721 139.970  0.00  0.00    +0.000 OA
ATOM     39  C   UNL     1     113.242 127.731 138.543  0.00  0.00    +0.000 C 
ATOM     40  C   UNL     1     112.880 127.478 137.845  0.00  0.00    +0.000 C 
ATOM     41  C   UNL     1     112.959 127.467 139.272  0.00  0.00    +0.000 C 
ATOM     42  C   UNL     1     112.237 126.962 137.877  0.00  0.00    +0.000 C 
ATOM     43  C   UNL     1     112.316 126.952 139.304  0.00  0.00    +0.000 C 
BRANCH  43  45
ATOM     44  O   UNL     1     111.373 126.199 140.069  0.00  0.00    +0.000 OA
ATOM     45  C   UNL     1     112.035 126.689 140.034  0.00  0.00    +0.000 C 
ENDBRANCH  43  45
ENDBRANCH  34  42
ENDBRANCH  10  34
TORSDOF 6
ENDMDL
MODEL 10
REMARK VINA RESULT:      -9.9      1.886      2.921
REMARK  Name = 131831436
REMARK  6 active torsions:
REMARK  status: ('A' for Active; 'I' for Inactive)
REMARK    1  A    between atoms: O_2  and  C_18
REMARK    2  A    between atoms: O_2  and  C_25
REMARK    3  A    between atoms: O_11  and  C_39
REMARK    4  A    between atoms: C_19  and  C_31
REMARK    5  A    between atoms: C_21  and  C_32
REMARK    6  A    between atoms: C_27  and  C_34
REMARK                            x       y       z     vdW  Elec       q    Type
REMARK                         _______ _______ _______ _____ _____    ______ ____
ROOT
ATOM      1  O   UNL     1     111.152 129.647 137.865  0.00  0.00    +0.000 OA
ATOM      2  O   UNL     1     113.140 128.090 139.327  0.00  0.00    +0.000 OA
ATOM      3  O   UNL     1     112.403 131.010 139.129  0.00  0.00    +0.000 OA
ATOM      4  O   UNL     1     114.127 127.293 140.049  0.00  0.00    +0.000 OA
ATOM      5  C   UNL     1     112.192 127.432 138.424  0.00  0.00    +0.000 A 
ATOM      6  C   UNL     1     112.536 126.666 138.604  0.00  0.00    +0.000 C 
ATOM      7  C   UNL     1     112.144 128.850 138.592  0.00  0.00    +0.000 A 
ATOM      8  C   UNL     1     112.457 129.560 138.962  0.00  0.00    +0.000 C 
ATOM      9  C   UNL     1     112.484 128.120 138.773  0.00  0.00    +0.000 A 
ATOM     10  C   UNL     1     111.561 127.474 137.893  0.00  0.00    +0.000 A 
ATOM     11  C   UNL     1     112.108 130.324 138.778  0.00  0.00    +0.000 C 
ATOM     12  C   UNL     1     111.451 130.367 138.225  0.00  0.00    +0.000 C 
ATOM     13  C   UNL     1     111.514 128.892 138.062  0.00  0.00    +0.000 A 
ATOM     14  C   UNL     1     113.193 126.616 139.155  0.00  0.00    +0.000 C 
ATOM     15  C   UNL     1     111.222 128.204 137.712  0.00  0.00    +0.000 A 
ATOM     16  C   UNL     1     113.497 127.333 139.519  0.00  0.00    +0.000 C 
ENDROOT
BRANCH  12  19
ATOM     17  O   UNL     1     109.486 132.378 138.737  0.00  0.00    +0.000 OA
ATOM     18  O   UNL     1     110.089 133.282 137.494  0.00  0.00    +0.000 OA
ATOM     19  C   UNL     1     111.111 131.096 138.043  0.00  0.00    +0.000 A 
ATOM     20  C   UNL     1     110.469 131.373 138.481  0.00  0.00    +0.000 A 
ATOM     21  C   UNL     1     111.411 131.548 137.422  0.00  0.00    +0.000 A 
ATOM     22  C   UNL     1     110.128 132.101 138.298  0.00  0.00    +0.000 A 
ATOM     23  C   UNL     1     111.071 132.277 137.239  0.00  0.00    +0.000 A 
ATOM     24  C   UNL     1     110.430 132.553 137.677  0.00  0.00    +0.000 A 
ENDBRANCH  12  19
BRANCH   6  26
ATOM     25  O   UNL     1     111.344 123.935 137.185  0.00  0.00    +0.000 OA
ATOM     26  C   UNL     1     112.238 125.983 138.249  0.00  0.00    +0.000 A 
ATOM     27  C   UNL     1     112.639 125.638 137.616  0.00  0.00    +0.000 A 
ATOM     28  C   UNL     1     111.538 125.646 138.527  0.00  0.00    +0.000 A 
ATOM     29  C   UNL     1     112.342 124.955 137.261  0.00  0.00    +0.000 A 
ATOM     30  C   UNL     1     111.240 124.964 138.172  0.00  0.00    +0.000 A 
ATOM     31  C   UNL     1     111.641 124.618 137.540  0.00  0.00    +0.000 A 
BRANCH  29  32
ATOM     32  O   UNL     1     112.743 124.610 136.629  0.00  0.00    +0.000 OA
ATOM     33  C   UNL     1     113.535 124.395 136.710  0.00  0.00    +0.000 C 
ENDBRANCH  29  32
ENDBRANCH   6  26
BRANCH  10  34
ATOM     34  O   UNL     1     111.269 126.786 137.544  0.00  0.00    +0.000 OA
BRANCH  34  42
ATOM     35  O   UNL     1     111.036 126.922 136.140  0.00  0.00    +0.000 OA
ATOM     36  O   UNL     1     108.595 126.815 136.535  0.00  0.00    +0.000 OA
ATOM     37  O   UNL     1     109.642 126.715 137.807  0.00  0.00    +0.000 OA
ATOM     38  O   UNL     1     109.176 126.987 135.000  0.00  0.00    +0.000 OA
ATOM     39  C   UNL     1     109.409 126.851 136.403  0.00  0.00    +0.000 C 
ATOM     40  C   UNL     1     109.933 126.801 137.040  0.00  0.00    +0.000 C 
ATOM     41  C   UNL     1     109.700 126.937 135.636  0.00  0.00    +0.000 C 
ATOM     42  C   UNL     1     110.747 126.836 136.908  0.00  0.00    +0.000 C 
ATOM     43  C   UNL     1     110.514 126.972 135.505  0.00  0.00    +0.000 C 
BRANCH  43  45
ATOM     44  O   UNL     1     111.556 127.371 134.612  0.00  0.00    +0.000 OA
ATOM     45  C   UNL     1     110.804 127.058 134.737  0.00  0.00    +0.000 C 
ENDBRANCH  43  45
ENDBRANCH  34  42
ENDBRANCH  10  34
TORSDOF 6
ENDMDL
