MODEL 1
REMARK VINA RESULT:      -9.9      0.000      0.000
REMARK  Name = 131833340
REMARK  7 active torsions:
REMARK  status: ('A' for Active; 'I' for Inactive)
REMARK    1  A    between atoms: S_1  and  O_4
REMARK    2  A    between atoms: O_4  and  C_25
REMARK    3  A    between atoms: C_21  and  C_30
REMARK    4  A    between atoms: C_23  and  C_32
REMARK    5  A    between atoms: C_27  and  C_36
REMARK    6  A    between atoms: C_31  and  C_38
REMARK    7  A    between atoms: C_40  and  C_42
REMARK                            x       y       z     vdW  Elec       q    Type
REMARK                         _______ _______ _______ _____ _____    ______ ____
ROOT
ATOM      1  O   UNL     1     110.909 127.382 138.805  0.00  0.00    +0.000 OA
ATOM      2  O   UNL     1     108.660 130.002 139.327  0.00  0.00    +0.000 OA
ATOM      3  O   UNL     1     109.408 127.855 141.940  0.00  0.00    +0.000 OA
ATOM      4  O   UNL     1     110.528 126.528 141.729  0.00  0.00    +0.000 OA
ATOM      5  C   UNL     1     109.034 128.929 140.633  0.00  0.00    +0.000 A 
ATOM      6  C   UNL     1     109.773 128.698 139.084  0.00  0.00    +0.000 A 
ATOM      7  C   UNL     1     109.156 129.210 139.682  0.00  0.00    +0.000 A 
ATOM      8  C   UNL     1     110.269 127.905 139.439  0.00  0.00    +0.000 A 
ATOM      9  C   UNL     1     109.530 128.136 140.988  0.00  0.00    +0.000 A 
ATOM     10  C   UNL     1     110.147 127.624 140.391  0.00  0.00    +0.000 A 
ATOM     11  C   UNL     1     110.657 126.801 140.775  0.00  0.00    +0.000 A 
ATOM     12  C   UNL     1     111.429 126.556 139.167  0.00  0.00    +0.000 A 
ATOM     13  C   UNL     1     111.302 126.263 140.159  0.00  0.00    +0.000 A 
ENDROOT
BRANCH   6  18
ATOM     14  O   UNL     1     109.307 128.597 137.419  0.00  0.00    +0.000 OA
ATOM     15  O   UNL     1     111.193 130.023 138.607  0.00  0.00    +0.000 OA
ATOM     16  O   UNL     1     111.436 130.585 136.703  0.00  0.00    +0.000 OA
ATOM     17  O   UNL     1     110.260 129.821 135.276  0.00  0.00    +0.000 OA
ATOM     18  C   UNL     1     109.895 128.979 138.132  0.00  0.00    +0.000 C 
ATOM     19  C   UNL     1     110.605 129.642 137.893  0.00  0.00    +0.000 C 
ATOM     20  C   UNL     1     110.727 129.922 136.941  0.00  0.00    +0.000 C 
ATOM     21  C   UNL     1     110.139 129.541 136.228  0.00  0.00    +0.000 C 
ATOM     22  C   UNL     1     109.429 128.878 136.467  0.00  0.00    +0.000 C 
BRANCH  22  24
ATOM     23  O   UNL     1     108.149 127.813 135.989  0.00  0.00    +0.000 OA
ATOM     24  C   UNL     1     108.841 128.496 135.754  0.00  0.00    +0.000 C 
ENDBRANCH  22  24
ENDBRANCH   6  18
BRANCH   5  28
ATOM     25  O   UNL     1     107.444 129.208 141.262  0.00  0.00    +0.000 OA
ATOM     26  O   UNL     1     109.743 130.417 141.766  0.00  0.00    +0.000 OA
ATOM     27  O   UNL     1     108.508 131.440 142.961  0.00  0.00    +0.000 OA
ATOM     28  C   UNL     1     108.416 129.440 141.231  0.00  0.00    +0.000 C 
ATOM     29  C   UNL     1     108.771 130.184 141.797  0.00  0.00    +0.000 C 
ATOM     30  C   UNL     1     108.153 130.696 142.394  0.00  0.00    +0.000 C 
ATOM     31  C   UNL     1     107.181 130.464 142.425  0.00  0.00    +0.000 C 
ATOM     32  C   UNL     1     106.827 129.720 141.859  0.00  0.00    +0.000 C 
BRANCH  32  34
ATOM     33  O   UNL     1     105.511 128.705 141.371  0.00  0.00    +0.000 OA
ATOM     34  C   UNL     1     105.854 129.488 141.890  0.00  0.00    +0.000 C 
ENDBRANCH  32  34
BRANCH  31  35
ATOM     35  O   UNL     1     106.563 130.976 143.022  0.00  0.00    +0.000 OA
BRANCH  35  36
ATOM     36  S   UNL     1     106.380 131.942 142.842  0.00  0.00    +0.000 S 
ATOM     37  O   UNL     1     105.977 131.701 141.959  0.00  0.00    +0.000 OA
ATOM     38  O   UNL     1     106.197 132.908 142.662  0.00  0.00    +0.000 OA
ATOM     39  O   UNL     1     106.784 132.183 143.725  0.00  0.00    +0.000 OA
ENDBRANCH  35  36
ENDBRANCH  31  35
ENDBRANCH   5  28
BRANCH  12  42
ATOM     40  O   UNL     1     111.944 124.084 136.795  0.00  0.00    +0.000 OA
ATOM     41  O   UNL     1     113.895 124.517 136.767  0.00  0.00    +0.000 OA
ATOM     42  C   UNL     1     112.046 126.046 138.567  0.00  0.00    +0.000 A 
ATOM     43  C   UNL     1     111.686 125.320 137.981  0.00  0.00    +0.000 A 
ATOM     44  C   UNL     1     113.022 126.263 138.554  0.00  0.00    +0.000 A 
ATOM     45  C   UNL     1     112.302 124.810 137.381  0.00  0.00    +0.000 A 
ATOM     46  C   UNL     1     113.638 125.753 137.953  0.00  0.00    +0.000 A 
ATOM     47  C   UNL     1     113.279 125.027 137.367  0.00  0.00    +0.000 A 
ENDBRANCH  12  42
TORSDOF 7
ENDMDL
MODEL 2
REMARK VINA RESULT:      -9.8      2.380      3.115
REMARK  Name = 131833340
REMARK  7 active torsions:
REMARK  status: ('A' for Active; 'I' for Inactive)
REMARK    1  A    between atoms: S_1  and  O_4
REMARK    2  A    between atoms: O_4  and  C_25
REMARK    3  A    between atoms: C_21  and  C_30
REMARK    4  A    between atoms: C_23  and  C_32
REMARK    5  A    between atoms: C_27  and  C_36
REMARK    6  A    between atoms: C_31  and  C_38
REMARK    7  A    between atoms: C_40  and  C_42
REMARK                            x       y       z     vdW  Elec       q    Type
REMARK                         _______ _______ _______ _____ _____    ______ ____
ROOT
ATOM      1  O   UNL     1     112.459 127.666 138.862  0.00  0.00    +0.000 OA
ATOM      2  O   UNL     1     111.360 130.813 139.905  0.00  0.00    +0.000 OA
ATOM      3  O   UNL     1     112.496 128.540 142.260  0.00  0.00    +0.000 OA
ATOM      4  O   UNL     1     113.057 126.952 141.787  0.00  0.00    +0.000 OA
ATOM      5  C   UNL     1     111.928 129.676 141.082  0.00  0.00    +0.000 A 
ATOM      6  C   UNL     1     111.909 129.248 139.404  0.00  0.00    +0.000 A 
ATOM      7  C   UNL     1     111.732 129.912 140.130  0.00  0.00    +0.000 A 
ATOM      8  C   UNL     1     112.281 128.348 139.630  0.00  0.00    +0.000 A 
ATOM      9  C   UNL     1     112.300 128.776 141.308  0.00  0.00    +0.000 A 
ATOM     10  C   UNL     1     112.477 128.112 140.582  0.00  0.00    +0.000 A 
ATOM     11  C   UNL     1     112.865 127.178 140.832  0.00  0.00    +0.000 A 
ATOM     12  C   UNL     1     112.847 126.727 139.089  0.00  0.00    +0.000 A 
ATOM     13  C   UNL     1     113.051 126.481 140.081  0.00  0.00    +0.000 A 
ENDROOT
BRANCH   6  18
ATOM     14  O   UNL     1     110.821 129.264 138.056  0.00  0.00    +0.000 OA
ATOM     15  O   UNL     1     113.300 130.159 138.293  0.00  0.00    +0.000 OA
ATOM     16  O   UNL     1     112.908 130.631 136.390  0.00  0.00    +0.000 OA
ATOM     17  O   UNL     1     111.125 130.192 135.597  0.00  0.00    +0.000 OA
ATOM     18  C   UNL     1     111.713 129.484 138.452  0.00  0.00    +0.000 C 
ATOM     19  C   UNL     1     112.408 129.939 137.897  0.00  0.00    +0.000 C 
ATOM     20  C   UNL     1     112.212 130.175 136.945  0.00  0.00    +0.000 C 
ATOM     21  C   UNL     1     111.321 129.956 136.549  0.00  0.00    +0.000 C 
ATOM     22  C   UNL     1     110.625 129.500 137.104  0.00  0.00    +0.000 C 
BRANCH  22  24
ATOM     23  O   UNL     1     109.026 128.858 137.273  0.00  0.00    +0.000 OA
ATOM     24  C   UNL     1     109.734 129.280 136.708  0.00  0.00    +0.000 C 
ENDBRANCH  22  24
ENDBRANCH   6  18
BRANCH   5  28
ATOM     25  O   UNL     1     110.858 130.366 142.257  0.00  0.00    +0.000 OA
ATOM     26  O   UNL     1     113.362 130.955 141.639  0.00  0.00    +0.000 OA
ATOM     27  O   UNL     1     113.009 132.283 143.091  0.00  0.00    +0.000 OA
ATOM     28  C   UNL     1     111.751 130.341 141.809  0.00  0.00    +0.000 C 
ATOM     29  C   UNL     1     112.468 130.980 142.087  0.00  0.00    +0.000 C 
ATOM     30  C   UNL     1     112.292 131.644 142.813  0.00  0.00    +0.000 C 
ATOM     31  C   UNL     1     111.398 131.669 143.261  0.00  0.00    +0.000 C 
ATOM     32  C   UNL     1     110.681 131.030 142.983  0.00  0.00    +0.000 C 
BRANCH  32  34
ATOM     33  O   UNL     1     108.952 131.018 142.883  0.00  0.00    +0.000 OA
ATOM     34  C   UNL     1     109.788 131.056 143.431  0.00  0.00    +0.000 C 
ENDBRANCH  32  34
BRANCH  31  35
ATOM     35  O   UNL     1     111.222 132.334 143.987  0.00  0.00    +0.000 OA
BRANCH  35  36
ATOM     36  S   UNL     1     111.715 132.269 144.855  0.00  0.00    +0.000 S 
ATOM     37  O   UNL     1     112.110 133.175 144.698  0.00  0.00    +0.000 OA
ATOM     38  O   UNL     1     112.209 132.205 145.722  0.00  0.00    +0.000 OA
ATOM     39  O   UNL     1     111.321 131.364 145.012  0.00  0.00    +0.000 OA
ENDBRANCH  35  36
ENDBRANCH  31  35
ENDBRANCH   5  28
BRANCH  12  42
ATOM     40  O   UNL     1     111.671 124.450 136.758  0.00  0.00    +0.000 OA
ATOM     41  O   UNL     1     113.548 124.079 136.175  0.00  0.00    +0.000 OA
ATOM     42  C   UNL     1     113.023 126.065 138.361  0.00  0.00    +0.000 A 
ATOM     43  C   UNL     1     112.259 125.589 137.924  0.00  0.00    +0.000 A 
ATOM     44  C   UNL     1     113.961 125.879 138.069  0.00  0.00    +0.000 A 
ATOM     45  C   UNL     1     112.434 124.926 137.195  0.00  0.00    +0.000 A 
ATOM     46  C   UNL     1     114.136 125.217 137.340  0.00  0.00    +0.000 A 
ATOM     47  C   UNL     1     113.372 124.741 136.903  0.00  0.00    +0.000 A 
ENDBRANCH  12  42
TORSDOF 7
ENDMDL
MODEL 3
REMARK VINA RESULT:      -9.8      3.801      7.951
REMARK  Name = 131833340
REMARK  7 active torsions:
REMARK  status: ('A' for Active; 'I' for Inactive)
REMARK    1  A    between atoms: S_1  and  O_4
REMARK    2  A    between atoms: O_4  and  C_25
REMARK    3  A    between atoms: C_21  and  C_30
REMARK    4  A    between atoms: C_23  and  C_32
REMARK    5  A    between atoms: C_27  and  C_36
REMARK    6  A    between atoms: C_31  and  C_38
REMARK    7  A    between atoms: C_40  and  C_42
REMARK                            x       y       z     vdW  Elec       q    Type
REMARK                         _______ _______ _______ _____ _____    ______ ____
ROOT
ATOM      1  O   UNL     1     111.057 131.694 144.893  0.00  0.00    +0.000 OA
ATOM      2  O   UNL     1     109.207 130.344 142.257  0.00  0.00    +0.000 OA
ATOM      3  O   UNL     1     112.411 131.518 141.661  0.00  0.00    +0.000 OA
ATOM      4  O   UNL     1     113.378 132.203 142.948  0.00  0.00    +0.000 OA
ATOM      5  C   UNL     1     110.809 130.931 141.959  0.00  0.00    +0.000 A 
ATOM      6  C   UNL     1     110.138 131.016 143.553  0.00  0.00    +0.000 A 
ATOM      7  C   UNL     1     110.052 130.764 142.590  0.00  0.00    +0.000 A 
ATOM      8  C   UNL     1     110.982 131.436 143.886  0.00  0.00    +0.000 A 
ATOM      9  C   UNL     1     111.654 131.351 142.292  0.00  0.00    +0.000 A 
ATOM     10  C   UNL     1     111.740 131.603 143.255  0.00  0.00    +0.000 A 
ATOM     11  C   UNL     1     112.626 132.040 143.587  0.00  0.00    +0.000 A 
ATOM     12  C   UNL     1     111.934 132.132 145.247  0.00  0.00    +0.000 A 
ATOM     13  C   UNL     1     112.723 132.306 144.590  0.00  0.00    +0.000 A 
ENDROOT
BRANCH   6  18
ATOM     14  O   UNL     1     108.692 131.558 144.337  0.00  0.00    +0.000 OA
ATOM     15  O   UNL     1     109.999 129.265 144.508  0.00  0.00    +0.000 OA
ATOM     16  O   UNL     1     108.484 128.931 145.770  0.00  0.00    +0.000 OA
ATOM     17  O   UNL     1     107.107 130.348 146.076  0.00  0.00    +0.000 OA
ATOM     18  C   UNL     1     109.380 130.849 144.184  0.00  0.00    +0.000 C 
ATOM     19  C   UNL     1     109.311 129.974 144.661  0.00  0.00    +0.000 C 
ATOM     20  C   UNL     1     108.553 129.807 145.292  0.00  0.00    +0.000 C 
ATOM     21  C   UNL     1     107.865 130.515 145.445  0.00  0.00    +0.000 C 
ATOM     22  C   UNL     1     107.934 131.391 144.968  0.00  0.00    +0.000 C 
BRANCH  22  24
ATOM     23  O   UNL     1     107.175 132.873 144.491  0.00  0.00    +0.000 OA
ATOM     24  C   UNL     1     107.246 132.100 145.121  0.00  0.00    +0.000 C 
ENDBRANCH  22  24
ENDBRANCH   6  18
BRANCH   5  28
ATOM     25  O   UNL     1     110.403 131.350 140.329  0.00  0.00    +0.000 OA
ATOM     26  O   UNL     1     111.277 129.079 141.365  0.00  0.00    +0.000 OA
ATOM     27  O   UNL     1     111.104 128.573 139.438  0.00  0.00    +0.000 OA
ATOM     28  C   UNL     1     110.723 130.678 140.995  0.00  0.00    +0.000 C 
ATOM     29  C   UNL     1     110.957 129.752 140.699  0.00  0.00    +0.000 C 
ATOM     30  C   UNL     1     110.870 129.499 139.735  0.00  0.00    +0.000 C 
ATOM     31  C   UNL     1     110.550 130.172 139.068  0.00  0.00    +0.000 C 
ATOM     32  C   UNL     1     110.316 131.098 139.365  0.00  0.00    +0.000 C 
BRANCH  32  34
ATOM     33  O   UNL     1     110.126 132.747 138.871  0.00  0.00    +0.000 OA
ATOM     34  C   UNL     1     109.996 131.770 138.698  0.00  0.00    +0.000 C 
ENDBRANCH  32  34
BRANCH  31  35
ATOM     35  O   UNL     1     110.464 129.919 138.105  0.00  0.00    +0.000 OA
BRANCH  35  36
ATOM     36  S   UNL     1     109.797 129.227 137.827  0.00  0.00    +0.000 S 
ATOM     37  O   UNL     1     109.058 129.792 138.192  0.00  0.00    +0.000 OA
ATOM     38  O   UNL     1     109.131 128.534 137.550  0.00  0.00    +0.000 OA
ATOM     39  O   UNL     1     110.537 128.661 137.463  0.00  0.00    +0.000 OA
ENDBRANCH  35  36
ENDBRANCH  31  35
ENDBRANCH   5  28
BRANCH  12  42
ATOM     40  O   UNL     1     110.701 133.780 148.034  0.00  0.00    +0.000 OA
ATOM     41  O   UNL     1     112.265 133.140 149.103  0.00  0.00    +0.000 OA
ATOM     42  C   UNL     1     112.017 132.384 146.211  0.00  0.00    +0.000 A 
ATOM     43  C   UNL     1     111.318 132.956 146.640  0.00  0.00    +0.000 A 
ATOM     44  C   UNL     1     112.799 132.064 146.746  0.00  0.00    +0.000 A 
ATOM     45  C   UNL     1     111.400 133.208 147.604  0.00  0.00    +0.000 A 
ATOM     46  C   UNL     1     112.881 132.316 147.710  0.00  0.00    +0.000 A 
ATOM     47  C   UNL     1     112.182 132.888 148.139  0.00  0.00    +0.000 A 
ENDBRANCH  12  42
TORSDOF 7
ENDMDL
MODEL 4
REMARK VINA RESULT:      -9.7      2.507      3.433
REMARK  Name = 131833340
REMARK  7 active torsions:
REMARK  status: ('A' for Active; 'I' for Inactive)
REMARK    1  A    between atoms: S_1  and  O_4
REMARK    2  A    between atoms: O_4  and  C_25
REMARK    3  A    between atoms: C_21  and  C_30
REMARK    4  A    between atoms: C_23  and  C_32
REMARK    5  A    between atoms: C_27  and  C_36
REMARK    6  A    between atoms: C_31  and  C_38
REMARK    7  A    between atoms: C_40  and  C_42
REMARK                            x       y       z     vdW  Elec       q    Type
REMARK                         _______ _______ _______ _____ _____    ______ ____
ROOT
ATOM      1  O   UNL     1     111.675 129.417 138.014  0.00  0.00    +0.000 OA
ATOM      2  O   UNL     1     108.640 129.325 139.738  0.00  0.00    +0.000 OA
ATOM      3  O   UNL     1     111.061 126.945 140.426  0.00  0.00    +0.000 OA
ATOM      4  O   UNL     1     112.598 126.949 139.589  0.00  0.00    +0.000 OA
ATOM      5  C   UNL     1     109.851 128.135 140.082  0.00  0.00    +0.000 A 
ATOM      6  C   UNL     1     110.151 129.357 138.892  0.00  0.00    +0.000 A 
ATOM      7  C   UNL     1     109.547 128.939 139.571  0.00  0.00    +0.000 A 
ATOM      8  C   UNL     1     111.058 128.971 138.724  0.00  0.00    +0.000 A 
ATOM      9  C   UNL     1     110.758 127.749 139.915  0.00  0.00    +0.000 A 
ATOM     10  C   UNL     1     111.361 128.167 139.236  0.00  0.00    +0.000 A 
ATOM     11  C   UNL     1     112.304 127.753 139.073  0.00  0.00    +0.000 A 
ATOM     12  C   UNL     1     112.622 129.021 137.834  0.00  0.00    +0.000 A 
ATOM     13  C   UNL     1     112.938 128.183 138.367  0.00  0.00    +0.000 A 
ENDROOT
BRANCH   6  18
ATOM     14  O   UNL     1     109.320 130.048 137.538  0.00  0.00    +0.000 OA
ATOM     15  O   UNL     1     110.597 131.190 139.553  0.00  0.00    +0.000 OA
ATOM     16  O   UNL     1     109.990 132.798 138.530  0.00  0.00    +0.000 OA
ATOM     17  O   UNL     1     108.936 132.572 136.846  0.00  0.00    +0.000 OA
ATOM     18  C   UNL     1     109.847 130.161 138.380  0.00  0.00    +0.000 C 
ATOM     19  C   UNL     1     110.070 131.078 138.711  0.00  0.00    +0.000 C 
ATOM     20  C   UNL     1     109.767 131.881 138.200  0.00  0.00    +0.000 C 
ATOM     21  C   UNL     1     109.240 131.768 137.357  0.00  0.00    +0.000 C 
ATOM     22  C   UNL     1     109.017 130.852 137.026  0.00  0.00    +0.000 C 
BRANCH  22  24
ATOM     23  O   UNL     1     107.825 129.996 136.106  0.00  0.00    +0.000 OA
ATOM     24  C   UNL     1     108.490 130.739 136.184  0.00  0.00    +0.000 C 
ENDBRANCH  22  24
ENDBRANCH   6  18
BRANCH   5  28
ATOM     25  O   UNL     1     108.649 126.960 140.499  0.00  0.00    +0.000 OA
ATOM     26  O   UNL     1     109.840 128.814 141.963  0.00  0.00    +0.000 OA
ATOM     27  O   UNL     1     108.632 127.978 143.321  0.00  0.00    +0.000 OA
ATOM     28  C   UNL     1     109.247 127.717 140.761  0.00  0.00    +0.000 C 
ATOM     29  C   UNL     1     109.241 128.057 141.702  0.00  0.00    +0.000 C 
ATOM     30  C   UNL     1     108.638 127.639 142.380  0.00  0.00    +0.000 C 
ATOM     31  C   UNL     1     108.040 126.881 142.119  0.00  0.00    +0.000 C 
ATOM     32  C   UNL     1     108.045 126.542 141.178  0.00  0.00    +0.000 C 
BRANCH  32  34
ATOM     33  O   UNL     1     107.399 125.492 139.961  0.00  0.00    +0.000 OA
ATOM     34  C   UNL     1     107.447 125.784 140.917  0.00  0.00    +0.000 C 
ENDBRANCH  32  34
BRANCH  31  35
ATOM     35  O   UNL     1     107.436 126.463 142.798  0.00  0.00    +0.000 OA
BRANCH  35  36
ATOM     36  S   UNL     1     106.708 127.004 143.219  0.00  0.00    +0.000 S 
ATOM     37  O   UNL     1     106.313 127.176 142.316  0.00  0.00    +0.000 OA
ATOM     38  O   UNL     1     105.979 127.544 143.640  0.00  0.00    +0.000 OA
ATOM     39  O   UNL     1     107.102 126.831 144.122  0.00  0.00    +0.000 OA
ENDBRANCH  35  36
ENDBRANCH  31  35
ENDBRANCH   5  28
BRANCH  12  42
ATOM     40  O   UNL     1     113.892 129.133 134.612  0.00  0.00    +0.000 OA
ATOM     41  O   UNL     1     115.025 130.702 135.115  0.00  0.00    +0.000 OA
ATOM     42  C   UNL     1     113.223 129.441 137.154  0.00  0.00    +0.000 A 
ATOM     43  C   UNL     1     113.256 129.077 136.224  0.00  0.00    +0.000 A 
ATOM     44  C   UNL     1     113.790 130.226 137.406  0.00  0.00    +0.000 A 
ATOM     45  C   UNL     1     113.857 129.497 135.543  0.00  0.00    +0.000 A 
ATOM     46  C   UNL     1     114.391 130.646 136.725  0.00  0.00    +0.000 A 
ATOM     47  C   UNL     1     114.425 130.281 135.795  0.00  0.00    +0.000 A 
ENDBRANCH  12  42
TORSDOF 7
ENDMDL
MODEL 5
REMARK VINA RESULT:      -9.7      3.650      5.196
REMARK  Name = 131833340
REMARK  7 active torsions:
REMARK  status: ('A' for Active; 'I' for Inactive)
REMARK    1  A    between atoms: S_1  and  O_4
REMARK    2  A    between atoms: O_4  and  C_25
REMARK    3  A    between atoms: C_21  and  C_30
REMARK    4  A    between atoms: C_23  and  C_32
REMARK    5  A    between atoms: C_27  and  C_36
REMARK    6  A    between atoms: C_31  and  C_38
REMARK    7  A    between atoms: C_40  and  C_42
REMARK                            x       y       z     vdW  Elec       q    Type
REMARK                         _______ _______ _______ _____ _____    ______ ____
ROOT
ATOM      1  O   UNL     1     112.033 130.023 140.538  0.00  0.00    +0.000 OA
ATOM      2  O   UNL     1     110.208 131.320 143.218  0.00  0.00    +0.000 OA
ATOM      3  O   UNL     1     113.605 131.964 143.002  0.00  0.00    +0.000 OA
ATOM      4  O   UNL     1     114.562 131.337 141.679  0.00  0.00    +0.000 OA
ATOM      5  C   UNL     1     111.906 131.642 143.110  0.00  0.00    +0.000 A 
ATOM      6  C   UNL     1     111.127 130.684 141.895  0.00  0.00    +0.000 A 
ATOM      7  C   UNL     1     111.080 131.216 142.741  0.00  0.00    +0.000 A 
ATOM      8  C   UNL     1     112.000 130.580 141.418  0.00  0.00    +0.000 A 
ATOM      9  C   UNL     1     112.779 131.537 142.633  0.00  0.00    +0.000 A 
ATOM     10  C   UNL     1     112.826 131.006 141.787  0.00  0.00    +0.000 A 
ATOM     11  C   UNL     1     113.742 130.906 141.301  0.00  0.00    +0.000 A 
ATOM     12  C   UNL     1     112.938 129.910 140.035  0.00  0.00    +0.000 A 
ATOM     13  C   UNL     1     113.799 130.354 140.420  0.00  0.00    +0.000 A 
ENDROOT
BRANCH   6  18
ATOM     14  O   UNL     1     110.064 129.321 141.783  0.00  0.00    +0.000 OA
ATOM     15  O   UNL     1     109.949 131.705 140.642  0.00  0.00    +0.000 OA
ATOM     16  O   UNL     1     108.298 130.852 139.903  0.00  0.00    +0.000 OA
ATOM     17  O   UNL     1     107.824 128.979 140.419  0.00  0.00    +0.000 OA
ATOM     18  C   UNL     1     110.301 130.258 141.526  0.00  0.00    +0.000 C 
ATOM     19  C   UNL     1     109.712 130.768 140.899  0.00  0.00    +0.000 C 
ATOM     20  C   UNL     1     108.887 130.342 140.530  0.00  0.00    +0.000 C 
ATOM     21  C   UNL     1     108.650 129.405 140.788  0.00  0.00    +0.000 C 
ATOM     22  C   UNL     1     109.239 128.895 141.414  0.00  0.00    +0.000 C 
BRANCH  22  24
ATOM     23  O   UNL     1     109.666 127.390 142.157  0.00  0.00    +0.000 OA
ATOM     24  C   UNL     1     109.002 127.958 141.672  0.00  0.00    +0.000 C 
ENDBRANCH  22  24
ENDBRANCH   6  18
BRANCH   5  28
ATOM     25  O   UNL     1     111.712 133.161 143.918  0.00  0.00    +0.000 OA
ATOM     26  O   UNL     1     112.108 130.727 144.877  0.00  0.00    +0.000 OA
ATOM     27  O   UNL     1     112.014 131.790 146.569  0.00  0.00    +0.000 OA
ATOM     28  C   UNL     1     111.859 132.173 143.956  0.00  0.00    +0.000 C 
ATOM     29  C   UNL     1     111.960 131.716 144.840  0.00  0.00    +0.000 C 
ATOM     30  C   UNL     1     111.913 132.247 145.686  0.00  0.00    +0.000 C 
ATOM     31  C   UNL     1     111.766 133.235 145.648  0.00  0.00    +0.000 C 
ATOM     32  C   UNL     1     111.665 133.692 144.764  0.00  0.00    +0.000 C 
BRANCH  32  34
ATOM     33  O   UNL     1     111.605 135.167 143.857  0.00  0.00    +0.000 OA
ATOM     34  C   UNL     1     111.518 134.681 144.727  0.00  0.00    +0.000 C 
ENDBRANCH  32  34
BRANCH  31  35
ATOM     35  O   UNL     1     111.719 133.766 146.494  0.00  0.00    +0.000 OA
BRANCH  35  36
ATOM     36  S   UNL     1     110.965 133.620 147.135  0.00  0.00    +0.000 S 
ATOM     37  O   UNL     1     111.622 133.430 147.864  0.00  0.00    +0.000 OA
ATOM     38  O   UNL     1     110.212 133.475 147.776  0.00  0.00    +0.000 OA
ATOM     39  O   UNL     1     110.308 133.811 146.405  0.00  0.00    +0.000 OA
ENDBRANCH  35  36
ENDBRANCH  31  35
ENDBRANCH   5  28
BRANCH  12  42
ATOM     40  O   UNL     1     113.058 129.781 136.575  0.00  0.00    +0.000 OA
ATOM     41  O   UNL     1     113.111 127.784 136.652  0.00  0.00    +0.000 OA
ATOM     42  C   UNL     1     112.981 129.378 139.190  0.00  0.00    +0.000 A 
ATOM     43  C   UNL     1     112.998 129.846 138.306  0.00  0.00    +0.000 A 
ATOM     44  C   UNL     1     113.008 128.379 139.228  0.00  0.00    +0.000 A 
ATOM     45  C   UNL     1     113.041 129.315 137.459  0.00  0.00    +0.000 A 
ATOM     46  C   UNL     1     113.051 127.848 138.381  0.00  0.00    +0.000 A 
ATOM     47  C   UNL     1     113.068 128.316 137.498  0.00  0.00    +0.000 A 
ENDBRANCH  12  42
TORSDOF 7
ENDMDL
MODEL 6
REMARK VINA RESULT:      -9.6      1.758      2.784
REMARK  Name = 131833340
REMARK  7 active torsions:
REMARK  status: ('A' for Active; 'I' for Inactive)
REMARK    1  A    between atoms: S_1  and  O_4
REMARK    2  A    between atoms: O_4  and  C_25
REMARK    3  A    between atoms: C_21  and  C_30
REMARK    4  A    between atoms: C_23  and  C_32
REMARK    5  A    between atoms: C_27  and  C_36
REMARK    6  A    between atoms: C_31  and  C_38
REMARK    7  A    between atoms: C_40  and  C_42
REMARK                            x       y       z     vdW  Elec       q    Type
REMARK                         _______ _______ _______ _____ _____    ______ ____
ROOT
ATOM      1  O   UNL     1     111.608 127.480 138.877  0.00  0.00    +0.000 OA
ATOM      2  O   UNL     1     110.607 130.175 140.859  0.00  0.00    +0.000 OA
ATOM      3  O   UNL     1     108.456 127.496 140.416  0.00  0.00    +0.000 OA
ATOM      4  O   UNL     1     108.911 126.123 139.433  0.00  0.00    +0.000 OA
ATOM      5  C   UNL     1     109.531 128.836 140.638  0.00  0.00    +0.000 A 
ATOM      6  C   UNL     1     111.088 128.831 139.879  0.00  0.00    +0.000 A 
ATOM      7  C   UNL     1     110.409 129.280 140.459  0.00  0.00    +0.000 A 
ATOM      8  C   UNL     1     110.890 127.936 139.479  0.00  0.00    +0.000 A 
ATOM      9  C   UNL     1     109.333 127.941 140.237  0.00  0.00    +0.000 A 
ATOM     10  C   UNL     1     110.013 127.491 139.658  0.00  0.00    +0.000 A 
ATOM     11  C   UNL     1     109.792 126.559 139.248  0.00  0.00    +0.000 A 
ATOM     12  C   UNL     1     111.409 126.548 138.457  0.00  0.00    +0.000 A 
ATOM     13  C   UNL     1     110.495 126.085 138.643  0.00  0.00    +0.000 A 
ENDROOT
BRANCH   6  18
ATOM     14  O   UNL     1     112.767 129.040 140.250  0.00  0.00    +0.000 OA
ATOM     15  O   UNL     1     111.241 130.191 138.421  0.00  0.00    +0.000 OA
ATOM     16  O   UNL     1     112.996 131.080 138.063  0.00  0.00    +0.000 OA
ATOM     17  O   UNL     1     114.598 130.610 139.163  0.00  0.00    +0.000 OA
ATOM     18  C   UNL     1     111.966 129.275 139.700  0.00  0.00    +0.000 C 
ATOM     19  C   UNL     1     112.042 129.955 138.971  0.00  0.00    +0.000 C 
ATOM     20  C   UNL     1     112.920 130.400 138.792  0.00  0.00    +0.000 C 
ATOM     21  C   UNL     1     113.721 130.165 139.342  0.00  0.00    +0.000 C 
ATOM     22  C   UNL     1     113.644 129.485 140.071  0.00  0.00    +0.000 C 
BRANCH  22  24
ATOM     23  O   UNL     1     114.576 128.310 140.939  0.00  0.00    +0.000 OA
ATOM     24  C   UNL     1     114.446 129.250 140.621  0.00  0.00    +0.000 C 
ENDBRANCH  22  24
ENDBRANCH   6  18
BRANCH   5  28
ATOM     25  O   UNL     1     108.828 129.096 142.199  0.00  0.00    +0.000 OA
ATOM     26  O   UNL     1     108.219 130.113 139.833  0.00  0.00    +0.000 OA
ATOM     27  O   UNL     1     106.860 131.012 140.992  0.00  0.00    +0.000 OA
ATOM     28  C   UNL     1     108.851 129.285 141.217  0.00  0.00    +0.000 C 
ATOM     29  C   UNL     1     108.195 129.924 140.815  0.00  0.00    +0.000 C 
ATOM     30  C   UNL     1     107.516 130.374 141.395  0.00  0.00    +0.000 C 
ATOM     31  C   UNL     1     107.492 130.185 142.376  0.00  0.00    +0.000 C 
ATOM     32  C   UNL     1     108.148 129.546 142.779  0.00  0.00    +0.000 C 
BRANCH  32  34
ATOM     33  O   UNL     1     108.416 128.465 144.105  0.00  0.00    +0.000 OA
ATOM     34  C   UNL     1     108.125 129.357 143.760  0.00  0.00    +0.000 C 
ENDBRANCH  32  34
BRANCH  31  35
ATOM     35  O   UNL     1     106.813 130.635 142.956  0.00  0.00    +0.000 OA
BRANCH  35  36
ATOM     36  S   UNL     1     106.838 131.627 143.078  0.00  0.00    +0.000 S 
ATOM     37  O   UNL     1     107.770 131.559 143.435  0.00  0.00    +0.000 OA
ATOM     38  O   UNL     1     106.863 132.619 143.200  0.00  0.00    +0.000 OA
ATOM     39  O   UNL     1     105.906 131.694 142.721  0.00  0.00    +0.000 OA
ENDBRANCH  35  36
ENDBRANCH  31  35
ENDBRANCH   5  28
BRANCH  12  42
ATOM     40  O   UNL     1     114.617 125.322 137.999  0.00  0.00    +0.000 OA
ATOM     41  O   UNL     1     114.137 124.760 136.141  0.00  0.00    +0.000 OA
ATOM     42  C   UNL     1     112.091 126.101 137.878  0.00  0.00    +0.000 A 
ATOM     43  C   UNL     1     113.013 125.935 138.228  0.00  0.00    +0.000 A 
ATOM     44  C   UNL     1     111.850 125.820 136.948  0.00  0.00    +0.000 A 
ATOM     45  C   UNL     1     113.695 125.488 137.650  0.00  0.00    +0.000 A 
ATOM     46  C   UNL     1     112.533 125.373 136.370  0.00  0.00    +0.000 A 
ATOM     47  C   UNL     1     113.455 125.207 136.720  0.00  0.00    +0.000 A 
ENDBRANCH  12  42
TORSDOF 7
ENDMDL
MODEL 7
REMARK VINA RESULT:      -9.6      3.364      4.596
REMARK  Name = 131833340
REMARK  7 active torsions:
REMARK  status: ('A' for Active; 'I' for Inactive)
REMARK    1  A    between atoms: S_1  and  O_4
REMARK    2  A    between atoms: O_4  and  C_25
REMARK    3  A    between atoms: C_21  and  C_30
REMARK    4  A    between atoms: C_23  and  C_32
REMARK    5  A    between atoms: C_27  and  C_36
REMARK    6  A    between atoms: C_31  and  C_38
REMARK    7  A    between atoms: C_40  and  C_42
REMARK                            x       y       z     vdW  Elec       q    Type
REMARK                         _______ _______ _______ _____ _____    ______ ____
ROOT
ATOM      1  O   UNL     1     112.688 130.137 138.778  0.00  0.00    +0.000 OA
ATOM      2  O   UNL     1     110.354 130.532 141.347  0.00  0.00    +0.000 OA
ATOM      3  O   UNL     1     113.733 130.802 142.061  0.00  0.00    +0.000 OA
ATOM      4  O   UNL     1     114.941 130.612 140.809  0.00  0.00    +0.000 OA
ATOM      5  C   UNL     1     112.044 130.667 141.704  0.00  0.00    +0.000 A 
ATOM      6  C   UNL     1     111.524 130.339 140.084  0.00  0.00    +0.000 A 
ATOM      7  C   UNL     1     111.308 130.513 141.045  0.00  0.00    +0.000 A 
ATOM      8  C   UNL     1     112.478 130.319 139.783  0.00  0.00    +0.000 A 
ATOM      9  C   UNL     1     112.997 130.648 141.402  0.00  0.00    +0.000 A 
ATOM     10  C   UNL     1     113.214 130.474 140.441  0.00  0.00    +0.000 A 
ATOM     11  C   UNL     1     114.212 130.456 140.142  0.00  0.00    +0.000 A 
ATOM     12  C   UNL     1     113.678 130.115 138.457  0.00  0.00    +0.000 A 
ATOM     13  C   UNL     1     114.445 130.276 139.143  0.00  0.00    +0.000 A 
ENDROOT
BRANCH   6  18
ATOM     14  O   UNL     1     110.380 130.958 138.941  0.00  0.00    +0.000 OA
ATOM     15  O   UNL     1     110.868 128.482 139.735  0.00  0.00    +0.000 OA
ATOM     16  O   UNL     1     109.396 128.173 138.418  0.00  0.00    +0.000 OA
ATOM     17  O   UNL     1     108.579 129.720 137.449  0.00  0.00    +0.000 OA
ATOM     18  C   UNL     1     110.788 130.184 139.425  0.00  0.00    +0.000 C 
ATOM     19  C   UNL     1     110.460 129.256 139.251  0.00  0.00    +0.000 C 
ATOM     20  C   UNL     1     109.724 129.101 138.592  0.00  0.00    +0.000 C 
ATOM     21  C   UNL     1     109.316 129.875 138.108  0.00  0.00    +0.000 C 
ATOM     22  C   UNL     1     109.644 130.803 138.282  0.00  0.00    +0.000 C 
BRANCH  22  24
ATOM     23  O   UNL     1     109.048 132.430 138.286  0.00  0.00    +0.000 OA
ATOM     24  C   UNL     1     109.236 131.577 137.798  0.00  0.00    +0.000 C 
ENDBRANCH  22  24
ENDBRANCH   6  18
BRANCH   5  28
ATOM     25  O   UNL     1     111.829 130.087 143.321  0.00  0.00    +0.000 OA
ATOM     26  O   UNL     1     111.607 132.522 142.310  0.00  0.00    +0.000 OA
ATOM     27  O   UNL     1     111.173 132.870 144.231  0.00  0.00    +0.000 OA
ATOM     28  C   UNL     1     111.827 130.841 142.664  0.00  0.00    +0.000 C 
ATOM     29  C   UNL     1     111.609 131.769 142.967  0.00  0.00    +0.000 C 
ATOM     30  C   UNL     1     111.392 131.943 143.928  0.00  0.00    +0.000 C 
ATOM     31  C   UNL     1     111.393 131.189 144.585  0.00  0.00    +0.000 C 
ATOM     32  C   UNL     1     111.612 130.261 144.282  0.00  0.00    +0.000 C 
BRANCH  32  34
ATOM     33  O   UNL     1     111.547 128.563 144.617  0.00  0.00    +0.000 OA
ATOM     34  C   UNL     1     111.613 129.508 144.939  0.00  0.00    +0.000 C 
ENDBRANCH  32  34
BRANCH  31  35
ATOM     35  O   UNL     1     111.176 131.363 145.546  0.00  0.00    +0.000 OA
BRANCH  35  36
ATOM     36  S   UNL     1     111.788 131.924 146.103  0.00  0.00    +0.000 S 
ATOM     37  O   UNL     1     111.067 132.610 146.205  0.00  0.00    +0.000 OA
ATOM     38  O   UNL     1     112.400 132.486 146.660  0.00  0.00    +0.000 OA
ATOM     39  O   UNL     1     112.510 131.239 146.001  0.00  0.00    +0.000 OA
ENDBRANCH  35  36
ENDBRANCH  31  35
ENDBRANCH   5  28
BRANCH  12  42
ATOM     40  O   UNL     1     115.221 131.070 135.505  0.00  0.00    +0.000 OA
ATOM     41  O   UNL     1     114.532 129.419 134.612  0.00  0.00    +0.000 OA
ATOM     42  C   UNL     1     113.891 129.941 137.496  0.00  0.00    +0.000 A 
ATOM     43  C   UNL     1     114.449 130.592 136.982  0.00  0.00    +0.000 A 
ATOM     44  C   UNL     1     113.547 129.115 137.049  0.00  0.00    +0.000 A 
ATOM     45  C   UNL     1     114.663 130.419 136.020  0.00  0.00    +0.000 A 
ATOM     46  C   UNL     1     113.761 128.941 136.087  0.00  0.00    +0.000 A 
ATOM     47  C   UNL     1     114.319 129.593 135.573  0.00  0.00    +0.000 A 
ENDBRANCH  12  42
TORSDOF 7
ENDMDL
MODEL 8
REMARK VINA RESULT:      -9.6      3.195      4.854
REMARK  Name = 131833340
REMARK  7 active torsions:
REMARK  status: ('A' for Active; 'I' for Inactive)
REMARK    1  A    between atoms: S_1  and  O_4
REMARK    2  A    between atoms: O_4  and  C_25
REMARK    3  A    between atoms: C_21  and  C_30
REMARK    4  A    between atoms: C_23  and  C_32
REMARK    5  A    between atoms: C_27  and  C_36
REMARK    6  A    between atoms: C_31  and  C_38
REMARK    7  A    between atoms: C_40  and  C_42
REMARK                            x       y       z     vdW  Elec       q    Type
REMARK                         _______ _______ _______ _____ _____    ______ ____
ROOT
ATOM      1  O   UNL     1     111.535 128.219 140.388  0.00  0.00    +0.000 OA
ATOM      2  O   UNL     1     109.027 126.148 139.118  0.00  0.00    +0.000 OA
ATOM      3  O   UNL     1     108.948 127.064 142.457  0.00  0.00    +0.000 OA
ATOM      4  O   UNL     1     110.181 128.100 143.141  0.00  0.00    +0.000 OA
ATOM      5  C   UNL     1     108.987 126.606 140.787  0.00  0.00    +0.000 A 
ATOM      6  C   UNL     1     110.263 127.174 139.763  0.00  0.00    +0.000 A 
ATOM      7  C   UNL     1     109.426 126.643 139.890  0.00  0.00    +0.000 A 
ATOM      8  C   UNL     1     110.662 127.669 140.535  0.00  0.00    +0.000 A 
ATOM      9  C   UNL     1     109.386 127.101 141.559  0.00  0.00    +0.000 A 
ATOM     10  C   UNL     1     110.224 127.633 141.433  0.00  0.00    +0.000 A 
ATOM     11  C   UNL     1     110.627 128.143 142.247  0.00  0.00    +0.000 A 
ATOM     12  C   UNL     1     111.957 128.737 141.188  0.00  0.00    +0.000 A 
ATOM     13  C   UNL     1     111.500 128.698 142.123  0.00  0.00    +0.000 A 
ENDROOT
BRANCH   6  18
ATOM     14  O   UNL     1     110.456 127.932 138.218  0.00  0.00    +0.000 OA
ATOM     15  O   UNL     1     111.633 125.805 139.263  0.00  0.00    +0.000 OA
ATOM     16  O   UNL     1     112.510 125.878 137.467  0.00  0.00    +0.000 OA
ATOM     17  O   UNL     1     112.018 127.321 136.172  0.00  0.00    +0.000 OA
ATOM     18  C   UNL     1     110.702 127.211 138.866  0.00  0.00    +0.000 C 
ATOM     19  C   UNL     1     111.387 126.526 138.615  0.00  0.00    +0.000 C 
ATOM     20  C   UNL     1     111.825 126.563 137.717  0.00  0.00    +0.000 C 
ATOM     21  C   UNL     1     111.579 127.284 137.070  0.00  0.00    +0.000 C 
ATOM     22  C   UNL     1     110.895 127.969 137.320  0.00  0.00    +0.000 C 
BRANCH  22  24
ATOM     23  O   UNL     1     109.766 129.153 136.752  0.00  0.00    +0.000 OA
ATOM     24  C   UNL     1     110.649 128.690 136.672  0.00  0.00    +0.000 C 
ENDBRANCH  22  24
ENDBRANCH   6  18
BRANCH   5  28
ATOM     25  O   UNL     1     107.260 126.532 140.901  0.00  0.00    +0.000 OA
ATOM     26  O   UNL     1     109.090 124.628 141.065  0.00  0.00    +0.000 OA
ATOM     27  O   UNL     1     107.415 123.565 141.317  0.00  0.00    +0.000 OA
ATOM     28  C   UNL     1     108.150 126.075 140.913  0.00  0.00    +0.000 C 
ATOM     29  C   UNL     1     108.201 125.086 141.052  0.00  0.00    +0.000 C 
ATOM     30  C   UNL     1     107.363 124.554 141.178  0.00  0.00    +0.000 C 
ATOM     31  C   UNL     1     106.474 125.012 141.165  0.00  0.00    +0.000 C 
ATOM     32  C   UNL     1     106.423 126.001 141.027  0.00  0.00    +0.000 C 
BRANCH  32  34
ATOM     33  O   UNL     1     105.448 127.394 141.355  0.00  0.00    +0.000 OA
ATOM     34  C   UNL     1     105.534 126.458 141.014  0.00  0.00    +0.000 C 
ENDBRANCH  32  34
BRANCH  31  35
ATOM     35  O   UNL     1     105.637 124.480 141.291  0.00  0.00    +0.000 OA
BRANCH  35  36
ATOM     36  S   UNL     1     105.353 123.822 140.594  0.00  0.00    +0.000 S 
ATOM     37  O   UNL     1     105.329 123.100 141.286  0.00  0.00    +0.000 OA
ATOM     38  O   UNL     1     105.069 123.164 139.897  0.00  0.00    +0.000 OA
ATOM     39  O   UNL     1     105.376 124.544 139.903  0.00  0.00    +0.000 OA
ENDBRANCH  35  36
ENDBRANCH  31  35
ENDBRANCH   5  28
BRANCH  12  42
ATOM     40  O   UNL     1     113.838 131.576 141.822  0.00  0.00    +0.000 OA
ATOM     41  O   UNL     1     115.307 130.859 140.670  0.00  0.00    +0.000 OA
ATOM     42  C   UNL     1     112.794 129.267 141.058  0.00  0.00    +0.000 A 
ATOM     43  C   UNL     1     112.897 130.156 141.505  0.00  0.00    +0.000 A 
ATOM     44  C   UNL     1     113.529 128.909 140.482  0.00  0.00    +0.000 A 
ATOM     45  C   UNL     1     113.734 130.687 141.376  0.00  0.00    +0.000 A 
ATOM     46  C   UNL     1     114.367 129.440 140.353  0.00  0.00    +0.000 A 
ATOM     47  C   UNL     1     114.469 130.329 140.800  0.00  0.00    +0.000 A 
ENDBRANCH  12  42
TORSDOF 7
ENDMDL
MODEL 9
REMARK VINA RESULT:      -9.5      1.987      2.423
REMARK  Name = 131833340
REMARK  7 active torsions:
REMARK  status: ('A' for Active; 'I' for Inactive)
REMARK    1  A    between atoms: S_1  and  O_4
REMARK    2  A    between atoms: O_4  and  C_25
REMARK    3  A    between atoms: C_21  and  C_30
REMARK    4  A    between atoms: C_23  and  C_32
REMARK    5  A    between atoms: C_27  and  C_36
REMARK    6  A    between atoms: C_31  and  C_38
REMARK    7  A    between atoms: C_40  and  C_42
REMARK                            x       y       z     vdW  Elec       q    Type
REMARK                         _______ _______ _______ _____ _____    ______ ____
ROOT
ATOM      1  O   UNL     1     110.835 129.693 138.240  0.00  0.00    +0.000 OA
ATOM      2  O   UNL     1     108.003 131.282 139.524  0.00  0.00    +0.000 OA
ATOM      3  O   UNL     1     109.490 128.731 141.335  0.00  0.00    +0.000 OA
ATOM      4  O   UNL     1     110.910 127.904 140.734  0.00  0.00    +0.000 OA
ATOM      5  C   UNL     1     108.747 130.007 140.430  0.00  0.00    +0.000 A 
ATOM      6  C   UNL     1     109.408 130.484 138.902  0.00  0.00    +0.000 A 
ATOM      7  C   UNL     1     108.719 130.591 139.618  0.00  0.00    +0.000 A 
ATOM      8  C   UNL     1     110.125 129.793 138.996  0.00  0.00    +0.000 A 
ATOM      9  C   UNL     1     109.463 129.315 140.524  0.00  0.00    +0.000 A 
ATOM     10  C   UNL     1     110.152 129.208 139.807  0.00  0.00    +0.000 A 
ATOM     11  C   UNL     1     110.892 128.483 139.919  0.00  0.00    +0.000 A 
ATOM     12  C   UNL     1     111.584 128.975 138.331  0.00  0.00    +0.000 A 
ATOM     13  C   UNL     1     111.613 128.366 139.177  0.00  0.00    +0.000 A 
ENDROOT
BRANCH   6  18
ATOM     14  O   UNL     1     108.840 130.795 137.295  0.00  0.00    +0.000 OA
ATOM     15  O   UNL     1     110.436 132.199 138.870  0.00  0.00    +0.000 OA
ATOM     16  O   UNL     1     110.381 133.368 137.248  0.00  0.00    +0.000 OA
ATOM     17  O   UNL     1     109.299 132.821 135.657  0.00  0.00    +0.000 OA
ATOM     18  C   UNL     1     109.381 131.068 138.091  0.00  0.00    +0.000 C 
ATOM     19  C   UNL     1     109.895 131.926 138.075  0.00  0.00    +0.000 C 
ATOM     20  C   UNL     1     109.867 132.510 137.264  0.00  0.00    +0.000 C 
ATOM     21  C   UNL     1     109.326 132.237 136.469  0.00  0.00    +0.000 C 
ATOM     22  C   UNL     1     108.812 131.379 136.484  0.00  0.00    +0.000 C 
BRANCH  22  24
ATOM     23  O   UNL     1     107.444 130.558 135.812  0.00  0.00    +0.000 OA
ATOM     24  C   UNL     1     108.271 131.106 135.689  0.00  0.00    +0.000 C 
ENDBRANCH  22  24
ENDBRANCH   6  18
BRANCH   5  28
ATOM     25  O   UNL     1     107.224 129.562 141.125  0.00  0.00    +0.000 OA
ATOM     26  O   UNL     1     109.036 131.324 141.906  0.00  0.00    +0.000 OA
ATOM     27  O   UNL     1     107.658 131.538 143.340  0.00  0.00    +0.000 OA
ATOM     28  C   UNL     1     108.058 130.114 141.146  0.00  0.00    +0.000 C 
ATOM     29  C   UNL     1     108.203 130.773 141.885  0.00  0.00    +0.000 C 
ATOM     30  C   UNL     1     107.514 130.880 142.601  0.00  0.00    +0.000 C 
ATOM     31  C   UNL     1     106.680 130.328 142.580  0.00  0.00    +0.000 C 
ATOM     32  C   UNL     1     106.535 129.669 141.842  0.00  0.00    +0.000 C 
BRANCH  32  34
ATOM     33  O   UNL     1     105.719 128.200 141.422  0.00  0.00    +0.000 OA
ATOM     34  C   UNL     1     105.702 129.117 141.821  0.00  0.00    +0.000 C 
ENDBRANCH  32  34
BRANCH  31  35
ATOM     35  O   UNL     1     105.991 130.435 143.297  0.00  0.00    +0.000 OA
BRANCH  35  36
ATOM     36  S   UNL     1     105.475 131.288 143.371  0.00  0.00    +0.000 S 
ATOM     37  O   UNL     1     105.112 131.149 142.450  0.00  0.00    +0.000 OA
ATOM     38  O   UNL     1     104.959 132.141 143.445  0.00  0.00    +0.000 OA
ATOM     39  O   UNL     1     105.838 131.427 144.293  0.00  0.00    +0.000 OA
ENDBRANCH  35  36
ENDBRANCH  31  35
ENDBRANCH   5  28
BRANCH  12  42
ATOM     40  O   UNL     1     114.394 130.143 136.675  0.00  0.00    +0.000 OA
ATOM     41  O   UNL     1     114.334 128.558 135.457  0.00  0.00    +0.000 OA
ATOM     42  C   UNL     1     112.272 128.871 137.613  0.00  0.00    +0.000 A 
ATOM     43  C   UNL     1     112.989 129.559 137.504  0.00  0.00    +0.000 A 
ATOM     44  C   UNL     1     112.241 128.078 137.003  0.00  0.00    +0.000 A 
ATOM     45  C   UNL     1     113.677 129.455 136.785  0.00  0.00    +0.000 A 
ATOM     46  C   UNL     1     112.929 127.975 136.285  0.00  0.00    +0.000 A 
ATOM     47  C   UNL     1     113.647 128.663 136.176  0.00  0.00    +0.000 A 
ENDBRANCH  12  42
TORSDOF 7
ENDMDL
MODEL 10
REMARK VINA RESULT:      -9.5      2.342      3.205
REMARK  Name = 131833340
REMARK  7 active torsions:
REMARK  status: ('A' for Active; 'I' for Inactive)
REMARK    1  A    between atoms: S_1  and  O_4
REMARK    2  A    between atoms: O_4  and  C_25
REMARK    3  A    between atoms: C_21  and  C_30
REMARK    4  A    between atoms: C_23  and  C_32
REMARK    5  A    between atoms: C_27  and  C_36
REMARK    6  A    between atoms: C_31  and  C_38
REMARK    7  A    between atoms: C_40  and  C_42
REMARK                            x       y       z     vdW  Elec       q    Type
REMARK                         _______ _______ _______ _____ _____    ______ ____
ROOT
ATOM      1  O   UNL     1     111.672 129.761 137.678  0.00  0.00    +0.000 OA
ATOM      2  O   UNL     1     108.490 130.122 139.072  0.00  0.00    +0.000 OA
ATOM      3  O   UNL     1     111.146 129.222 141.105  0.00  0.00    +0.000 OA
ATOM      4  O   UNL     1     112.759 129.029 140.454  0.00  0.00    +0.000 OA
ATOM      5  C   UNL     1     109.818 129.672 140.088  0.00  0.00    +0.000 A 
ATOM      6  C   UNL     1     110.074 129.939 138.396  0.00  0.00    +0.000 A 
ATOM      7  C   UNL     1     109.461 129.911 139.186  0.00  0.00    +0.000 A 
ATOM      8  C   UNL     1     111.045 129.728 138.510  0.00  0.00    +0.000 A 
ATOM      9  C   UNL     1     110.789 129.461 140.202  0.00  0.00    +0.000 A 
ATOM     10  C   UNL     1     111.402 129.489 139.413  0.00  0.00    +0.000 A 
ATOM     11  C   UNL     1     112.411 129.266 139.547  0.00  0.00    +0.000 A 
ATOM     12  C   UNL     1     112.684 129.543 137.789  0.00  0.00    +0.000 A 
ATOM     13  C   UNL     1     113.056 129.294 138.730  0.00  0.00    +0.000 A 
ENDROOT
BRANCH   6  18
ATOM     14  O   UNL     1     109.753 131.125 137.176  0.00  0.00    +0.000 OA
ATOM     15  O   UNL     1     109.286 128.522 137.225  0.00  0.00    +0.000 OA
ATOM     16  O   UNL     1     108.572 129.000 135.420  0.00  0.00    +0.000 OA
ATOM     17  O   UNL     1     108.645 130.895 134.785  0.00  0.00    +0.000 OA
ATOM     18  C   UNL     1     109.717 130.178 137.494  0.00  0.00    +0.000 C 
ATOM     19  C   UNL     1     109.323 129.469 136.908  0.00  0.00    +0.000 C 
ATOM     20  C   UNL     1     108.965 129.708 136.005  0.00  0.00    +0.000 C 
ATOM     21  C   UNL     1     109.002 130.656 135.688  0.00  0.00    +0.000 C 
ATOM     22  C   UNL     1     109.396 131.364 136.273  0.00  0.00    +0.000 C 
BRANCH  22  24
ATOM     23  O   UNL     1     110.015 132.975 136.426  0.00  0.00    +0.000 OA
ATOM     24  C   UNL     1     109.433 132.312 135.956  0.00  0.00    +0.000 C 
ENDBRANCH  22  24
ENDBRANCH   6  18
BRANCH   5  28
ATOM     25  O   UNL     1     108.725 128.797 141.108  0.00  0.00    +0.000 OA
ATOM     26  O   UNL     1     109.550 131.309 141.205  0.00  0.00    +0.000 OA
ATOM     27  O   UNL     1     108.323 131.252 142.784  0.00  0.00    +0.000 OA
ATOM     28  C   UNL     1     109.205 129.643 140.878  0.00  0.00    +0.000 C 
ATOM     29  C   UNL     1     109.070 130.462 141.436  0.00  0.00    +0.000 C 
ATOM     30  C   UNL     1     108.457 130.434 142.225  0.00  0.00    +0.000 C 
ATOM     31  C   UNL     1     107.978 129.587 142.456  0.00  0.00    +0.000 C 
ATOM     32  C   UNL     1     108.112 128.769 141.897  0.00  0.00    +0.000 C 
BRANCH  32  34
ATOM     33  O   UNL     1     107.363 127.287 141.404  0.00  0.00    +0.000 OA
ATOM     34  C   UNL     1     107.632 127.922 142.128  0.00  0.00    +0.000 C 
ENDBRANCH  32  34
BRANCH  31  35
ATOM     35  O   UNL     1     107.364 129.559 143.245  0.00  0.00    +0.000 OA
BRANCH  35  36
ATOM     36  S   UNL     1     107.738 129.610 144.171  0.00  0.00    +0.000 S 
ATOM     37  O   UNL     1     107.262 130.477 144.316  0.00  0.00    +0.000 OA
ATOM     38  O   UNL     1     108.112 129.660 145.097  0.00  0.00    +0.000 OA
ATOM     39  O   UNL     1     108.215 128.743 144.026  0.00  0.00    +0.000 OA
ENDBRANCH  35  36
ENDBRANCH  31  35
ENDBRANCH   5  28
BRANCH  12  42
ATOM     40  O   UNL     1     114.883 131.288 135.759  0.00  0.00    +0.000 OA
ATOM     41  O   UNL     1     115.127 129.660 134.624  0.00  0.00    +0.000 OA
ATOM     42  C   UNL     1     113.295 129.572 136.998  0.00  0.00    +0.000 A 
ATOM     43  C   UNL     1     113.783 130.415 136.774  0.00  0.00    +0.000 A 
ATOM     44  C   UNL     1     113.417 128.757 136.430  0.00  0.00    +0.000 A 
ATOM     45  C   UNL     1     114.394 130.445 135.983  0.00  0.00    +0.000 A 
ATOM     46  C   UNL     1     114.028 128.787 135.639  0.00  0.00    +0.000 A 
ATOM     47  C   UNL     1     114.516 129.631 135.415  0.00  0.00    +0.000 A 
ENDBRANCH  12  42
TORSDOF 7
ENDMDL
