MODEL 1
REMARK VINA RESULT:      -8.4      0.000      0.000
REMARK  Name = 131752542
REMARK  14 active torsions:
REMARK  status: ('A' for Active; 'I' for Inactive)
REMARK    1  A    between atoms: O_4  and  C_22
REMARK    2  A    between atoms: O_4  and  C_24
REMARK    3  A    between atoms: O_6  and  C_23
REMARK    4  A    between atoms: O_6  and  C_26
REMARK    5  A    between atoms: O_9  and  C_28
REMARK    6  A    between atoms: O_10  and  C_30
REMARK    7  A    between atoms: O_10  and  C_43
REMARK    8  A    between atoms: O_12  and  C_41
REMARK    9  A    between atoms: O_15  and  C_44
REMARK   10  A    between atoms: C_20  and  C_23
REMARK   11  A    between atoms: C_25  and  C_26
REMARK   12  A    between atoms: C_25  and  C_27
REMARK   13  A    between atoms: C_27  and  C_30
REMARK   14  A    between atoms: C_33  and  C_35
REMARK                            x       y       z     vdW  Elec       q    Type
REMARK                         _______ _______ _______ _____ _____    ______ ____
ROOT
ATOM      1  C   UNL     1     113.083 126.977 138.600  0.00  0.00    +0.000 A 
ATOM      2  C   UNL     1     112.409 127.180 139.030  0.00  0.00    +0.000 A 
ATOM      3  C   UNL     1     113.407 127.514 138.064  0.00  0.00    +0.000 A 
ATOM      4  C   UNL     1     112.059 127.920 138.924  0.00  0.00    +0.000 A 
ATOM      5  C   UNL     1     112.384 128.456 138.388  0.00  0.00    +0.000 A 
ATOM      6  C   UNL     1     113.057 128.254 137.958  0.00  0.00    +0.000 A 
ENDROOT
BRANCH   5  11
ATOM      7  O   UNL     1     111.627 129.381 137.548  0.00  0.00    +0.000 OA
ATOM      8  O   UNL     1     111.739 131.127 139.379  0.00  0.00    +0.000 OA
ATOM      9  O   UNL     1     110.991 132.026 138.534  0.00  0.00    +0.000 OA
ATOM     10  O   UNL     1     110.138 131.236 135.923  0.00  0.00    +0.000 OA
ATOM     11  C   UNL     1     112.034 129.196 138.282  0.00  0.00    +0.000 A 
ATOM     12  C   UNL     1     112.073 129.787 138.905  0.00  0.00    +0.000 A 
ATOM     13  C   UNL     1     111.266 130.154 137.447  0.00  0.00    +0.000 A 
ATOM     14  C   UNL     1     111.304 130.721 138.045  0.00  0.00    +0.000 A 
ATOM     15  C   UNL     1     111.706 130.554 138.786  0.00  0.00    +0.000 A 
ATOM     16  C   UNL     1     110.877 130.326 136.740  0.00  0.00    +0.000 A 
ATOM     17  C   UNL     1     110.953 131.459 137.936  0.00  0.00    +0.000 A 
ATOM     18  C   UNL     1     110.564 131.631 137.228  0.00  0.00    +0.000 A 
ATOM     19  C   UNL     1     110.526 131.065 136.631  0.00  0.00    +0.000 A 
BRANCH  16  20
ATOM     20  O   UNL     1     110.840 129.759 136.142  0.00  0.00    +0.000 OA
ATOM     21  C   UNL     1     111.156 129.923 135.397  0.00  0.00    +0.000 C 
ENDBRANCH  16  20
BRANCH  18  22
ATOM     22  O   UNL     1     110.213 132.370 137.120  0.00  0.00    +0.000 OA
ATOM     23  C   UNL     1     109.414 132.477 137.295  0.00  0.00    +0.000 C 
ENDBRANCH  18  22
ENDBRANCH   5  11
BRANCH   2  24
ATOM     24  O   UNL     1     112.085 126.643 139.566  0.00  0.00    +0.000 OA
ATOM     25  C   UNL     1     111.503 126.891 140.097  0.00  0.00    +0.000 C 
ENDBRANCH   2  24
BRANCH   1  26
ATOM     26  O   UNL     1     113.433 126.238 138.706  0.00  0.00    +0.000 OA
BRANCH  26  35
ATOM     27  O   UNL     1     112.945 125.610 137.518  0.00  0.00    +0.000 OA
ATOM     28  O   UNL     1     113.923 124.258 136.112  0.00  0.00    +0.000 OA
ATOM     29  O   UNL     1     115.144 124.522 137.190  0.00  0.00    +0.000 OA
ATOM     30  O   UNL     1     114.899 125.512 138.487  0.00  0.00    +0.000 OA
ATOM     31  C   UNL     1     113.800 124.753 136.760  0.00  0.00    +0.000 C 
ATOM     32  C   UNL     1     114.411 124.885 137.299  0.00  0.00    +0.000 C 
ATOM     33  C   UNL     1     113.067 125.115 136.869  0.00  0.00    +0.000 C 
ATOM     34  C   UNL     1     114.288 125.380 137.947  0.00  0.00    +0.000 C 
ATOM     35  C   UNL     1     113.555 125.743 138.057  0.00  0.00    +0.000 C 
BRANCH  33  36
ATOM     36  C   UNL     1     112.458 124.983 136.331  0.00  0.00    +0.000 C 
BRANCH  36  37
ATOM     37  O   UNL     1     111.732 125.366 136.425  0.00  0.00    +0.000 OA
BRANCH  37  39
ATOM     38  O   UNL     1     110.890 124.647 135.523  0.00  0.00    +0.000 OA
ATOM     39  C   UNL     1     111.181 125.363 135.812  0.00  0.00    +0.000 C 
BRANCH  39  40
ATOM     40  C   UNL     1     110.921 126.075 135.487  0.00  0.00    +0.000 C 
BRANCH  40  42
ATOM     41  O   UNL     1     110.176 126.424 136.314  0.00  0.00    +0.000 OA
ATOM     42  C   UNL     1     110.120 126.269 135.506  0.00  0.00    +0.000 C 
ATOM     43  C   UNL     1     110.063 126.114 134.697  0.00  0.00    +0.000 C 
BRANCH  42  44
ATOM     44  C   UNL     1     109.318 126.464 135.524  0.00  0.00    +0.000 C 
BRANCH  44  45
ATOM     45  O   UNL     1     109.087 127.252 135.599  0.00  0.00    +0.000 OA
BRANCH  45  47
ATOM     46  O   UNL     1     108.056 128.229 135.762  0.00  0.00    +0.000 OA
ATOM     47  C   UNL     1     108.290 127.439 135.703  0.00  0.00    +0.000 C 
ENDBRANCH  45  47
ENDBRANCH  44  45
ENDBRANCH  42  44
ENDBRANCH  40  42
ENDBRANCH  39  40
ENDBRANCH  37  39
ENDBRANCH  36  37
ENDBRANCH  33  36
ENDBRANCH  26  35
ENDBRANCH   1  26
TORSDOF 14
ENDMDL
MODEL 2
REMARK VINA RESULT:      -8.3      1.614      6.687
REMARK  Name = 131752542
REMARK  14 active torsions:
REMARK  status: ('A' for Active; 'I' for Inactive)
REMARK    1  A    between atoms: O_4  and  C_22
REMARK    2  A    between atoms: O_4  and  C_24
REMARK    3  A    between atoms: O_6  and  C_23
REMARK    4  A    between atoms: O_6  and  C_26
REMARK    5  A    between atoms: O_9  and  C_28
REMARK    6  A    between atoms: O_10  and  C_30
REMARK    7  A    between atoms: O_10  and  C_43
REMARK    8  A    between atoms: O_12  and  C_41
REMARK    9  A    between atoms: O_15  and  C_44
REMARK   10  A    between atoms: C_20  and  C_23
REMARK   11  A    between atoms: C_25  and  C_26
REMARK   12  A    between atoms: C_25  and  C_27
REMARK   13  A    between atoms: C_27  and  C_30
REMARK   14  A    between atoms: C_33  and  C_35
REMARK                            x       y       z     vdW  Elec       q    Type
REMARK                         _______ _______ _______ _____ _____    ______ ____
ROOT
ATOM      1  C   UNL     1     109.397 129.462 135.544  0.00  0.00    +0.000 A 
ATOM      2  C   UNL     1     110.156 129.258 135.289  0.00  0.00    +0.000 A 
ATOM      3  C   UNL     1     108.931 128.905 135.936  0.00  0.00    +0.000 A 
ATOM      4  C   UNL     1     110.447 128.499 135.427  0.00  0.00    +0.000 A 
ATOM      5  C   UNL     1     109.980 127.943 135.819  0.00  0.00    +0.000 A 
ATOM      6  C   UNL     1     109.223 128.146 136.074  0.00  0.00    +0.000 A 
ENDROOT
BRANCH   5  11
ATOM      7  O   UNL     1     110.659 126.997 136.700  0.00  0.00    +0.000 OA
ATOM      8  O   UNL     1     110.424 125.194 134.938  0.00  0.00    +0.000 OA
ATOM      9  O   UNL     1     111.096 124.274 135.823  0.00  0.00    +0.000 OA
ATOM     10  O   UNL     1     111.994 125.099 138.408  0.00  0.00    +0.000 OA
ATOM     11  C   UNL     1     110.272 127.184 135.957  0.00  0.00    +0.000 A 
ATOM     12  C   UNL     1     110.191 126.573 135.356  0.00  0.00    +0.000 A 
ATOM     13  C   UNL     1     110.960 126.203 136.834  0.00  0.00    +0.000 A 
ATOM     14  C   UNL     1     110.881 125.618 136.258  0.00  0.00    +0.000 A 
ATOM     15  C   UNL     1     110.497 125.786 135.508  0.00  0.00    +0.000 A 
ATOM     16  C   UNL     1     111.330 126.030 137.551  0.00  0.00    +0.000 A 
ATOM     17  C   UNL     1     111.174 124.860 136.399  0.00  0.00    +0.000 A 
ATOM     18  C   UNL     1     111.545 124.686 137.116  0.00  0.00    +0.000 A 
ATOM     19  C   UNL     1     111.623 125.271 137.691  0.00  0.00    +0.000 A 
BRANCH  16  20
ATOM     20  O   UNL     1     111.408 126.616 138.127  0.00  0.00    +0.000 OA
ATOM     21  C   UNL     1     111.086 126.501 138.878  0.00  0.00    +0.000 C 
ENDBRANCH  16  20
BRANCH  18  22
ATOM     22  O   UNL     1     111.838 123.928 137.256  0.00  0.00    +0.000 OA
ATOM     23  C   UNL     1     112.607 123.734 137.029  0.00  0.00    +0.000 C 
ENDBRANCH  18  22
ENDBRANCH   5  11
BRANCH   2  24
ATOM     24  O   UNL     1     110.621 129.815 134.897  0.00  0.00    +0.000 OA
ATOM     25  C   UNL     1     111.383 129.614 134.649  0.00  0.00    +0.000 C 
ENDBRANCH   2  24
BRANCH   1  26
ATOM     26  O   UNL     1     109.105 130.221 135.407  0.00  0.00    +0.000 OA
BRANCH  26  35
ATOM     27  O   UNL     1     109.310 130.771 136.709  0.00  0.00    +0.000 OA
ATOM     28  O   UNL     1     108.042 132.062 137.931  0.00  0.00    +0.000 OA
ATOM     29  O   UNL     1     107.101 131.882 136.587  0.00  0.00    +0.000 OA
ATOM     30  O   UNL     1     107.633 130.962 135.325  0.00  0.00    +0.000 OA
ATOM     31  C   UNL     1     108.308 131.602 137.300  0.00  0.00    +0.000 C 
ATOM     32  C   UNL     1     107.838 131.512 136.628  0.00  0.00    +0.000 C 
ATOM     33  C   UNL     1     109.045 131.231 137.341  0.00  0.00    +0.000 C 
ATOM     34  C   UNL     1     108.104 131.052 135.997  0.00  0.00    +0.000 C 
ATOM     35  C   UNL     1     108.840 130.681 136.038  0.00  0.00    +0.000 C 
BRANCH  33  36
ATOM     36  C   UNL     1     109.514 131.321 138.012  0.00  0.00    +0.000 C 
BRANCH  36  37
ATOM     37  O   UNL     1     110.288 131.034 138.017  0.00  0.00    +0.000 OA
BRANCH  37  39
ATOM     38  O   UNL     1     110.842 131.764 139.112  0.00  0.00    +0.000 OA
ATOM     39  C   UNL     1     110.731 131.051 138.712  0.00  0.00    +0.000 C 
BRANCH  39  40
ATOM     40  C   UNL     1     111.063 130.356 139.009  0.00  0.00    +0.000 C 
BRANCH  40  42
ATOM     41  O   UNL     1     111.663 130.647 139.966  0.00  0.00    +0.000 OA
ATOM     42  C   UNL     1     111.858 130.338 139.226  0.00  0.00    +0.000 C 
ATOM     43  C   UNL     1     112.054 130.030 138.486  0.00  0.00    +0.000 C 
BRANCH  42  44
ATOM     44  C   UNL     1     112.654 130.320 139.444  0.00  0.00    +0.000 C 
BRANCH  44  45
ATOM     45  O   UNL     1     112.948 129.682 139.875  0.00  0.00    +0.000 OA
BRANCH  45  47
ATOM     46  O   UNL     1     114.019 129.107 140.626  0.00  0.00    +0.000 OA
ATOM     47  C   UNL     1     113.751 129.648 140.064  0.00  0.00    +0.000 C 
ENDBRANCH  45  47
ENDBRANCH  44  45
ENDBRANCH  42  44
ENDBRANCH  40  42
ENDBRANCH  39  40
ENDBRANCH  37  39
ENDBRANCH  36  37
ENDBRANCH  33  36
ENDBRANCH  26  35
ENDBRANCH   1  26
TORSDOF 14
ENDMDL
MODEL 3
REMARK VINA RESULT:      -8.0      1.797      2.992
REMARK  Name = 131752542
REMARK  14 active torsions:
REMARK  status: ('A' for Active; 'I' for Inactive)
REMARK    1  A    between atoms: O_4  and  C_22
REMARK    2  A    between atoms: O_4  and  C_24
REMARK    3  A    between atoms: O_6  and  C_23
REMARK    4  A    between atoms: O_6  and  C_26
REMARK    5  A    between atoms: O_9  and  C_28
REMARK    6  A    between atoms: O_10  and  C_30
REMARK    7  A    between atoms: O_10  and  C_43
REMARK    8  A    between atoms: O_12  and  C_41
REMARK    9  A    between atoms: O_15  and  C_44
REMARK   10  A    between atoms: C_20  and  C_23
REMARK   11  A    between atoms: C_25  and  C_26
REMARK   12  A    between atoms: C_25  and  C_27
REMARK   13  A    between atoms: C_27  and  C_30
REMARK   14  A    between atoms: C_33  and  C_35
REMARK                            x       y       z     vdW  Elec       q    Type
REMARK                         _______ _______ _______ _____ _____    ______ ____
ROOT
ATOM      1  C   UNL     1     113.353 126.821 137.559  0.00  0.00    +0.000 A 
ATOM      2  C   UNL     1     113.338 127.620 137.352  0.00  0.00    +0.000 A 
ATOM      3  C   UNL     1     113.131 126.588 138.318  0.00  0.00    +0.000 A 
ATOM      4  C   UNL     1     113.101 128.185 137.905  0.00  0.00    +0.000 A 
ATOM      5  C   UNL     1     112.879 127.950 138.664  0.00  0.00    +0.000 A 
ATOM      6  C   UNL     1     112.894 127.152 138.871  0.00  0.00    +0.000 A 
ENDROOT
BRANCH   5  11
ATOM      7  O   UNL     1     113.229 128.950 139.670  0.00  0.00    +0.000 OA
ATOM      8  O   UNL     1     110.770 129.420 140.049  0.00  0.00    +0.000 OA
ATOM      9  O   UNL     1     111.136 130.404 141.040  0.00  0.00    +0.000 OA
ATOM     10  O   UNL     1     113.875 130.930 141.660  0.00  0.00    +0.000 OA
ATOM     11  C   UNL     1     112.643 128.515 139.217  0.00  0.00    +0.000 A 
ATOM     12  C   UNL     1     111.807 128.673 139.344  0.00  0.00    +0.000 A 
ATOM     13  C   UNL     1     112.972 129.536 140.243  0.00  0.00    +0.000 A 
ATOM     14  C   UNL     1     112.171 129.687 140.365  0.00  0.00    +0.000 A 
ATOM     15  C   UNL     1     111.570 129.263 139.922  0.00  0.00    +0.000 A 
ATOM     16  C   UNL     1     113.540 129.951 140.675  0.00  0.00    +0.000 A 
ATOM     17  C   UNL     1     111.938 130.253 140.918  0.00  0.00    +0.000 A 
ATOM     18  C   UNL     1     112.505 130.667 141.350  0.00  0.00    +0.000 A 
ATOM     19  C   UNL     1     113.306 130.516 141.228  0.00  0.00    +0.000 A 
BRANCH  16  20
ATOM     20  O   UNL     1     114.343 129.799 140.553  0.00  0.00    +0.000 OA
ATOM     21  C   UNL     1     114.852 130.415 140.348  0.00  0.00    +0.000 C 
ENDBRANCH  16  20
BRANCH  18  22
ATOM     22  O   UNL     1     112.271 131.233 141.903  0.00  0.00    +0.000 OA
ATOM     23  C   UNL     1     112.177 131.021 142.695  0.00  0.00    +0.000 C 
ENDBRANCH  18  22
ENDBRANCH   5  11
BRANCH   2  24
ATOM     24  O   UNL     1     113.560 127.853 136.593  0.00  0.00    +0.000 OA
ATOM     25  C   UNL     1     113.623 128.656 136.410  0.00  0.00    +0.000 C 
ENDBRANCH   2  24
BRANCH   1  26
ATOM     26  O   UNL     1     113.590 126.256 137.006  0.00  0.00    +0.000 OA
BRANCH  26  35
ATOM     27  O   UNL     1     112.322 125.750 136.583  0.00  0.00    +0.000 OA
ATOM     28  O   UNL     1     111.620 123.701 136.311  0.00  0.00    +0.000 OA
ATOM     29  O   UNL     1     113.171 123.436 136.809  0.00  0.00    +0.000 OA
ATOM     30  O   UNL     1     114.156 124.713 137.157  0.00  0.00    +0.000 OA
ATOM     31  C   UNL     1     112.112 124.340 136.485  0.00  0.00    +0.000 C 
ATOM     32  C   UNL     1     112.888 124.207 136.734  0.00  0.00    +0.000 C 
ATOM     33  C   UNL     1     111.829 125.111 136.409  0.00  0.00    +0.000 C 
ATOM     34  C   UNL     1     113.380 124.846 136.907  0.00  0.00    +0.000 C 
ATOM     35  C   UNL     1     113.097 125.617 136.832  0.00  0.00    +0.000 C 
BRANCH  33  36
ATOM     36  C   UNL     1     111.055 125.244 136.161  0.00  0.00    +0.000 C 
BRANCH  36  37
ATOM     37  O   UNL     1     110.781 126.015 136.055  0.00  0.00    +0.000 OA
BRANCH  37  39
ATOM     38  O   UNL     1     109.632 125.778 135.239  0.00  0.00    +0.000 OA
ATOM     39  C   UNL     1     109.985 126.151 135.885  0.00  0.00    +0.000 C 
BRANCH  39  40
ATOM     40  C   UNL     1     109.542 126.660 136.360  0.00  0.00    +0.000 C 
BRANCH  40  42
ATOM     41  O   UNL     1     109.920 127.761 136.273  0.00  0.00    +0.000 OA
ATOM     42  C   UNL     1     109.237 127.358 136.044  0.00  0.00    +0.000 C 
ATOM     43  C   UNL     1     108.554 126.956 135.815  0.00  0.00    +0.000 C 
BRANCH  42  44
ATOM     44  C   UNL     1     108.932 128.057 135.728  0.00  0.00    +0.000 C 
BRANCH  44  45
ATOM     45  O   UNL     1     108.648 128.646 136.231  0.00  0.00    +0.000 OA
BRANCH  45  47
ATOM     46  O   UNL     1     107.840 129.818 136.097  0.00  0.00    +0.000 OA
ATOM     47  C   UNL     1     108.544 129.414 135.947  0.00  0.00    +0.000 C 
ENDBRANCH  45  47
ENDBRANCH  44  45
ENDBRANCH  42  44
ENDBRANCH  40  42
ENDBRANCH  39  40
ENDBRANCH  37  39
ENDBRANCH  36  37
ENDBRANCH  33  36
ENDBRANCH  26  35
ENDBRANCH   1  26
TORSDOF 14
ENDMDL
MODEL 4
REMARK VINA RESULT:      -8.0      2.074      6.170
REMARK  Name = 131752542
REMARK  14 active torsions:
REMARK  status: ('A' for Active; 'I' for Inactive)
REMARK    1  A    between atoms: O_4  and  C_22
REMARK    2  A    between atoms: O_4  and  C_24
REMARK    3  A    between atoms: O_6  and  C_23
REMARK    4  A    between atoms: O_6  and  C_26
REMARK    5  A    between atoms: O_9  and  C_28
REMARK    6  A    between atoms: O_10  and  C_30
REMARK    7  A    between atoms: O_10  and  C_43
REMARK    8  A    between atoms: O_12  and  C_41
REMARK    9  A    between atoms: O_15  and  C_44
REMARK   10  A    between atoms: C_20  and  C_23
REMARK   11  A    between atoms: C_25  and  C_26
REMARK   12  A    between atoms: C_25  and  C_27
REMARK   13  A    between atoms: C_27  and  C_30
REMARK   14  A    between atoms: C_33  and  C_35
REMARK                            x       y       z     vdW  Elec       q    Type
REMARK                         _______ _______ _______ _____ _____    ______ ____
ROOT
ATOM      1  C   UNL     1     112.041 130.612 137.757  0.00  0.00    +0.000 A 
ATOM      2  C   UNL     1     112.527 130.201 138.283  0.00  0.00    +0.000 A 
ATOM      3  C   UNL     1     111.682 130.213 137.131  0.00  0.00    +0.000 A 
ATOM      4  C   UNL     1     112.654 129.393 138.181  0.00  0.00    +0.000 A 
ATOM      5  C   UNL     1     112.295 128.995 137.554  0.00  0.00    +0.000 A 
ATOM      6  C   UNL     1     111.809 129.405 137.029  0.00  0.00    +0.000 A 
ENDROOT
BRANCH   5  11
ATOM      7  O   UNL     1     111.913 127.615 137.843  0.00  0.00    +0.000 OA
ATOM      8  O   UNL     1     113.805 126.789 136.377  0.00  0.00    +0.000 OA
ATOM      9  O   UNL     1     113.412 125.433 136.675  0.00  0.00    +0.000 OA
ATOM     10  O   UNL     1     111.193 124.880 138.389  0.00  0.00    +0.000 OA
ATOM     11  C   UNL     1     112.422 128.186 137.452  0.00  0.00    +0.000 A 
ATOM     12  C   UNL     1     113.066 127.908 136.953  0.00  0.00    +0.000 A 
ATOM     13  C   UNL     1     112.054 126.775 137.731  0.00  0.00    +0.000 A 
ATOM     14  C   UNL     1     112.671 126.509 137.253  0.00  0.00    +0.000 A 
ATOM     15  C   UNL     1     113.190 127.064 136.854  0.00  0.00    +0.000 A 
ATOM     16  C   UNL     1     111.561 126.232 138.110  0.00  0.00    +0.000 A 
ATOM     17  C   UNL     1     112.795 125.699 137.154  0.00  0.00    +0.000 A 
ATOM     18  C   UNL     1     112.303 125.156 137.532  0.00  0.00    +0.000 A 
ATOM     19  C   UNL     1     111.686 125.422 138.010  0.00  0.00    +0.000 A 
BRANCH  16  20
ATOM     20  O   UNL     1     110.944 126.499 138.588  0.00  0.00    +0.000 OA
ATOM     21  C   UNL     1     110.919 126.286 139.385  0.00  0.00    +0.000 C 
ENDBRANCH  16  20
BRANCH  18  22
ATOM     22  O   UNL     1     112.428 124.347 137.432  0.00  0.00    +0.000 OA
ATOM     23  C   UNL     1     112.013 123.934 136.850  0.00  0.00    +0.000 C 
ENDBRANCH  18  22
ENDBRANCH   5  11
BRANCH   2  24
ATOM     24  O   UNL     1     112.886 130.600 138.910  0.00  0.00    +0.000 OA
ATOM     25  C   UNL     1     113.528 130.260 139.301  0.00  0.00    +0.000 C 
ENDBRANCH   2  24
BRANCH   1  26
ATOM     26  O   UNL     1     111.913 131.421 137.859  0.00  0.00    +0.000 OA
BRANCH  26  35
ATOM     27  O   UNL     1     110.569 131.397 138.343  0.00  0.00    +0.000 OA
ATOM     28  O   UNL     1     108.841 132.624 137.822  0.00  0.00    +0.000 OA
ATOM     29  O   UNL     1     109.993 133.274 136.836  0.00  0.00    +0.000 OA
ATOM     30  O   UNL     1     111.529 132.672 136.854  0.00  0.00    +0.000 OA
ATOM     31  C   UNL     1     109.608 132.323 137.832  0.00  0.00    +0.000 C 
ATOM     32  C   UNL     1     110.185 132.648 137.338  0.00  0.00    +0.000 C 
ATOM     33  C   UNL     1     109.800 131.698 138.334  0.00  0.00    +0.000 C 
ATOM     34  C   UNL     1     110.953 132.347 137.348  0.00  0.00    +0.000 C 
ATOM     35  C   UNL     1     111.145 131.722 137.850  0.00  0.00    +0.000 C 
BRANCH  33  36
ATOM     36  C   UNL     1     109.225 131.373 138.827  0.00  0.00    +0.000 C 
BRANCH  36  37
ATOM     37  O   UNL     1     109.445 130.888 139.457  0.00  0.00    +0.000 OA
BRANCH  37  39
ATOM     38  O   UNL     1     108.210 130.840 140.173  0.00  0.00    +0.000 OA
ATOM     39  C   UNL     1     108.874 130.457 139.866  0.00  0.00    +0.000 C 
BRANCH  39  40
ATOM     40  C   UNL     1     108.964 129.644 139.969  0.00  0.00    +0.000 C 
BRANCH  40  42
ATOM     41  O   UNL     1     108.004 129.203 140.464  0.00  0.00    +0.000 OA
ATOM     42  C   UNL     1     108.790 129.298 140.697  0.00  0.00    +0.000 C 
ATOM     43  C   UNL     1     109.576 129.392 140.931  0.00  0.00    +0.000 C 
BRANCH  42  44
ATOM     44  C   UNL     1     108.615 128.951 141.426  0.00  0.00    +0.000 C 
BRANCH  44  45
ATOM     45  O   UNL     1     108.599 128.130 141.498  0.00  0.00    +0.000 OA
BRANCH  45  47
ATOM     46  O   UNL     1     108.460 126.964 142.313  0.00  0.00    +0.000 OA
ATOM     47  C   UNL     1     108.420 127.784 142.225  0.00  0.00    +0.000 C 
ENDBRANCH  45  47
ENDBRANCH  44  45
ENDBRANCH  42  44
ENDBRANCH  40  42
ENDBRANCH  39  40
ENDBRANCH  37  39
ENDBRANCH  36  37
ENDBRANCH  33  36
ENDBRANCH  26  35
ENDBRANCH   1  26
TORSDOF 14
ENDMDL
MODEL 5
REMARK VINA RESULT:      -8.0      1.492      6.464
REMARK  Name = 131752542
REMARK  14 active torsions:
REMARK  status: ('A' for Active; 'I' for Inactive)
REMARK    1  A    between atoms: O_4  and  C_22
REMARK    2  A    between atoms: O_4  and  C_24
REMARK    3  A    between atoms: O_6  and  C_23
REMARK    4  A    between atoms: O_6  and  C_26
REMARK    5  A    between atoms: O_9  and  C_28
REMARK    6  A    between atoms: O_10  and  C_30
REMARK    7  A    between atoms: O_10  and  C_43
REMARK    8  A    between atoms: O_12  and  C_41
REMARK    9  A    between atoms: O_15  and  C_44
REMARK   10  A    between atoms: C_20  and  C_23
REMARK   11  A    between atoms: C_25  and  C_26
REMARK   12  A    between atoms: C_25  and  C_27
REMARK   13  A    between atoms: C_27  and  C_30
REMARK   14  A    between atoms: C_33  and  C_35
REMARK                            x       y       z     vdW  Elec       q    Type
REMARK                         _______ _______ _______ _____ _____    ______ ____
ROOT
ATOM      1  C   UNL     1     111.336 129.551 135.962  0.00  0.00    +0.000 A 
ATOM      2  C   UNL     1     111.983 129.173 135.614  0.00  0.00    +0.000 A 
ATOM      3  C   UNL     1     110.761 129.107 136.353  0.00  0.00    +0.000 A 
ATOM      4  C   UNL     1     112.055 128.353 135.659  0.00  0.00    +0.000 A 
ATOM      5  C   UNL     1     111.479 127.909 136.051  0.00  0.00    +0.000 A 
ATOM      6  C   UNL     1     110.833 128.286 136.398  0.00  0.00    +0.000 A 
ENDROOT
BRANCH   5  11
ATOM      7  O   UNL     1     112.167 126.734 136.578  0.00  0.00    +0.000 OA
ATOM      8  O   UNL     1     110.577 125.236 135.297  0.00  0.00    +0.000 OA
ATOM      9  O   UNL     1     111.269 124.087 135.828  0.00  0.00    +0.000 OA
ATOM     10  O   UNL     1     113.495 124.389 137.596  0.00  0.00    +0.000 OA
ATOM     11  C   UNL     1     111.551 127.089 136.096  0.00  0.00    +0.000 A 
ATOM     12  C   UNL     1     111.010 126.582 135.659  0.00  0.00    +0.000 A 
ATOM     13  C   UNL     1     112.234 125.878 136.618  0.00  0.00    +0.000 A 
ATOM     14  C   UNL     1     111.714 125.393 136.200  0.00  0.00    +0.000 A 
ATOM     15  C   UNL     1     111.092 125.729 135.712  0.00  0.00    +0.000 A 
ATOM     16  C   UNL     1     112.827 125.543 137.083  0.00  0.00    +0.000 A 
ATOM     17  C   UNL     1     111.789 124.572 136.247  0.00  0.00    +0.000 A 
ATOM     18  C   UNL     1     112.382 124.237 136.712  0.00  0.00    +0.000 A 
ATOM     19  C   UNL     1     112.901 124.723 137.130  0.00  0.00    +0.000 A 
BRANCH  16  20
ATOM     20  O   UNL     1     113.346 126.029 137.502  0.00  0.00    +0.000 OA
ATOM     21  C   UNL     1     114.161 125.949 137.397  0.00  0.00    +0.000 C 
ENDBRANCH  16  20
BRANCH  18  22
ATOM     22  O   UNL     1     112.456 123.417 136.759  0.00  0.00    +0.000 OA
ATOM     23  C   UNL     1     112.053 122.999 137.344  0.00  0.00    +0.000 C 
ENDBRANCH  18  22
ENDBRANCH   5  11
BRANCH   2  24
ATOM     24  O   UNL     1     112.557 129.617 135.223  0.00  0.00    +0.000 OA
ATOM     25  C   UNL     1     113.134 129.238 134.770  0.00  0.00    +0.000 C 
ENDBRANCH   2  24
BRANCH   1  26
ATOM     26  O   UNL     1     111.264 130.371 135.917  0.00  0.00    +0.000 OA
BRANCH  26  35
ATOM     27  O   UNL     1     111.537 130.685 137.284  0.00  0.00    +0.000 OA
ATOM     28  O   UNL     1     110.601 132.119 138.636  0.00  0.00    +0.000 OA
ATOM     29  O   UNL     1     109.723 132.367 137.261  0.00  0.00    +0.000 OA
ATOM     30  O   UNL     1     110.054 131.493 135.902  0.00  0.00    +0.000 OA
ATOM     31  C   UNL     1     110.767 131.682 137.957  0.00  0.00    +0.000 C 
ATOM     32  C   UNL     1     110.328 131.806 137.269  0.00  0.00    +0.000 C 
ATOM     33  C   UNL     1     111.372 131.121 137.964  0.00  0.00    +0.000 C 
ATOM     34  C   UNL     1     110.494 131.369 136.590  0.00  0.00    +0.000 C 
ATOM     35  C   UNL     1     111.099 130.808 136.597  0.00  0.00    +0.000 C 
BRANCH  33  36
ATOM     36  C   UNL     1     111.811 130.998 138.651  0.00  0.00    +0.000 C 
BRANCH  36  37
ATOM     37  O   UNL     1     112.249 130.304 138.743  0.00  0.00    +0.000 OA
BRANCH  37  39
ATOM     38  O   UNL     1     112.528 130.573 140.118  0.00  0.00    +0.000 OA
ATOM     39  C   UNL     1     112.725 130.201 139.408  0.00  0.00    +0.000 C 
BRANCH  39  40
ATOM     40  C   UNL     1     113.398 129.726 139.365  0.00  0.00    +0.000 C 
BRANCH  40  42
ATOM     41  O   UNL     1     113.022 128.631 139.508  0.00  0.00    +0.000 OA
ATOM     42  C   UNL     1     113.524 129.136 139.926  0.00  0.00    +0.000 C 
ATOM     43  C   UNL     1     114.026 129.640 140.344  0.00  0.00    +0.000 C 
BRANCH  42  44
ATOM     44  C   UNL     1     113.650 128.544 140.488  0.00  0.00    +0.000 C 
BRANCH  44  45
ATOM     45  O   UNL     1     114.232 127.974 140.362  0.00  0.00    +0.000 OA
BRANCH  45  47
ATOM     46  O   UNL     1     114.980 126.857 140.847  0.00  0.00    +0.000 OA
ATOM     47  C   UNL     1     114.320 127.351 140.896  0.00  0.00    +0.000 C 
ENDBRANCH  45  47
ENDBRANCH  44  45
ENDBRANCH  42  44
ENDBRANCH  40  42
ENDBRANCH  39  40
ENDBRANCH  37  39
ENDBRANCH  36  37
ENDBRANCH  33  36
ENDBRANCH  26  35
ENDBRANCH   1  26
TORSDOF 14
ENDMDL
MODEL 6
REMARK VINA RESULT:      -8.0      1.883      3.464
REMARK  Name = 131752542
REMARK  14 active torsions:
REMARK  status: ('A' for Active; 'I' for Inactive)
REMARK    1  A    between atoms: O_4  and  C_22
REMARK    2  A    between atoms: O_4  and  C_24
REMARK    3  A    between atoms: O_6  and  C_23
REMARK    4  A    between atoms: O_6  and  C_26
REMARK    5  A    between atoms: O_9  and  C_28
REMARK    6  A    between atoms: O_10  and  C_30
REMARK    7  A    between atoms: O_10  and  C_43
REMARK    8  A    between atoms: O_12  and  C_41
REMARK    9  A    between atoms: O_15  and  C_44
REMARK   10  A    between atoms: C_20  and  C_23
REMARK   11  A    between atoms: C_25  and  C_26
REMARK   12  A    between atoms: C_25  and  C_27
REMARK   13  A    between atoms: C_27  and  C_30
REMARK   14  A    between atoms: C_33  and  C_35
REMARK                            x       y       z     vdW  Elec       q    Type
REMARK                         _______ _______ _______ _____ _____    ______ ____
ROOT
ATOM      1  C   UNL     1     111.759 125.770 138.597  0.00  0.00    +0.000 A 
ATOM      2  C   UNL     1     111.513 126.171 139.275  0.00  0.00    +0.000 A 
ATOM      3  C   UNL     1     112.473 125.971 138.237  0.00  0.00    +0.000 A 
ATOM      4  C   UNL     1     111.980 126.772 139.592  0.00  0.00    +0.000 A 
ATOM      5  C   UNL     1     112.695 126.973 139.231  0.00  0.00    +0.000 A 
ATOM      6  C   UNL     1     112.941 126.572 138.553  0.00  0.00    +0.000 A 
ENDROOT
BRANCH   5  11
ATOM      7  O   UNL     1     113.052 128.387 139.294  0.00  0.00    +0.000 OA
ATOM      8  O   UNL     1     114.825 127.857 141.021  0.00  0.00    +0.000 OA
ATOM      9  O   UNL     1     115.164 129.259 141.069  0.00  0.00    +0.000 OA
ATOM     10  O   UNL     1     113.787 131.168 139.449  0.00  0.00    +0.000 OA
ATOM     11  C   UNL     1     113.162 127.574 139.547  0.00  0.00    +0.000 A 
ATOM     12  C   UNL     1     113.764 127.391 140.134  0.00  0.00    +0.000 A 
ATOM     13  C   UNL     1     113.544 129.007 139.630  0.00  0.00    +0.000 A 
ATOM     14  C   UNL     1     114.121 128.831 140.192  0.00  0.00    +0.000 A 
ATOM     15  C   UNL     1     114.246 128.024 140.458  0.00  0.00    +0.000 A 
ATOM     16  C   UNL     1     113.433 129.786 139.382  0.00  0.00    +0.000 A 
ATOM     17  C   UNL     1     114.587 129.435 140.507  0.00  0.00    +0.000 A 
ATOM     18  C   UNL     1     114.476 130.214 140.259  0.00  0.00    +0.000 A 
ATOM     19  C   UNL     1     113.899 130.389 139.697  0.00  0.00    +0.000 A 
BRANCH  16  20
ATOM     20  O   UNL     1     112.855 129.961 138.819  0.00  0.00    +0.000 OA
ATOM     21  C   UNL     1     113.070 130.314 138.105  0.00  0.00    +0.000 C 
ENDBRANCH  16  20
BRANCH  18  22
ATOM     22  O   UNL     1     114.942 130.817 140.574  0.00  0.00    +0.000 OA
ATOM     23  C   UNL     1     114.687 131.230 141.242  0.00  0.00    +0.000 C 
ENDBRANCH  18  22
ENDBRANCH   5  11
BRANCH   2  24
ATOM     24  O   UNL     1     110.798 125.970 139.636  0.00  0.00    +0.000 OA
ATOM     25  C   UNL     1     110.552 126.371 140.314  0.00  0.00    +0.000 C 
ENDBRANCH   2  24
BRANCH   1  26
ATOM     26  O   UNL     1     111.291 125.169 138.280  0.00  0.00    +0.000 OA
BRANCH  26  35
ATOM     27  O   UNL     1     110.742 125.754 137.098  0.00  0.00    +0.000 OA
ATOM     28  O   UNL     1     110.732 125.054 135.030  0.00  0.00    +0.000 OA
ATOM     29  O   UNL     1     111.551 123.828 135.770  0.00  0.00    +0.000 OA
ATOM     30  O   UNL     1     111.830 123.885 137.395  0.00  0.00    +0.000 OA
ATOM     31  C   UNL     1     110.872 125.084 135.842  0.00  0.00    +0.000 C 
ATOM     32  C   UNL     1     111.281 124.470 136.212  0.00  0.00    +0.000 C 
ATOM     33  C   UNL     1     110.602 125.726 136.285  0.00  0.00    +0.000 C 
ATOM     34  C   UNL     1     111.421 124.499 137.025  0.00  0.00    +0.000 C 
ATOM     35  C   UNL     1     111.151 125.141 137.467  0.00  0.00    +0.000 C 
BRANCH  33  36
ATOM     36  C   UNL     1     110.193 126.338 135.915  0.00  0.00    +0.000 C 
BRANCH  36  37
ATOM     37  O   UNL     1     109.984 127.013 136.342  0.00  0.00    +0.000 OA
BRANCH  37  39
ATOM     38  O   UNL     1     109.617 127.735 135.165  0.00  0.00    +0.000 OA
ATOM     39  C   UNL     1     109.553 127.614 135.979  0.00  0.00    +0.000 C 
BRANCH  39  40
ATOM     40  C   UNL     1     109.057 128.097 136.429  0.00  0.00    +0.000 C 
BRANCH  40  42
ATOM     41  O   UNL     1     108.225 128.612 135.794  0.00  0.00    +0.000 OA
ATOM     42  C   UNL     1     108.902 128.869 136.187  0.00  0.00    +0.000 C 
ATOM     43  C   UNL     1     109.580 129.128 136.580  0.00  0.00    +0.000 C 
BRANCH  42  44
ATOM     44  C   UNL     1     108.748 129.644 135.946  0.00  0.00    +0.000 C 
BRANCH  44  45
ATOM     45  O   UNL     1     108.278 130.135 136.413  0.00  0.00    +0.000 OA
BRANCH  45  47
ATOM     46  O   UNL     1     107.734 131.435 136.652  0.00  0.00    +0.000 OA
ATOM     47  C   UNL     1     108.054 130.878 136.133  0.00  0.00    +0.000 C 
ENDBRANCH  45  47
ENDBRANCH  44  45
ENDBRANCH  42  44
ENDBRANCH  40  42
ENDBRANCH  39  40
ENDBRANCH  37  39
ENDBRANCH  36  37
ENDBRANCH  33  36
ENDBRANCH  26  35
ENDBRANCH   1  26
TORSDOF 14
ENDMDL
MODEL 7
REMARK VINA RESULT:      -8.0      1.600      3.868
REMARK  Name = 131752542
REMARK  14 active torsions:
REMARK  status: ('A' for Active; 'I' for Inactive)
REMARK    1  A    between atoms: O_4  and  C_22
REMARK    2  A    between atoms: O_4  and  C_24
REMARK    3  A    between atoms: O_6  and  C_23
REMARK    4  A    between atoms: O_6  and  C_26
REMARK    5  A    between atoms: O_9  and  C_28
REMARK    6  A    between atoms: O_10  and  C_30
REMARK    7  A    between atoms: O_10  and  C_43
REMARK    8  A    between atoms: O_12  and  C_41
REMARK    9  A    between atoms: O_15  and  C_44
REMARK   10  A    between atoms: C_20  and  C_23
REMARK   11  A    between atoms: C_25  and  C_26
REMARK   12  A    between atoms: C_25  and  C_27
REMARK   13  A    between atoms: C_27  and  C_30
REMARK   14  A    between atoms: C_33  and  C_35
REMARK                            x       y       z     vdW  Elec       q    Type
REMARK                         _______ _______ _______ _____ _____    ______ ____
ROOT
ATOM      1  C   UNL     1     110.844 125.939 137.188  0.00  0.00    +0.000 A 
ATOM      2  C   UNL     1     110.247 126.233 137.677  0.00  0.00    +0.000 A 
ATOM      3  C   UNL     1     111.082 126.367 136.525  0.00  0.00    +0.000 A 
ATOM      4  C   UNL     1     109.889 126.956 137.501  0.00  0.00    +0.000 A 
ATOM      5  C   UNL     1     110.128 127.383 136.837  0.00  0.00    +0.000 A 
ATOM      6  C   UNL     1     110.724 127.089 136.349  0.00  0.00    +0.000 A 
ENDROOT
BRANCH   5  11
ATOM      7  O   UNL     1     110.129 128.841 136.921  0.00  0.00    +0.000 OA
ATOM      8  O   UNL     1     107.963 128.914 135.612  0.00  0.00    +0.000 OA
ATOM      9  O   UNL     1     107.983 130.353 135.706  0.00  0.00    +0.000 OA
ATOM     10  O   UNL     1     110.095 131.718 137.065  0.00  0.00    +0.000 OA
ATOM     11  C   UNL     1     109.770 128.105 136.661  0.00  0.00    +0.000 A 
ATOM     12  C   UNL     1     109.034 128.127 136.216  0.00  0.00    +0.000 A 
ATOM     13  C   UNL     1     109.749 129.588 136.733  0.00  0.00    +0.000 A 
ATOM     14  C   UNL     1     109.043 129.609 136.307  0.00  0.00    +0.000 A 
ATOM     15  C   UNL     1     108.669 128.884 136.038  0.00  0.00    +0.000 A 
ATOM     16  C   UNL     1     110.099 130.292 136.986  0.00  0.00    +0.000 A 
ATOM     17  C   UNL     1     108.688 130.333 136.133  0.00  0.00    +0.000 A 
ATOM     18  C   UNL     1     109.038 131.036 136.385  0.00  0.00    +0.000 A 
ATOM     19  C   UNL     1     109.743 131.015 136.811  0.00  0.00    +0.000 A 
BRANCH  16  20
ATOM     20  O   UNL     1     110.805 130.270 137.413  0.00  0.00    +0.000 OA
ATOM     21  C   UNL     1     110.847 130.621 138.158  0.00  0.00    +0.000 C 
ENDBRANCH  16  20
BRANCH  18  22
ATOM     22  O   UNL     1     108.683 131.760 136.211  0.00  0.00    +0.000 OA
ATOM     23  C   UNL     1     108.904 132.176 135.534  0.00  0.00    +0.000 C 
ENDBRANCH  18  22
ENDBRANCH   5  11
BRANCH   2  24
ATOM     24  O   UNL     1     110.009 125.805 138.340  0.00  0.00    +0.000 OA
ATOM     25  C   UNL     1     109.451 126.124 138.859  0.00  0.00    +0.000 C 
ENDBRANCH   2  24
BRANCH   1  26
ATOM     26  O   UNL     1     111.202 125.216 137.364  0.00  0.00    +0.000 OA
BRANCH  26  35
ATOM     27  O   UNL     1     112.418 125.673 137.959  0.00  0.00    +0.000 OA
ATOM     28  O   UNL     1     114.483 125.032 137.661  0.00  0.00    +0.000 OA
ATOM     29  O   UNL     1     113.691 124.027 136.619  0.00  0.00    +0.000 OA
ATOM     30  O   UNL     1     112.051 124.119 136.471  0.00  0.00    +0.000 OA
ATOM     31  C   UNL     1     113.663 125.078 137.587  0.00  0.00    +0.000 C 
ATOM     32  C   UNL     1     113.267 124.575 137.066  0.00  0.00    +0.000 C 
ATOM     33  C   UNL     1     113.239 125.627 138.034  0.00  0.00    +0.000 C 
ATOM     34  C   UNL     1     112.447 124.622 136.992  0.00  0.00    +0.000 C 
ATOM     35  C   UNL     1     112.022 125.171 137.439  0.00  0.00    +0.000 C 
BRANCH  33  36
ATOM     36  C   UNL     1     113.635 126.129 138.555  0.00  0.00    +0.000 C 
BRANCH  36  37
ATOM     37  O   UNL     1     113.210 126.566 139.111  0.00  0.00    +0.000 OA
BRANCH  37  39
ATOM     38  O   UNL     1     114.185 126.856 140.113  0.00  0.00    +0.000 OA
ATOM     39  C   UNL     1     113.598 127.111 139.592  0.00  0.00    +0.000 C 
BRANCH  39  40
ATOM     40  C   UNL     1     113.401 127.911 139.553  0.00  0.00    +0.000 C 
BRANCH  40  42
ATOM     41  O   UNL     1     114.143 128.521 140.215  0.00  0.00    +0.000 OA
ATOM     42  C   UNL     1     113.336 128.354 140.245  0.00  0.00    +0.000 C 
ATOM     43  C   UNL     1     112.528 128.188 140.276  0.00  0.00    +0.000 C 
BRANCH  42  44
ATOM     44  C   UNL     1     113.270 128.799 140.938  0.00  0.00    +0.000 C 
BRANCH  44  45
ATOM     45  O   UNL     1     113.182 129.618 140.895  0.00  0.00    +0.000 OA
BRANCH  45  47
ATOM     46  O   UNL     1     113.129 130.885 141.553  0.00  0.00    +0.000 OA
ATOM     47  C   UNL     1     113.112 130.060 141.588  0.00  0.00    +0.000 C 
ENDBRANCH  45  47
ENDBRANCH  44  45
ENDBRANCH  42  44
ENDBRANCH  40  42
ENDBRANCH  39  40
ENDBRANCH  37  39
ENDBRANCH  36  37
ENDBRANCH  33  36
ENDBRANCH  26  35
ENDBRANCH   1  26
TORSDOF 14
ENDMDL
MODEL 8
REMARK VINA RESULT:      -7.9      1.805      3.804
REMARK  Name = 131752542
REMARK  14 active torsions:
REMARK  status: ('A' for Active; 'I' for Inactive)
REMARK    1  A    between atoms: O_4  and  C_22
REMARK    2  A    between atoms: O_4  and  C_24
REMARK    3  A    between atoms: O_6  and  C_23
REMARK    4  A    between atoms: O_6  and  C_26
REMARK    5  A    between atoms: O_9  and  C_28
REMARK    6  A    between atoms: O_10  and  C_30
REMARK    7  A    between atoms: O_10  and  C_43
REMARK    8  A    between atoms: O_12  and  C_41
REMARK    9  A    between atoms: O_15  and  C_44
REMARK   10  A    between atoms: C_20  and  C_23
REMARK   11  A    between atoms: C_25  and  C_26
REMARK   12  A    between atoms: C_25  and  C_27
REMARK   13  A    between atoms: C_27  and  C_30
REMARK   14  A    between atoms: C_33  and  C_35
REMARK                            x       y       z     vdW  Elec       q    Type
REMARK                         _______ _______ _______ _____ _____    ______ ____
ROOT
ATOM      1  C   UNL     1     113.003 130.597 138.193  0.00  0.00    +0.000 A 
ATOM      2  C   UNL     1     112.979 130.607 137.368  0.00  0.00    +0.000 A 
ATOM      3  C   UNL     1     112.327 130.785 138.627  0.00  0.00    +0.000 A 
ATOM      4  C   UNL     1     112.280 130.805 136.978  0.00  0.00    +0.000 A 
ATOM      5  C   UNL     1     111.604 130.993 137.413  0.00  0.00    +0.000 A 
ATOM      6  C   UNL     1     111.628 130.983 138.237  0.00  0.00    +0.000 A 
ENDROOT
BRANCH   5  11
ATOM      7  O   UNL     1     110.303 130.595 136.882  0.00  0.00    +0.000 OA
ATOM      8  O   UNL     1     109.907 132.965 136.086  0.00  0.00    +0.000 OA
ATOM      9  O   UNL     1     108.625 132.551 135.569  0.00  0.00    +0.000 OA
ATOM     10  O   UNL     1     107.730 129.849 135.823  0.00  0.00    +0.000 OA
ATOM     11  C   UNL     1     110.905 131.191 137.023  0.00  0.00    +0.000 A 
ATOM     12  C   UNL     1     110.773 131.997 136.753  0.00  0.00    +0.000 A 
ATOM     13  C   UNL     1     109.578 130.810 136.475  0.00  0.00    +0.000 A 
ATOM     14  C   UNL     1     109.452 131.584 136.217  0.00  0.00    +0.000 A 
ATOM     15  C   UNL     1     110.042 132.194 136.348  0.00  0.00    +0.000 A 
ATOM     16  C   UNL     1     109.004 130.233 136.344  0.00  0.00    +0.000 A 
ATOM     17  C   UNL     1     108.751 131.778 135.827  0.00  0.00    +0.000 A 
ATOM     18  C   UNL     1     108.177 131.200 135.696  0.00  0.00    +0.000 A 
ATOM     19  C   UNL     1     108.304 130.428 135.954  0.00  0.00    +0.000 A 
BRANCH  16  20
ATOM     20  O   UNL     1     109.131 129.459 136.602  0.00  0.00    +0.000 OA
ATOM     21  C   UNL     1     109.103 128.835 136.064  0.00  0.00    +0.000 C 
ENDBRANCH  16  20
BRANCH  18  22
ATOM     22  O   UNL     1     107.477 131.396 135.306  0.00  0.00    +0.000 OA
ATOM     23  C   UNL     1     106.840 131.703 135.731  0.00  0.00    +0.000 C 
ENDBRANCH  18  22
ENDBRANCH   5  11
BRANCH   2  24
ATOM     24  O   UNL     1     113.655 130.418 136.934  0.00  0.00    +0.000 OA
ATOM     25  C   UNL     1     113.665 130.533 136.116  0.00  0.00    +0.000 C 
ENDBRANCH   2  24
BRANCH   1  26
ATOM     26  O   UNL     1     113.702 130.398 138.583  0.00  0.00    +0.000 OA
BRANCH  26  35
ATOM     27  O   UNL     1     113.383 129.098 139.083  0.00  0.00    +0.000 OA
ATOM     28  O   UNL     1     113.647 128.225 141.065  0.00  0.00    +0.000 OA
ATOM     29  O   UNL     1     114.258 129.738 141.308  0.00  0.00    +0.000 OA
ATOM     30  O   UNL     1     114.286 130.825 140.066  0.00  0.00    +0.000 OA
ATOM     31  C   UNL     1     113.660 128.767 140.445  0.00  0.00    +0.000 C 
ATOM     32  C   UNL     1     113.966 129.525 140.566  0.00  0.00    +0.000 C 
ATOM     33  C   UNL     1     113.368 128.554 139.703  0.00  0.00    +0.000 C 
ATOM     34  C   UNL     1     113.980 130.067 139.945  0.00  0.00    +0.000 C 
ATOM     35  C   UNL     1     113.688 129.854 139.203  0.00  0.00    +0.000 C 
BRANCH  33  36
ATOM     36  C   UNL     1     113.063 127.798 139.582  0.00  0.00    +0.000 C 
BRANCH  36  37
ATOM     37  O   UNL     1     112.840 127.559 138.825  0.00  0.00    +0.000 OA
BRANCH  37  39
ATOM     38  O   UNL     1     112.803 126.144 139.019  0.00  0.00    +0.000 OA
ATOM     39  C   UNL     1     112.465 126.833 138.715  0.00  0.00    +0.000 C 
BRANCH  39  40
ATOM     40  C   UNL     1     111.752 126.794 138.301  0.00  0.00    +0.000 C 
BRANCH  40  42
ATOM     41  O   UNL     1     112.047 126.744 137.173  0.00  0.00    +0.000 OA
ATOM     42  C   UNL     1     111.656 126.241 137.697  0.00  0.00    +0.000 C 
ATOM     43  C   UNL     1     111.264 125.737 138.220  0.00  0.00    +0.000 C 
BRANCH  42  44
ATOM     44  C   UNL     1     111.558 125.687 137.092  0.00  0.00    +0.000 C 
BRANCH  44  45
ATOM     45  O   UNL     1     110.981 125.804 136.515  0.00  0.00    +0.000 OA
BRANCH  45  47
ATOM     46  O   UNL     1     110.269 125.323 135.373  0.00  0.00    +0.000 OA
ATOM     47  C   UNL     1     110.916 125.276 135.885  0.00  0.00    +0.000 C 
ENDBRANCH  45  47
ENDBRANCH  44  45
ENDBRANCH  42  44
ENDBRANCH  40  42
ENDBRANCH  39  40
ENDBRANCH  37  39
ENDBRANCH  36  37
ENDBRANCH  33  36
ENDBRANCH  26  35
ENDBRANCH   1  26
TORSDOF 14
ENDMDL
MODEL 9
REMARK VINA RESULT:      -7.9      2.407      6.426
REMARK  Name = 131752542
REMARK  14 active torsions:
REMARK  status: ('A' for Active; 'I' for Inactive)
REMARK    1  A    between atoms: O_4  and  C_22
REMARK    2  A    between atoms: O_4  and  C_24
REMARK    3  A    between atoms: O_6  and  C_23
REMARK    4  A    between atoms: O_6  and  C_26
REMARK    5  A    between atoms: O_9  and  C_28
REMARK    6  A    between atoms: O_10  and  C_30
REMARK    7  A    between atoms: O_10  and  C_43
REMARK    8  A    between atoms: O_12  and  C_41
REMARK    9  A    between atoms: O_15  and  C_44
REMARK   10  A    between atoms: C_20  and  C_23
REMARK   11  A    between atoms: C_25  and  C_26
REMARK   12  A    between atoms: C_25  and  C_27
REMARK   13  A    between atoms: C_27  and  C_30
REMARK   14  A    between atoms: C_33  and  C_35
REMARK                            x       y       z     vdW  Elec       q    Type
REMARK                         _______ _______ _______ _____ _____    ______ ____
ROOT
ATOM      1  C   UNL     1     110.062 130.043 136.634  0.00  0.00    +0.000 A 
ATOM      2  C   UNL     1     109.503 129.441 136.550  0.00  0.00    +0.000 A 
ATOM      3  C   UNL     1     110.823 129.864 136.896  0.00  0.00    +0.000 A 
ATOM      4  C   UNL     1     109.705 128.662 136.729  0.00  0.00    +0.000 A 
ATOM      5  C   UNL     1     110.467 128.484 136.991  0.00  0.00    +0.000 A 
ATOM      6  C   UNL     1     111.026 129.084 137.075  0.00  0.00    +0.000 A 
ENDROOT
BRANCH   5  11
ATOM      7  O   UNL     1     110.757 127.125 136.542  0.00  0.00    +0.000 OA
ATOM      8  O   UNL     1     111.127 126.415 138.944  0.00  0.00    +0.000 OA
ATOM      9  O   UNL     1     111.410 125.079 138.481  0.00  0.00    +0.000 OA
ATOM     10  O   UNL     1     111.335 124.432 135.698  0.00  0.00    +0.000 OA
ATOM     11  C   UNL     1     110.670 127.704 137.170  0.00  0.00    +0.000 A 
ATOM     12  C   UNL     1     110.795 127.466 137.987  0.00  0.00    +0.000 A 
ATOM     13  C   UNL     1     110.968 126.315 136.738  0.00  0.00    +0.000 A 
ATOM     14  C   UNL     1     111.088 126.087 137.522  0.00  0.00    +0.000 A 
ATOM     15  C   UNL     1     111.005 126.652 138.164  0.00  0.00    +0.000 A 
ATOM     16  C   UNL     1     111.050 125.763 136.131  0.00  0.00    +0.000 A 
ATOM     17  C   UNL     1     111.290 125.307 137.697  0.00  0.00    +0.000 A 
ATOM     18  C   UNL     1     111.373 124.755 137.089  0.00  0.00    +0.000 A 
ATOM     19  C   UNL     1     111.253 124.983 136.307  0.00  0.00    +0.000 A 
BRANCH  16  20
ATOM     20  O   UNL     1     110.930 125.993 135.347  0.00  0.00    +0.000 OA
ATOM     21  C   UNL     1     110.309 125.666 134.913  0.00  0.00    +0.000 C 
ENDBRANCH  16  20
BRANCH  18  22
ATOM     22  O   UNL     1     111.575 123.975 137.265  0.00  0.00    +0.000 OA
ATOM     23  C   UNL     1     112.345 123.708 137.134  0.00  0.00    +0.000 C 
ENDBRANCH  18  22
ENDBRANCH   5  11
BRANCH   2  24
ATOM     24  O   UNL     1     108.742 129.620 136.287  0.00  0.00    +0.000 OA
ATOM     25  C   UNL     1     108.356 129.112 135.763  0.00  0.00    +0.000 C 
ENDBRANCH   2  24
BRANCH   1  26
ATOM     26  O   UNL     1     109.860 130.822 136.455  0.00  0.00    +0.000 OA
BRANCH  26  35
ATOM     27  O   UNL     1     109.821 131.258 137.815  0.00  0.00    +0.000 OA
ATOM     28  O   UNL     1     110.280 133.195 138.710  0.00  0.00    +0.000 OA
ATOM     29  O   UNL     1     110.568 133.511 137.116  0.00  0.00    +0.000 OA
ATOM     30  O   UNL     1     110.358 132.325 135.989  0.00  0.00    +0.000 OA
ATOM     31  C   UNL     1     110.175 132.602 138.147  0.00  0.00    +0.000 C 
ATOM     32  C   UNL     1     110.319 132.760 137.349  0.00  0.00    +0.000 C 
ATOM     33  C   UNL     1     109.926 131.850 138.380  0.00  0.00    +0.000 C 
ATOM     34  C   UNL     1     110.214 132.166 136.786  0.00  0.00    +0.000 C 
ATOM     35  C   UNL     1     109.965 131.415 137.019  0.00  0.00    +0.000 C 
BRANCH  33  36
ATOM     36  C   UNL     1     109.782 131.693 139.176  0.00  0.00    +0.000 C 
BRANCH  36  37
ATOM     37  O   UNL     1     109.105 131.277 139.399  0.00  0.00    +0.000 OA
BRANCH  37  39
ATOM     38  O   UNL     1     109.323 131.317 140.810  0.00  0.00    +0.000 OA
ATOM     39  C   UNL     1     109.070 130.912 140.138  0.00  0.00    +0.000 C 
BRANCH  39  40
ATOM     40  C   UNL     1     108.781 130.142 140.205  0.00  0.00    +0.000 C 
BRANCH  40  42
ATOM     41  O   UNL     1     107.647 130.370 140.355  0.00  0.00    +0.000 OA
ATOM     42  C   UNL     1     108.221 129.959 140.782  0.00  0.00    +0.000 C 
ATOM     43  C   UNL     1     108.795 129.548 141.209  0.00  0.00    +0.000 C 
BRANCH  42  44
ATOM     44  C   UNL     1     107.661 129.776 141.360  0.00  0.00    +0.000 C 
BRANCH  44  45
ATOM     45  O   UNL     1     107.081 129.210 141.207  0.00  0.00    +0.000 OA
BRANCH  45  47
ATOM     46  O   UNL     1     105.943 128.459 141.632  0.00  0.00    +0.000 OA
ATOM     47  C   UNL     1     106.522 129.028 141.784  0.00  0.00    +0.000 C 
ENDBRANCH  45  47
ENDBRANCH  44  45
ENDBRANCH  42  44
ENDBRANCH  40  42
ENDBRANCH  39  40
ENDBRANCH  37  39
ENDBRANCH  36  37
ENDBRANCH  33  36
ENDBRANCH  26  35
ENDBRANCH   1  26
TORSDOF 14
ENDMDL
MODEL 10
REMARK VINA RESULT:      -7.9      1.680      2.424
REMARK  Name = 131752542
REMARK  14 active torsions:
REMARK  status: ('A' for Active; 'I' for Inactive)
REMARK    1  A    between atoms: O_4  and  C_22
REMARK    2  A    between atoms: O_4  and  C_24
REMARK    3  A    between atoms: O_6  and  C_23
REMARK    4  A    between atoms: O_6  and  C_26
REMARK    5  A    between atoms: O_9  and  C_28
REMARK    6  A    between atoms: O_10  and  C_30
REMARK    7  A    between atoms: O_10  and  C_43
REMARK    8  A    between atoms: O_12  and  C_41
REMARK    9  A    between atoms: O_15  and  C_44
REMARK   10  A    between atoms: C_20  and  C_23
REMARK   11  A    between atoms: C_25  and  C_26
REMARK   12  A    between atoms: C_25  and  C_27
REMARK   13  A    between atoms: C_27  and  C_30
REMARK   14  A    between atoms: C_33  and  C_35
REMARK                            x       y       z     vdW  Elec       q    Type
REMARK                         _______ _______ _______ _____ _____    ______ ____
ROOT
ATOM      1  C   UNL     1     113.108 127.349 138.073  0.00  0.00    +0.000 A 
ATOM      2  C   UNL     1     112.962 128.113 137.793  0.00  0.00    +0.000 A 
ATOM      3  C   UNL     1     112.633 127.031 138.667  0.00  0.00    +0.000 A 
ATOM      4  C   UNL     1     112.342 128.556 138.108  0.00  0.00    +0.000 A 
ATOM      5  C   UNL     1     111.867 128.236 138.703  0.00  0.00    +0.000 A 
ATOM      6  C   UNL     1     112.013 127.474 138.982  0.00  0.00    +0.000 A 
ENDROOT
BRANCH   5  11
ATOM      7  O   UNL     1     111.410 129.339 139.545  0.00  0.00    +0.000 OA
ATOM      8  O   UNL     1     109.010 128.773 138.972  0.00  0.00    +0.000 OA
ATOM      9  O   UNL     1     108.578 129.867 139.808  0.00  0.00    +0.000 OA
ATOM     10  O   UNL     1     110.467 131.503 141.195  0.00  0.00    +0.000 OA
ATOM     11  C   UNL     1     111.247 128.680 139.018  0.00  0.00    +0.000 A 
ATOM     12  C   UNL     1     110.433 128.485 138.822  0.00  0.00    +0.000 A 
ATOM     13  C   UNL     1     110.758 129.795 139.868  0.00  0.00    +0.000 A 
ATOM     14  C   UNL     1     109.976 129.608 139.680  0.00  0.00    +0.000 A 
ATOM     15  C   UNL     1     109.793 128.953 139.155  0.00  0.00    +0.000 A 
ATOM     16  C   UNL     1     110.920 130.427 140.373  0.00  0.00    +0.000 A 
ATOM     17  C   UNL     1     109.359 130.054 139.997  0.00  0.00    +0.000 A 
ATOM     18  C   UNL     1     109.522 130.685 140.502  0.00  0.00    +0.000 A 
ATOM     19  C   UNL     1     110.302 130.872 140.689  0.00  0.00    +0.000 A 
BRANCH  16  20
ATOM     20  O   UNL     1     111.702 130.613 140.561  0.00  0.00    +0.000 OA
ATOM     21  C   UNL     1     111.970 130.532 141.337  0.00  0.00    +0.000 C 
ENDBRANCH  16  20
BRANCH  18  22
ATOM     22  O   UNL     1     108.903 131.131 140.818  0.00  0.00    +0.000 OA
ATOM     23  C   UNL     1     108.514 130.871 141.498  0.00  0.00    +0.000 C 
ENDBRANCH  18  22
ENDBRANCH   5  11
BRANCH   2  24
ATOM     24  O   UNL     1     113.437 128.431 137.198  0.00  0.00    +0.000 OA
ATOM     25  C   UNL     1     113.401 129.239 137.031  0.00  0.00    +0.000 C 
ENDBRANCH   2  24
BRANCH   1  26
ATOM     26  O   UNL     1     113.728 126.906 137.757  0.00  0.00    +0.000 OA
BRANCH  26  35
ATOM     27  O   UNL     1     112.929 126.024 136.967  0.00  0.00    +0.000 OA
ATOM     28  O   UNL     1     113.149 123.895 136.537  0.00  0.00    +0.000 OA
ATOM     29  O   UNL     1     114.458 124.154 137.507  0.00  0.00    +0.000 OA
ATOM     30  O   UNL     1     114.747 125.660 138.118  0.00  0.00    +0.000 OA
ATOM     31  C   UNL     1     113.293 124.648 136.841  0.00  0.00    +0.000 C 
ATOM     32  C   UNL     1     113.948 124.777 137.327  0.00  0.00    +0.000 C 
ATOM     33  C   UNL     1     112.784 125.271 136.661  0.00  0.00    +0.000 C 
ATOM     34  C   UNL     1     114.092 125.530 137.632  0.00  0.00    +0.000 C 
ATOM     35  C   UNL     1     113.583 126.153 137.452  0.00  0.00    +0.000 C 
BRANCH  33  36
ATOM     36  C   UNL     1     112.130 125.142 136.176  0.00  0.00    +0.000 C 
BRANCH  36  37
ATOM     37  O   UNL     1     111.733 125.781 135.837  0.00  0.00    +0.000 OA
BRANCH  37  39
ATOM     38  O   UNL     1     110.584 124.965 135.609  0.00  0.00    +0.000 OA
ATOM     39  C   UNL     1     110.993 125.672 135.492  0.00  0.00    +0.000 C 
BRANCH  39  40
ATOM     40  C   UNL     1     110.660 126.269 135.030  0.00  0.00    +0.000 C 
BRANCH  40  42
ATOM     41  O   UNL     1     110.417 127.243 135.624  0.00  0.00    +0.000 OA
ATOM     42  C   UNL     1     109.969 126.645 135.276  0.00  0.00    +0.000 C 
ATOM     43  C   UNL     1     109.519 126.047 134.928  0.00  0.00    +0.000 C 
BRANCH  42  44
ATOM     44  C   UNL     1     109.276 127.021 135.522  0.00  0.00    +0.000 C 
BRANCH  44  45
ATOM     45  O   UNL     1     109.189 127.834 135.414  0.00  0.00    +0.000 OA
BRANCH  45  47
ATOM     46  O   UNL     1     108.417 129.027 135.570  0.00  0.00    +0.000 OA
ATOM     47  C   UNL     1     108.516 128.217 135.699  0.00  0.00    +0.000 C 
ENDBRANCH  45  47
ENDBRANCH  44  45
ENDBRANCH  42  44
ENDBRANCH  40  42
ENDBRANCH  39  40
ENDBRANCH  37  39
ENDBRANCH  36  37
ENDBRANCH  33  36
ENDBRANCH  26  35
ENDBRANCH   1  26
TORSDOF 14
ENDMDL
