MODEL 1
REMARK VINA RESULT:      -8.2      0.000      0.000
REMARK  Name = 5489501
REMARK  3 active torsions:
REMARK  status: ('A' for Active; 'I' for Inactive)
REMARK    1  A    between atoms: O_2  and  C_11
REMARK    2  A    between atoms: O_3  and  C_14
REMARK    3  A    between atoms: C_10  and  C_13
REMARK                            x       y       z     vdW  Elec       q    Type
REMARK                         _______ _______ _______ _____ _____    ______ ____
ROOT
ATOM      1  O   UNL     1     104.851 124.158 146.707  0.00  0.00    +0.000 OA
ATOM      2  O   UNL     1     103.200 125.290 148.161  0.00  0.00    +0.000 OA
ATOM      3  O   UNL     1     102.706 122.739 145.342  0.00  0.00    +0.000 OA
ATOM      4  C   UNL     1     103.497 124.378 147.102  0.00  0.00    +0.000 A 
ATOM      5  C   UNL     1     104.046 124.001 146.618  0.00  0.00    +0.000 A 
ATOM      6  C   UNL     1     105.106 124.693 147.282  0.00  0.00    +0.000 A 
ATOM      7  C   UNL     1     104.556 125.070 147.766  0.00  0.00    +0.000 A 
ATOM      8  C   UNL     1     103.750 124.913 147.677  0.00  0.00    +0.000 A 
ATOM      9  C   UNL     1     102.654 124.223 147.019  0.00  0.00    +0.000 A 
ATOM     10  C   UNL     1     103.794 123.442 146.015  0.00  0.00    +0.000 A 
ATOM     11  C   UNL     1     102.384 123.668 146.422  0.00  0.00    +0.000 A 
ATOM     12  C   UNL     1     102.957 123.274 145.917  0.00  0.00    +0.000 A 
ENDROOT
BRANCH   6  15
ATOM     13  O   UNL     1     107.497 125.964 146.369  0.00  0.00    +0.000 OA
ATOM     14  O   UNL     1     108.326 125.318 147.641  0.00  0.00    +0.000 OA
ATOM     15  C   UNL     1     105.911 124.849 147.371  0.00  0.00    +0.000 A 
ATOM     16  C   UNL     1     106.301 125.329 146.825  0.00  0.00    +0.000 A 
ATOM     17  C   UNL     1     106.325 124.526 148.008  0.00  0.00    +0.000 A 
ATOM     18  C   UNL     1     107.107 125.484 146.915  0.00  0.00    +0.000 A 
ATOM     19  C   UNL     1     107.130 124.682 148.097  0.00  0.00    +0.000 A 
ATOM     20  C   UNL     1     107.521 125.162 147.551  0.00  0.00    +0.000 A 
ENDBRANCH   6  15
BRANCH   7  21
ATOM     21  O   UNL     1     104.810 125.604 148.341  0.00  0.00    +0.000 OA
ATOM     22  C   UNL     1     104.315 126.220 148.580  0.00  0.00    +0.000 C 
ENDBRANCH   7  21
BRANCH   9  23
ATOM     23  O   UNL     1     102.112 124.605 147.508  0.00  0.00    +0.000 OA
ATOM     24  C   UNL     1     101.325 124.358 147.522  0.00  0.00    +0.000 C 
ENDBRANCH   9  23
TORSDOF 3
ENDMDL
MODEL 2
REMARK VINA RESULT:      -8.0     13.151     13.667
REMARK  Name = 5489501
REMARK  3 active torsions:
REMARK  status: ('A' for Active; 'I' for Inactive)
REMARK    1  A    between atoms: O_2  and  C_11
REMARK    2  A    between atoms: O_3  and  C_14
REMARK    3  A    between atoms: C_10  and  C_13
REMARK                            x       y       z     vdW  Elec       q    Type
REMARK                         _______ _______ _______ _____ _____    ______ ____
ROOT
ATOM      1  O   UNL     1     111.934 125.804 136.042  0.00  0.00    +0.000 OA
ATOM      2  O   UNL     1     111.835 128.263 135.781  0.00  0.00    +0.000 OA
ATOM      3  O   UNL     1     109.413 125.529 134.612  0.00  0.00    +0.000 OA
ATOM      4  C   UNL     1     111.266 126.970 135.560  0.00  0.00    +0.000 A 
ATOM      5  C   UNL     1     111.299 126.152 135.647  0.00  0.00    +0.000 A 
ATOM      6  C   UNL     1     112.537 126.277 136.350  0.00  0.00    +0.000 A 
ATOM      7  C   UNL     1     112.504 127.095 136.263  0.00  0.00    +0.000 A 
ATOM      8  C   UNL     1     111.868 127.443 135.868  0.00  0.00    +0.000 A 
ATOM      9  C   UNL     1     110.609 127.345 135.151  0.00  0.00    +0.000 A 
ATOM     10  C   UNL     1     110.678 125.648 135.331  0.00  0.00    +0.000 A 
ATOM     11  C   UNL     1     109.979 126.858 134.828  0.00  0.00    +0.000 A 
ATOM     12  C   UNL     1     110.013 126.004 134.919  0.00  0.00    +0.000 A 
ENDROOT
BRANCH   6  15
ATOM     13  O   UNL     1     115.114 125.043 136.290  0.00  0.00    +0.000 OA
ATOM     14  O   UNL     1     115.077 124.885 137.932  0.00  0.00    +0.000 OA
ATOM     15  C   UNL     1     113.172 125.929 136.745  0.00  0.00    +0.000 A 
ATOM     16  C   UNL     1     113.826 125.660 136.319  0.00  0.00    +0.000 A 
ATOM     17  C   UNL     1     113.154 125.850 137.566  0.00  0.00    +0.000 A 
ATOM     18  C   UNL     1     114.461 125.312 136.715  0.00  0.00    +0.000 A 
ATOM     19  C   UNL     1     113.789 125.502 137.961  0.00  0.00    +0.000 A 
ATOM     20  C   UNL     1     114.443 125.233 137.536  0.00  0.00    +0.000 A 
ENDBRANCH   6  15
BRANCH   7  21
ATOM     21  O   UNL     1     113.106 127.568 136.571  0.00  0.00    +0.000 OA
ATOM     22  C   UNL     1     113.194 128.346 136.311  0.00  0.00    +0.000 C 
ENDBRANCH   7  21
BRANCH   9  23
ATOM     23  O   UNL     1     110.584 128.165 135.069  0.00  0.00    +0.000 OA
ATOM     24  C   UNL     1     109.912 128.528 134.757  0.00  0.00    +0.000 C 
ENDBRANCH   9  23
TORSDOF 3
ENDMDL
MODEL 3
REMARK VINA RESULT:      -7.9     13.086     14.181
REMARK  Name = 5489501
REMARK  3 active torsions:
REMARK  status: ('A' for Active; 'I' for Inactive)
REMARK    1  A    between atoms: O_2  and  C_11
REMARK    2  A    between atoms: O_3  and  C_14
REMARK    3  A    between atoms: C_10  and  C_13
REMARK                            x       y       z     vdW  Elec       q    Type
REMARK                         _______ _______ _______ _____ _____    ______ ____
ROOT
ATOM      1  O   UNL     1     113.891 126.877 136.746  0.00  0.00    +0.000 OA
ATOM      2  O   UNL     1     111.699 125.913 136.121  0.00  0.00    +0.000 OA
ATOM      3  O   UNL     1     114.868 124.232 137.475  0.00  0.00    +0.000 OA
ATOM      4  C   UNL     1     113.031 125.745 136.611  0.00  0.00    +0.000 A 
ATOM      5  C   UNL     1     113.760 126.066 136.819  0.00  0.00    +0.000 A 
ATOM      6  C   UNL     1     113.290 127.367 136.464  0.00  0.00    +0.000 A 
ATOM      7  C   UNL     1     112.560 127.046 136.256  0.00  0.00    +0.000 A 
ATOM      8  C   UNL     1     112.429 126.234 136.330  0.00  0.00    +0.000 A 
ATOM      9  C   UNL     1     112.882 124.900 136.683  0.00  0.00    +0.000 A 
ATOM     10  C   UNL     1     114.395 125.565 137.114  0.00  0.00    +0.000 A 
ATOM     11  C   UNL     1     113.504 124.385 136.976  0.00  0.00    +0.000 A 
ATOM     12  C   UNL     1     114.266 124.720 137.193  0.00  0.00    +0.000 A 
ENDROOT
BRANCH   6  15
ATOM     13  O   UNL     1     114.277 129.591 134.965  0.00  0.00    +0.000 OA
ATOM     14  O   UNL     1     113.811 130.613 136.175  0.00  0.00    +0.000 OA
ATOM     15  C   UNL     1     113.420 128.178 136.391  0.00  0.00    +0.000 A 
ATOM     16  C   UNL     1     113.783 128.479 135.714  0.00  0.00    +0.000 A 
ATOM     17  C   UNL     1     113.187 128.689 136.997  0.00  0.00    +0.000 A 
ATOM     18  C   UNL     1     113.913 129.291 135.642  0.00  0.00    +0.000 A 
ATOM     19  C   UNL     1     113.318 129.501 136.923  0.00  0.00    +0.000 A 
ATOM     20  C   UNL     1     113.681 129.801 136.246  0.00  0.00    +0.000 A 
ENDBRANCH   6  15
BRANCH   7  21
ATOM     21  O   UNL     1     111.959 127.536 135.975  0.00  0.00    +0.000 OA
ATOM     22  C   UNL     1     111.359 127.224 135.503  0.00  0.00    +0.000 C 
ENDBRANCH   7  21
BRANCH   9  23
ATOM     23  O   UNL     1     112.149 124.589 136.473  0.00  0.00    +0.000 OA
ATOM     24  C   UNL     1     111.957 123.813 136.678  0.00  0.00    +0.000 C 
ENDBRANCH   9  23
TORSDOF 3
ENDMDL
MODEL 4
REMARK VINA RESULT:      -7.8      1.129      2.398
REMARK  Name = 5489501
REMARK  3 active torsions:
REMARK  status: ('A' for Active; 'I' for Inactive)
REMARK    1  A    between atoms: O_2  and  C_11
REMARK    2  A    between atoms: O_3  and  C_14
REMARK    3  A    between atoms: C_10  and  C_13
REMARK                            x       y       z     vdW  Elec       q    Type
REMARK                         _______ _______ _______ _____ _____    ______ ____
ROOT
ATOM      1  O   UNL     1     103.609 124.910 147.191  0.00  0.00    +0.000 OA
ATOM      2  O   UNL     1     102.763 122.879 146.059  0.00  0.00    +0.000 OA
ATOM      3  O   UNL     1     101.082 125.195 148.611  0.00  0.00    +0.000 OA
ATOM      4  C   UNL     1     102.565 123.961 146.971  0.00  0.00    +0.000 A 
ATOM      5  C   UNL     1     102.847 124.637 147.348  0.00  0.00    +0.000 A 
ATOM      6  C   UNL     1     104.090 124.505 146.656  0.00  0.00    +0.000 A 
ATOM      7  C   UNL     1     103.808 123.829 146.279  0.00  0.00    +0.000 A 
ATOM      8  C   UNL     1     103.045 123.556 146.436  0.00  0.00    +0.000 A 
ATOM      9  C   UNL     1     101.772 123.666 147.126  0.00  0.00    +0.000 A 
ATOM     10  C   UNL     1     102.356 125.068 147.908  0.00  0.00    +0.000 A 
ATOM     11  C   UNL     1     101.267 124.083 147.682  0.00  0.00    +0.000 A 
ATOM     12  C   UNL     1     101.561 124.789 148.076  0.00  0.00    +0.000 A 
ENDROOT
BRANCH   6  15
ATOM     13  O   UNL     1     106.860 124.644 147.343  0.00  0.00    +0.000 OA
ATOM     14  O   UNL     1     107.139 125.599 146.026  0.00  0.00    +0.000 OA
ATOM     15  C   UNL     1     104.852 124.778 146.499  0.00  0.00    +0.000 A 
ATOM     16  C   UNL     1     105.475 124.574 147.000  0.00  0.00    +0.000 A 
ATOM     17  C   UNL     1     104.991 125.256 145.840  0.00  0.00    +0.000 A 
ATOM     18  C   UNL     1     106.237 124.848 146.842  0.00  0.00    +0.000 A 
ATOM     19  C   UNL     1     105.754 125.529 145.683  0.00  0.00    +0.000 A 
ATOM     20  C   UNL     1     106.377 125.325 146.184  0.00  0.00    +0.000 A 
ENDBRANCH   6  15
BRANCH   7  21
ATOM     21  O   UNL     1     104.288 123.424 145.744  0.00  0.00    +0.000 OA
ATOM     22  C   UNL     1     103.974 122.811 145.289  0.00  0.00    +0.000 C 
ENDBRANCH   7  21
BRANCH   9  23
ATOM     23  O   UNL     1     101.499 122.989 146.745  0.00  0.00    +0.000 OA
ATOM     24  C   UNL     1     100.710 122.759 146.826  0.00  0.00    +0.000 C 
ENDBRANCH   9  23
TORSDOF 3
ENDMDL
MODEL 5
REMARK VINA RESULT:      -7.8     11.768     13.320
REMARK  Name = 5489501
REMARK  3 active torsions:
REMARK  status: ('A' for Active; 'I' for Inactive)
REMARK    1  A    between atoms: O_2  and  C_11
REMARK    2  A    between atoms: O_3  and  C_14
REMARK    3  A    between atoms: C_10  and  C_13
REMARK                            x       y       z     vdW  Elec       q    Type
REMARK                         _______ _______ _______ _____ _____    ______ ____
ROOT
ATOM      1  O   UNL     1     111.007 125.266 136.530  0.00  0.00    +0.000 OA
ATOM      2  O   UNL     1     113.173 126.419 136.210  0.00  0.00    +0.000 OA
ATOM      3  O   UNL     1     112.396 122.802 137.218  0.00  0.00    +0.000 OA
ATOM      4  C   UNL     1     112.435 125.240 136.538  0.00  0.00    +0.000 A 
ATOM      5  C   UNL     1     111.713 124.857 136.645  0.00  0.00    +0.000 A 
ATOM      6  C   UNL     1     111.023 126.062 136.309  0.00  0.00    +0.000 A 
ATOM      7  C   UNL     1     111.744 126.445 136.202  0.00  0.00    +0.000 A 
ATOM      8  C   UNL     1     112.451 126.035 136.317  0.00  0.00    +0.000 A 
ATOM      9  C   UNL     1     113.178 124.824 136.655  0.00  0.00    +0.000 A 
ATOM     10  C   UNL     1     111.683 124.029 136.876  0.00  0.00    +0.000 A 
ATOM     11  C   UNL     1     113.168 123.997 136.885  0.00  0.00    +0.000 A 
ATOM     12  C   UNL     1     112.415 123.596 136.997  0.00  0.00    +0.000 A 
ENDROOT
BRANCH   6  15
ATOM     13  O   UNL     1     108.885 127.650 137.346  0.00  0.00    +0.000 OA
ATOM     14  O   UNL     1     108.195 127.700 135.848  0.00  0.00    +0.000 OA
ATOM     15  C   UNL     1     110.316 126.471 136.194  0.00  0.00    +0.000 A 
ATOM     16  C   UNL     1     109.954 126.856 136.828  0.00  0.00    +0.000 A 
ATOM     17  C   UNL     1     109.971 126.497 135.444  0.00  0.00    +0.000 A 
ATOM     18  C   UNL     1     109.247 127.265 136.712  0.00  0.00    +0.000 A 
ATOM     19  C   UNL     1     109.264 126.906 135.330  0.00  0.00    +0.000 A 
ATOM     20  C   UNL     1     108.902 127.291 135.963  0.00  0.00    +0.000 A 
ENDBRANCH   6  15
BRANCH   7  21
ATOM     21  O   UNL     1     111.760 127.240 135.981  0.00  0.00    +0.000 OA
ATOM     22  C   UNL     1     112.408 127.711 136.180  0.00  0.00    +0.000 C 
ENDBRANCH   7  21
BRANCH   9  23
ATOM     23  O   UNL     1     113.895 125.216 136.546  0.00  0.00    +0.000 OA
ATOM     24  C   UNL     1     114.594 124.884 136.833  0.00  0.00    +0.000 C 
ENDBRANCH   9  23
TORSDOF 3
ENDMDL
MODEL 6
REMARK VINA RESULT:      -7.7      0.872      1.908
REMARK  Name = 5489501
REMARK  3 active torsions:
REMARK  status: ('A' for Active; 'I' for Inactive)
REMARK    1  A    between atoms: O_2  and  C_11
REMARK    2  A    between atoms: O_3  and  C_14
REMARK    3  A    between atoms: C_10  and  C_13
REMARK                            x       y       z     vdW  Elec       q    Type
REMARK                         _______ _______ _______ _____ _____    ______ ____
ROOT
ATOM      1  O   UNL     1     104.415 125.248 147.610  0.00  0.00    +0.000 OA
ATOM      2  O   UNL     1     103.682 123.851 145.703  0.00  0.00    +0.000 OA
ATOM      3  O   UNL     1     101.660 125.483 148.523  0.00  0.00    +0.000 OA
ATOM      4  C   UNL     1     103.372 124.605 146.877  0.00  0.00    +0.000 A 
ATOM      5  C   UNL     1     103.616 125.070 147.512  0.00  0.00    +0.000 A 
ATOM      6  C   UNL     1     104.971 124.960 147.071  0.00  0.00    +0.000 A 
ATOM      7  C   UNL     1     104.727 124.495 146.437  0.00  0.00    +0.000 A 
ATOM      8  C   UNL     1     103.927 124.317 146.339  0.00  0.00    +0.000 A 
ATOM      9  C   UNL     1     102.541 124.412 146.764  0.00  0.00    +0.000 A 
ATOM     10  C   UNL     1     103.047 125.376 148.080  0.00  0.00    +0.000 A 
ATOM     11  C   UNL     1     101.959 124.709 147.321  0.00  0.00    +0.000 A 
ATOM     12  C   UNL     1     102.213 125.194 147.984  0.00  0.00    +0.000 A 
ENDROOT
BRANCH   6  15
ATOM     13  O   UNL     1     107.226 126.621 146.501  0.00  0.00    +0.000 OA
ATOM     14  O   UNL     1     108.169 125.671 147.466  0.00  0.00    +0.000 OA
ATOM     15  C   UNL     1     105.770 125.138 147.170  0.00  0.00    +0.000 A 
ATOM     16  C   UNL     1     106.098 125.791 146.786  0.00  0.00    +0.000 A 
ATOM     17  C   UNL     1     106.242 124.663 147.652  0.00  0.00    +0.000 A 
ATOM     18  C   UNL     1     106.898 125.968 146.885  0.00  0.00    +0.000 A 
ATOM     19  C   UNL     1     107.042 124.841 147.750  0.00  0.00    +0.000 A 
ATOM     20  C   UNL     1     107.370 125.494 147.367  0.00  0.00    +0.000 A 
ENDBRANCH   6  15
BRANCH   7  21
ATOM     21  O   UNL     1     105.282 124.207 145.898  0.00  0.00    +0.000 OA
ATOM     22  C   UNL     1     105.067 124.081 145.112  0.00  0.00    +0.000 C 
ENDBRANCH   7  21
BRANCH   9  23
ATOM     23  O   UNL     1     102.307 123.946 146.126  0.00  0.00    +0.000 OA
ATOM     24  C   UNL     1     101.538 123.647 146.095  0.00  0.00    +0.000 C 
ENDBRANCH   9  23
TORSDOF 3
ENDMDL
MODEL 7
REMARK VINA RESULT:      -7.7     10.719     12.447
REMARK  Name = 5489501
REMARK  3 active torsions:
REMARK  status: ('A' for Active; 'I' for Inactive)
REMARK    1  A    between atoms: O_2  and  C_11
REMARK    2  A    between atoms: O_3  and  C_14
REMARK    3  A    between atoms: C_10  and  C_13
REMARK                            x       y       z     vdW  Elec       q    Type
REMARK                         _______ _______ _______ _____ _____    ______ ____
ROOT
ATOM      1  O   UNL     1     113.847 126.349 138.338  0.00  0.00    +0.000 OA
ATOM      2  O   UNL     1     111.658 125.194 138.342  0.00  0.00    +0.000 OA
ATOM      3  O   UNL     1     114.712 124.743 136.068  0.00  0.00    +0.000 OA
ATOM      4  C   UNL     1     112.961 125.376 137.783  0.00  0.00    +0.000 A 
ATOM      5  C   UNL     1     113.690 125.760 137.782  0.00  0.00    +0.000 A 
ATOM      6  C   UNL     1     113.274 126.553 138.896  0.00  0.00    +0.000 A 
ATOM      7  C   UNL     1     112.545 126.168 138.897  0.00  0.00    +0.000 A 
ATOM      8  C   UNL     1     112.388 125.579 138.341  0.00  0.00    +0.000 A 
ATOM      9  C   UNL     1     112.785 124.760 137.209  0.00  0.00    +0.000 A 
ATOM     10  C   UNL     1     114.295 125.557 137.206  0.00  0.00    +0.000 A 
ATOM     11  C   UNL     1     113.377 124.544 136.626  0.00  0.00    +0.000 A 
ATOM     12  C   UNL     1     114.138 124.945 136.624  0.00  0.00    +0.000 A 
ENDROOT
BRANCH   6  15
ATOM     13  O   UNL     1     113.298 129.311 139.642  0.00  0.00    +0.000 OA
ATOM     14  O   UNL     1     113.905 128.906 141.122  0.00  0.00    +0.000 OA
ATOM     15  C   UNL     1     113.431 127.141 139.452  0.00  0.00    +0.000 A 
ATOM     16  C   UNL     1     113.286 127.932 139.269  0.00  0.00    +0.000 A 
ATOM     17  C   UNL     1     113.735 126.938 140.193  0.00  0.00    +0.000 A 
ATOM     18  C   UNL     1     113.444 128.520 139.826  0.00  0.00    +0.000 A 
ATOM     19  C   UNL     1     113.892 127.527 140.749  0.00  0.00    +0.000 A 
ATOM     20  C   UNL     1     113.747 128.318 140.565  0.00  0.00    +0.000 A 
ENDBRANCH   6  15
BRANCH   7  21
ATOM     21  O   UNL     1     111.972 126.372 139.455  0.00  0.00    +0.000 OA
ATOM     22  C   UNL     1     111.172 126.262 139.284  0.00  0.00    +0.000 C 
ENDBRANCH   7  21
BRANCH   9  23
ATOM     23  O   UNL     1     112.053 124.381 137.218  0.00  0.00    +0.000 OA
ATOM     24  C   UNL     1     111.895 123.776 136.679  0.00  0.00    +0.000 C 
ENDBRANCH   9  23
TORSDOF 3
ENDMDL
MODEL 8
REMARK VINA RESULT:      -7.6     11.435     13.031
REMARK  Name = 5489501
REMARK  3 active torsions:
REMARK  status: ('A' for Active; 'I' for Inactive)
REMARK    1  A    between atoms: O_2  and  C_11
REMARK    2  A    between atoms: O_3  and  C_14
REMARK    3  A    between atoms: C_10  and  C_13
REMARK                            x       y       z     vdW  Elec       q    Type
REMARK                         _______ _______ _______ _____ _____    ______ ____
ROOT
ATOM      1  O   UNL     1     110.637 127.109 136.936  0.00  0.00    +0.000 OA
ATOM      2  O   UNL     1     110.782 125.062 135.552  0.00  0.00    +0.000 OA
ATOM      3  O   UNL     1     111.982 125.745 139.130  0.00  0.00    +0.000 OA
ATOM      4  C   UNL     1     111.040 125.748 136.779  0.00  0.00    +0.000 A 
ATOM      5  C   UNL     1     110.991 126.429 137.240  0.00  0.00    +0.000 A 
ATOM      6  C   UNL     1     110.331 127.106 136.169  0.00  0.00    +0.000 A 
ATOM      7  C   UNL     1     110.379 126.425 135.708  0.00  0.00    +0.000 A 
ATOM      8  C   UNL     1     110.734 125.744 136.013  0.00  0.00    +0.000 A 
ATOM      9  C   UNL     1     111.407 125.032 137.085  0.00  0.00    +0.000 A 
ATOM     10  C   UNL     1     111.307 126.445 138.040  0.00  0.00    +0.000 A 
ATOM     11  C   UNL     1     111.727 125.029 137.882  0.00  0.00    +0.000 A 
ATOM     12  C   UNL     1     111.677 125.740 138.363  0.00  0.00    +0.000 A 
ENDROOT
BRANCH   6  15
ATOM     13  O   UNL     1     108.035 128.782 135.874  0.00  0.00    +0.000 OA
ATOM     14  O   UNL     1     108.916 129.827 134.950  0.00  0.00    +0.000 OA
ATOM     15  C   UNL     1     109.977 127.786 135.865  0.00  0.00    +0.000 A 
ATOM     16  C   UNL     1     109.182 127.944 136.022  0.00  0.00    +0.000 A 
ATOM     17  C   UNL     1     110.418 128.309 135.403  0.00  0.00    +0.000 A 
ATOM     18  C   UNL     1     108.829 128.624 135.717  0.00  0.00    +0.000 A 
ATOM     19  C   UNL     1     110.064 128.989 135.098  0.00  0.00    +0.000 A 
ATOM     20  C   UNL     1     109.269 129.147 135.255  0.00  0.00    +0.000 A 
ENDBRANCH   6  15
BRANCH   7  21
ATOM     21  O   UNL     1     110.074 126.422 134.942  0.00  0.00    +0.000 OA
ATOM     22  C   UNL     1     109.793 125.719 134.612  0.00  0.00    +0.000 C 
ENDBRANCH   7  21
BRANCH   9  23
ATOM     23  O   UNL     1     111.451 124.355 136.617  0.00  0.00    +0.000 OA
ATOM     24  C   UNL     1     111.944 123.732 136.838  0.00  0.00    +0.000 C 
ENDBRANCH   9  23
TORSDOF 3
ENDMDL
MODEL 9
REMARK VINA RESULT:      -7.6     12.409     14.395
REMARK  Name = 5489501
REMARK  3 active torsions:
REMARK  status: ('A' for Active; 'I' for Inactive)
REMARK    1  A    between atoms: O_2  and  C_11
REMARK    2  A    between atoms: O_3  and  C_14
REMARK    3  A    between atoms: C_10  and  C_13
REMARK                            x       y       z     vdW  Elec       q    Type
REMARK                         _______ _______ _______ _____ _____    ______ ____
ROOT
ATOM      1  O   UNL     1     113.872 127.451 136.081  0.00  0.00    +0.000 OA
ATOM      2  O   UNL     1     112.805 128.790 137.868  0.00  0.00    +0.000 OA
ATOM      3  O   UNL     1     114.669 129.889 134.703  0.00  0.00    +0.000 OA
ATOM      4  C   UNL     1     113.532 128.720 136.640  0.00  0.00    +0.000 A 
ATOM      5  C   UNL     1     113.888 128.275 136.045  0.00  0.00    +0.000 A 
ATOM      6  C   UNL     1     113.501 127.073 136.714  0.00  0.00    +0.000 A 
ATOM      7  C   UNL     1     113.145 127.519 137.309  0.00  0.00    +0.000 A 
ATOM      8  C   UNL     1     113.161 128.343 137.273  0.00  0.00    +0.000 A 
ATOM      9  C   UNL     1     113.542 129.580 136.614  0.00  0.00    +0.000 A 
ATOM     10  C   UNL     1     114.278 128.656 135.380  0.00  0.00    +0.000 A 
ATOM     11  C   UNL     1     113.927 129.979 135.957  0.00  0.00    +0.000 A 
ATOM     12  C   UNL     1     114.297 129.514 135.336  0.00  0.00    +0.000 A 
ENDROOT
BRANCH   6  15
ATOM     13  O   UNL     1     114.755 124.601 137.410  0.00  0.00    +0.000 OA
ATOM     14  O   UNL     1     113.437 123.776 136.858  0.00  0.00    +0.000 OA
ATOM     15  C   UNL     1     113.485 126.249 136.750  0.00  0.00    +0.000 A 
ATOM     16  C   UNL     1     114.129 125.837 137.062  0.00  0.00    +0.000 A 
ATOM     17  C   UNL     1     112.826 125.836 136.474  0.00  0.00    +0.000 A 
ATOM     18  C   UNL     1     114.112 125.013 137.098  0.00  0.00    +0.000 A 
ATOM     19  C   UNL     1     112.810 125.013 136.510  0.00  0.00    +0.000 A 
ATOM     20  C   UNL     1     113.454 124.601 136.822  0.00  0.00    +0.000 A 
ENDBRANCH   6  15
BRANCH   7  21
ATOM     21  O   UNL     1     112.774 127.141 137.942  0.00  0.00    +0.000 OA
ATOM     22  C   UNL     1     112.713 127.522 138.671  0.00  0.00    +0.000 C 
ENDBRANCH   7  21
BRANCH   9  23
ATOM     23  O   UNL     1     113.184 130.017 137.213  0.00  0.00    +0.000 OA
ATOM     24  C   UNL     1     113.210 130.842 137.194  0.00  0.00    +0.000 C 
ENDBRANCH   9  23
TORSDOF 3
ENDMDL
