MODEL 1
REMARK VINA RESULT:      -7.6      0.000      0.000
REMARK  Name = 75072281
REMARK  5 active torsions:
REMARK  status: ('A' for Active; 'I' for Inactive)
REMARK    1  A    between atoms: O_2  and  C_13
REMARK    2  A    between atoms: O_3  and  C_17
REMARK    3  A    between atoms: O_4  and  C_19
REMARK    4  A    between atoms: O_5  and  C_21
REMARK    5  A    between atoms: C_7  and  C_12
REMARK                            x       y       z     vdW  Elec       q    Type
REMARK                         _______ _______ _______ _____ _____    ______ ____
ROOT
ATOM      1  O   UNL     1     102.639 132.111 141.485  0.00  0.00    +0.000 OA
ATOM      2  C   UNL     1     102.244 131.414 141.685  0.00  0.00    +0.000 C 
ATOM      3  C   UNL     1     101.459 131.443 141.936  0.00  0.00    +0.000 C 
ATOM      4  C   UNL     1     101.068 132.168 141.987  0.00  0.00    +0.000 C 
ATOM      5  C   UNL     1     101.464 132.864 141.787  0.00  0.00    +0.000 A 
ATOM      6  C   UNL     1     102.249 132.835 141.536  0.00  0.00    +0.000 A 
ATOM      7  C   UNL     1     102.671 133.554 141.325  0.00  0.00    +0.000 A 
ATOM      8  C   UNL     1     101.047 133.613 141.845  0.00  0.00    +0.000 A 
ATOM      9  C   UNL     1     102.270 134.311 141.377  0.00  0.00    +0.000 A 
ATOM     10  C   UNL     1     101.452 134.342 141.639  0.00  0.00    +0.000 A 
ENDROOT
BRANCH   2  12
ATOM     11  O   UNL     1     103.846 129.375 142.887  0.00  0.00    +0.000 OA
ATOM     12  C   UNL     1     102.634 130.689 141.633  0.00  0.00    +0.000 A 
ATOM     13  C   UNL     1     102.614 130.258 140.930  0.00  0.00    +0.000 A 
ATOM     14  C   UNL     1     103.045 130.395 142.286  0.00  0.00    +0.000 A 
ATOM     15  C   UNL     1     103.004 129.533 140.879  0.00  0.00    +0.000 A 
ATOM     16  C   UNL     1     103.435 129.669 142.235  0.00  0.00    +0.000 A 
ATOM     17  C   UNL     1     103.415 129.239 141.531  0.00  0.00    +0.000 A 
BRANCH  15  18
ATOM     18  O   UNL     1     102.984 129.102 140.176  0.00  0.00    +0.000 OA
ATOM     19  C   UNL     1     102.345 129.183 139.661  0.00  0.00    +0.000 C 
ENDBRANCH  15  18
BRANCH  17  20
ATOM     20  O   UNL     1     103.805 128.513 141.480  0.00  0.00    +0.000 OA
ATOM     21  C   UNL     1     104.624 128.479 141.575  0.00  0.00    +0.000 C 
ENDBRANCH  17  20
ENDBRANCH   2  12
BRANCH   7  22
ATOM     22  O   UNL     1     103.457 133.515 141.075  0.00  0.00    +0.000 OA
ATOM     23  C   UNL     1     103.648 133.687 140.291  0.00  0.00    +0.000 C 
ENDBRANCH   7  22
BRANCH   9  24
ATOM     24  O   UNL     1     102.668 135.006 141.176  0.00  0.00    +0.000 OA
ATOM     25  C   UNL     1     102.372 135.736 141.421  0.00  0.00    +0.000 C 
ENDBRANCH   9  24
TORSDOF 5
ENDMDL
MODEL 2
REMARK VINA RESULT:      -7.4     11.447     13.072
REMARK  Name = 75072281
REMARK  5 active torsions:
REMARK  status: ('A' for Active; 'I' for Inactive)
REMARK    1  A    between atoms: O_2  and  C_13
REMARK    2  A    between atoms: O_3  and  C_17
REMARK    3  A    between atoms: O_4  and  C_19
REMARK    4  A    between atoms: O_5  and  C_21
REMARK    5  A    between atoms: C_7  and  C_12
REMARK                            x       y       z     vdW  Elec       q    Type
REMARK                         _______ _______ _______ _____ _____    ______ ____
ROOT
ATOM      1  O   UNL     1     112.755 126.497 136.736  0.00  0.00    +0.000 OA
ATOM      2  C   UNL     1     113.382 127.024 136.632  0.00  0.00    +0.000 C 
ATOM      3  C   UNL     1     114.149 126.737 136.530  0.00  0.00    +0.000 C 
ATOM      4  C   UNL     1     114.289 125.923 136.532  0.00  0.00    +0.000 C 
ATOM      5  C   UNL     1     113.662 125.398 136.636  0.00  0.00    +0.000 A 
ATOM      6  C   UNL     1     112.895 125.685 136.738  0.00  0.00    +0.000 A 
ATOM      7  C   UNL     1     112.233 125.147 136.847  0.00  0.00    +0.000 A 
ATOM      8  C   UNL     1     113.820 124.553 136.636  0.00  0.00    +0.000 A 
ATOM      9  C   UNL     1     112.373 124.299 136.850  0.00  0.00    +0.000 A 
ATOM     10  C   UNL     1     113.172 124.000 136.744  0.00  0.00    +0.000 A 
ENDROOT
BRANCH   2  12
ATOM     11  O   UNL     1     113.143 129.497 138.045  0.00  0.00    +0.000 OA
ATOM     12  C   UNL     1     113.243 127.837 136.631  0.00  0.00    +0.000 A 
ATOM     13  C   UNL     1     113.083 128.227 135.921  0.00  0.00    +0.000 A 
ATOM     14  C   UNL     1     113.263 128.260 137.338  0.00  0.00    +0.000 A 
ATOM     15  C   UNL     1     112.944 129.040 135.919  0.00  0.00    +0.000 A 
ATOM     16  C   UNL     1     113.123 129.074 137.337  0.00  0.00    +0.000 A 
ATOM     17  C   UNL     1     112.964 129.463 136.627  0.00  0.00    +0.000 A 
BRANCH  15  18
ATOM     18  O   UNL     1     112.785 129.430 135.210  0.00  0.00    +0.000 OA
ATOM     19  C   UNL     1     112.363 129.046 134.614  0.00  0.00    +0.000 C 
ENDBRANCH  15  18
BRANCH  17  20
ATOM     20  O   UNL     1     112.824 130.277 136.626  0.00  0.00    +0.000 OA
ATOM     21  C   UNL     1     113.433 130.799 136.819  0.00  0.00    +0.000 C 
ENDBRANCH  17  20
ENDBRANCH   2  12
BRANCH   7  22
ATOM     22  O   UNL     1     111.470 125.443 136.949  0.00  0.00    +0.000 OA
ATOM     23  C   UNL     1     110.912 125.357 136.348  0.00  0.00    +0.000 C 
ENDBRANCH   7  22
BRANCH   9  24
ATOM     24  O   UNL     1     111.744 123.775 136.954  0.00  0.00    +0.000 OA
ATOM     25  C   UNL     1     111.891 122.991 137.163  0.00  0.00    +0.000 C 
ENDBRANCH   9  24
TORSDOF 5
ENDMDL
MODEL 3
REMARK VINA RESULT:      -7.3      9.006     10.185
REMARK  Name = 75072281
REMARK  5 active torsions:
REMARK  status: ('A' for Active; 'I' for Inactive)
REMARK    1  A    between atoms: O_2  and  C_13
REMARK    2  A    between atoms: O_3  and  C_17
REMARK    3  A    between atoms: O_4  and  C_19
REMARK    4  A    between atoms: O_5  and  C_21
REMARK    5  A    between atoms: C_7  and  C_12
REMARK                            x       y       z     vdW  Elec       q    Type
REMARK                         _______ _______ _______ _____ _____    ______ ____
ROOT
ATOM      1  O   UNL     1     104.791 124.448 147.520  0.00  0.00    +0.000 OA
ATOM      2  C   UNL     1     104.335 124.559 146.841  0.00  0.00    +0.000 C 
ATOM      3  C   UNL     1     104.672 124.896 146.168  0.00  0.00    +0.000 C 
ATOM      4  C   UNL     1     105.466 125.123 146.173  0.00  0.00    +0.000 C 
ATOM      5  C   UNL     1     105.921 125.012 146.852  0.00  0.00    +0.000 A 
ATOM      6  C   UNL     1     105.584 124.675 147.525  0.00  0.00    +0.000 A 
ATOM      7  C   UNL     1     106.049 124.554 148.238  0.00  0.00    +0.000 A 
ATOM      8  C   UNL     1     106.747 125.253 146.845  0.00  0.00    +0.000 A 
ATOM      9  C   UNL     1     106.875 124.789 148.250  0.00  0.00    +0.000 A 
ATOM     10  C   UNL     1     107.227 125.140 147.548  0.00  0.00    +0.000 A 
ENDROOT
BRANCH   2  12
ATOM     11  O   UNL     1     102.287 122.739 146.028  0.00  0.00    +0.000 OA
ATOM     12  C   UNL     1     103.542 124.332 146.836  0.00  0.00    +0.000 A 
ATOM     13  C   UNL     1     102.979 124.788 147.231  0.00  0.00    +0.000 A 
ATOM     14  C   UNL     1     103.311 123.649 146.435  0.00  0.00    +0.000 A 
ATOM     15  C   UNL     1     102.186 124.562 147.225  0.00  0.00    +0.000 A 
ATOM     16  C   UNL     1     102.517 123.422 146.429  0.00  0.00    +0.000 A 
ATOM     17  C   UNL     1     101.956 123.879 146.824  0.00  0.00    +0.000 A 
BRANCH  15  18
ATOM     18  O   UNL     1     101.623 125.017 147.621  0.00  0.00    +0.000 OA
ATOM     19  C   UNL     1     101.865 125.605 148.147  0.00  0.00    +0.000 C 
ENDBRANCH  15  18
BRANCH  17  20
ATOM     20  O   UNL     1     101.162 123.651 146.819  0.00  0.00    +0.000 OA
ATOM     21  C   UNL     1     100.937 122.933 147.155  0.00  0.00    +0.000 C 
ENDBRANCH  17  20
ENDBRANCH   2  12
BRANCH   7  22
ATOM     22  O   UNL     1     105.703 124.216 148.907  0.00  0.00    +0.000 OA
ATOM     23  C   UNL     1     105.568 124.677 149.577  0.00  0.00    +0.000 C 
ENDBRANCH   7  22
BRANCH   9  24
ATOM     24  O   UNL     1     107.329 124.677 148.930  0.00  0.00    +0.000 OA
ATOM     25  C   UNL     1     108.151 124.636 148.875  0.00  0.00    +0.000 C 
ENDBRANCH   9  24
TORSDOF 5
ENDMDL
MODEL 4
REMARK VINA RESULT:      -7.3      7.945      9.696
REMARK  Name = 75072281
REMARK  5 active torsions:
REMARK  status: ('A' for Active; 'I' for Inactive)
REMARK    1  A    between atoms: O_2  and  C_13
REMARK    2  A    between atoms: O_3  and  C_17
REMARK    3  A    between atoms: O_4  and  C_19
REMARK    4  A    between atoms: O_5  and  C_21
REMARK    5  A    between atoms: C_7  and  C_12
REMARK                            x       y       z     vdW  Elec       q    Type
REMARK                         _______ _______ _______ _____ _____    ______ ____
ROOT
ATOM      1  O   UNL     1     103.611 124.371 146.728  0.00  0.00    +0.000 OA
ATOM      2  C   UNL     1     103.817 124.791 147.408  0.00  0.00    +0.000 C 
ATOM      3  C   UNL     1     103.241 124.973 147.970  0.00  0.00    +0.000 C 
ATOM      4  C   UNL     1     102.459 124.735 147.851  0.00  0.00    +0.000 C 
ATOM      5  C   UNL     1     102.255 124.315 147.171  0.00  0.00    +0.000 A 
ATOM      6  C   UNL     1     102.831 124.133 146.609  0.00  0.00    +0.000 A 
ATOM      7  C   UNL     1     102.629 123.697 145.897  0.00  0.00    +0.000 A 
ATOM      8  C   UNL     1     101.437 124.073 147.059  0.00  0.00    +0.000 A 
ATOM      9  C   UNL     1     101.818 123.447 145.768  0.00  0.00    +0.000 A 
ATOM     10  C   UNL     1     101.217 123.636 146.354  0.00  0.00    +0.000 A 
ENDROOT
BRANCH   2  12
ATOM     11  O   UNL     1     106.400 124.328 148.540  0.00  0.00    +0.000 OA
ATOM     12  C   UNL     1     104.597 125.028 147.526  0.00  0.00    +0.000 A 
ATOM     13  C   UNL     1     104.869 125.735 147.197  0.00  0.00    +0.000 A 
ATOM     14  C   UNL     1     105.108 124.560 147.974  0.00  0.00    +0.000 A 
ATOM     15  C   UNL     1     105.649 125.972 147.315  0.00  0.00    +0.000 A 
ATOM     16  C   UNL     1     105.889 124.797 148.093  0.00  0.00    +0.000 A 
ATOM     17  C   UNL     1     106.159 125.504 147.763  0.00  0.00    +0.000 A 
BRANCH  15  18
ATOM     18  O   UNL     1     105.921 126.679 146.986  0.00  0.00    +0.000 OA
ATOM     19  C   UNL     1     105.381 127.254 146.743  0.00  0.00    +0.000 C 
ENDBRANCH  15  18
BRANCH  17  20
ATOM     20  O   UNL     1     106.941 125.741 147.882  0.00  0.00    +0.000 OA
ATOM     21  C   UNL     1     107.558 125.310 147.545  0.00  0.00    +0.000 C 
ENDBRANCH  17  20
ENDBRANCH   2  12
BRANCH   7  22
ATOM     22  O   UNL     1     103.212 123.520 145.340  0.00  0.00    +0.000 OA
ATOM     23  C   UNL     1     103.483 122.744 145.261  0.00  0.00    +0.000 C 
ENDBRANCH   7  22
BRANCH   9  24
ATOM     24  O   UNL     1     101.615 123.027 145.087  0.00  0.00    +0.000 OA
ATOM     25  C   UNL     1     100.822 122.891 144.907  0.00  0.00    +0.000 C 
ENDBRANCH   9  24
TORSDOF 5
ENDMDL
MODEL 5
REMARK VINA RESULT:      -7.2      8.633     11.171
REMARK  Name = 75072281
REMARK  5 active torsions:
REMARK  status: ('A' for Active; 'I' for Inactive)
REMARK    1  A    between atoms: O_2  and  C_13
REMARK    2  A    between atoms: O_3  and  C_17
REMARK    3  A    between atoms: O_4  and  C_19
REMARK    4  A    between atoms: O_5  and  C_21
REMARK    5  A    between atoms: C_7  and  C_12
REMARK                            x       y       z     vdW  Elec       q    Type
REMARK                         _______ _______ _______ _____ _____    ______ ____
ROOT
ATOM      1  O   UNL     1     110.318 127.122 136.208  0.00  0.00    +0.000 OA
ATOM      2  C   UNL     1     110.050 127.556 135.560  0.00  0.00    +0.000 C 
ATOM      3  C   UNL     1     110.049 127.215 134.808  0.00  0.00    +0.000 C 
ATOM      4  C   UNL     1     110.316 126.441 134.706  0.00  0.00    +0.000 C 
ATOM      5  C   UNL     1     110.583 126.008 135.355  0.00  0.00    +0.000 A 
ATOM      6  C   UNL     1     110.584 126.349 136.106  0.00  0.00    +0.000 A 
ATOM      7  C   UNL     1     110.861 125.907 136.790  0.00  0.00    +0.000 A 
ATOM      8  C   UNL     1     110.859 125.202 135.236  0.00  0.00    +0.000 A 
ATOM      9  C   UNL     1     111.140 125.101 136.690  0.00  0.00    +0.000 A 
ATOM     10  C   UNL     1     111.139 124.746 135.907  0.00  0.00    +0.000 A 
ENDROOT
BRANCH   2  12
ATOM     11  O   UNL     1     107.899 129.410 135.882  0.00  0.00    +0.000 OA
ATOM     12  C   UNL     1     109.784 128.329 135.662  0.00  0.00    +0.000 A 
ATOM     13  C   UNL     1     110.325 128.951 135.705  0.00  0.00    +0.000 A 
ATOM     14  C   UNL     1     108.975 128.482 135.721  0.00  0.00    +0.000 A 
ATOM     15  C   UNL     1     110.058 129.724 135.807  0.00  0.00    +0.000 A 
ATOM     16  C   UNL     1     108.708 129.257 135.823  0.00  0.00    +0.000 A 
ATOM     17  C   UNL     1     109.250 129.877 135.866  0.00  0.00    +0.000 A 
BRANCH  15  18
ATOM     18  O   UNL     1     110.600 130.345 135.851  0.00  0.00    +0.000 OA
ATOM     19  C   UNL     1     111.360 130.210 136.140  0.00  0.00    +0.000 C 
ENDBRANCH  15  18
BRANCH  17  20
ATOM     20  O   UNL     1     108.983 130.652 135.968  0.00  0.00    +0.000 OA
ATOM     21  C   UNL     1     108.631 131.052 135.339  0.00  0.00    +0.000 C 
ENDBRANCH  17  20
ENDBRANCH   2  12
BRANCH   7  22
ATOM     22  O   UNL     1     110.858 126.256 137.538  0.00  0.00    +0.000 OA
ATOM     23  C   UNL     1     110.315 126.008 138.106  0.00  0.00    +0.000 C 
ENDBRANCH   7  22
BRANCH   9  24
ATOM     24  O   UNL     1     111.407 124.670 137.341  0.00  0.00    +0.000 OA
ATOM     25  C   UNL     1     111.813 123.960 137.227  0.00  0.00    +0.000 C 
ENDBRANCH   9  24
TORSDOF 5
ENDMDL
MODEL 6
REMARK VINA RESULT:      -7.1      9.187     12.104
REMARK  Name = 75072281
REMARK  5 active torsions:
REMARK  status: ('A' for Active; 'I' for Inactive)
REMARK    1  A    between atoms: O_2  and  C_13
REMARK    2  A    between atoms: O_3  and  C_17
REMARK    3  A    between atoms: O_4  and  C_19
REMARK    4  A    between atoms: O_5  and  C_21
REMARK    5  A    between atoms: C_7  and  C_12
REMARK                            x       y       z     vdW  Elec       q    Type
REMARK                         _______ _______ _______ _____ _____    ______ ____
ROOT
ATOM      1  O   UNL     1     111.574 126.177 136.425  0.00  0.00    +0.000 OA
ATOM      2  C   UNL     1     110.895 126.045 135.974  0.00  0.00    +0.000 C 
ATOM      3  C   UNL     1     110.743 125.293 135.669  0.00  0.00    +0.000 C 
ATOM      4  C   UNL     1     111.270 124.674 135.815  0.00  0.00    +0.000 C 
ATOM      5  C   UNL     1     111.948 124.808 136.265  0.00  0.00    +0.000 A 
ATOM      6  C   UNL     1     112.100 125.559 136.570  0.00  0.00    +0.000 A 
ATOM      7  C   UNL     1     112.804 125.710 137.041  0.00  0.00    +0.000 A 
ATOM      8  C   UNL     1     112.489 124.155 136.410  0.00  0.00    +0.000 A 
ATOM      9  C   UNL     1     113.355 125.070 137.195  0.00  0.00    +0.000 A 
ATOM     10  C   UNL     1     113.197 124.287 136.877  0.00  0.00    +0.000 A 
ENDROOT
BRANCH   2  12
ATOM     11  O   UNL     1     108.326 127.243 136.333  0.00  0.00    +0.000 OA
ATOM     12  C   UNL     1     110.369 126.662 135.829  0.00  0.00    +0.000 A 
ATOM     13  C   UNL     1     110.600 127.300 135.359  0.00  0.00    +0.000 A 
ATOM     14  C   UNL     1     109.611 126.643 136.154  0.00  0.00    +0.000 A 
ATOM     15  C   UNL     1     110.074 127.918 135.213  0.00  0.00    +0.000 A 
ATOM     16  C   UNL     1     109.084 127.262 136.009  0.00  0.00    +0.000 A 
ATOM     17  C   UNL     1     109.316 127.899 135.538  0.00  0.00    +0.000 A 
BRANCH  15  18
ATOM     18  O   UNL     1     110.305 128.555 134.743  0.00  0.00    +0.000 OA
ATOM     19  C   UNL     1     111.107 128.702 134.613  0.00  0.00    +0.000 C 
ENDBRANCH  15  18
BRANCH  17  20
ATOM     20  O   UNL     1     108.789 128.518 135.393  0.00  0.00    +0.000 OA
ATOM     21  C   UNL     1     108.625 129.067 135.986  0.00  0.00    +0.000 C 
ENDBRANCH  17  20
ENDBRANCH   2  12
BRANCH   7  22
ATOM     22  O   UNL     1     112.947 126.465 137.341  0.00  0.00    +0.000 OA
ATOM     23  C   UNL     1     112.890 126.602 138.153  0.00  0.00    +0.000 C 
ENDBRANCH   7  22
BRANCH   9  24
ATOM     24  O   UNL     1     114.033 125.206 137.646  0.00  0.00    +0.000 OA
ATOM     25  C   UNL     1     114.699 124.731 137.542  0.00  0.00    +0.000 C 
ENDBRANCH   9  24
TORSDOF 5
ENDMDL
MODEL 7
REMARK VINA RESULT:      -7.1     11.574     12.980
REMARK  Name = 75072281
REMARK  5 active torsions:
REMARK  status: ('A' for Active; 'I' for Inactive)
REMARK    1  A    between atoms: O_2  and  C_13
REMARK    2  A    between atoms: O_3  and  C_17
REMARK    3  A    between atoms: O_4  and  C_19
REMARK    4  A    between atoms: O_5  and  C_21
REMARK    5  A    between atoms: C_7  and  C_12
REMARK                            x       y       z     vdW  Elec       q    Type
REMARK                         _______ _______ _______ _____ _____    ______ ____
ROOT
ATOM      1  O   UNL     1     112.818 126.887 136.510  0.00  0.00    +0.000 OA
ATOM      2  C   UNL     1     112.522 127.606 136.235  0.00  0.00    +0.000 C 
ATOM      3  C   UNL     1     111.800 127.629 135.836  0.00  0.00    +0.000 C 
ATOM      4  C   UNL     1     111.374 126.932 135.713  0.00  0.00    +0.000 C 
ATOM      5  C   UNL     1     111.671 126.214 135.989  0.00  0.00    +0.000 A 
ATOM      6  C   UNL     1     112.393 126.191 136.388  0.00  0.00    +0.000 A 
ATOM      7  C   UNL     1     112.712 125.448 136.679  0.00  0.00    +0.000 A 
ATOM      8  C   UNL     1     111.219 125.495 135.855  0.00  0.00    +0.000 A 
ATOM      9  C   UNL     1     112.274 124.720 136.554  0.00  0.00    +0.000 A 
ATOM     10  C   UNL     1     111.521 124.744 136.139  0.00  0.00    +0.000 A 
ENDROOT
BRANCH   2  12
ATOM     11  O   UNL     1     113.196 129.834 137.893  0.00  0.00    +0.000 OA
ATOM     12  C   UNL     1     112.946 128.302 136.358  0.00  0.00    +0.000 A 
ATOM     13  C   UNL     1     113.460 128.581 135.775  0.00  0.00    +0.000 A 
ATOM     14  C   UNL     1     112.858 128.720 137.064  0.00  0.00    +0.000 A 
ATOM     15  C   UNL     1     113.885 129.277 135.898  0.00  0.00    +0.000 A 
ATOM     16  C   UNL     1     113.284 129.417 137.187  0.00  0.00    +0.000 A 
ATOM     17  C   UNL     1     113.797 129.695 136.604  0.00  0.00    +0.000 A 
BRANCH  15  18
ATOM     18  O   UNL     1     114.398 129.556 135.315  0.00  0.00    +0.000 OA
ATOM     19  C   UNL     1     114.752 129.027 134.791  0.00  0.00    +0.000 C 
ENDBRANCH  15  18
BRANCH  17  20
ATOM     20  O   UNL     1     114.222 130.391 136.727  0.00  0.00    +0.000 OA
ATOM     21  C   UNL     1     113.826 131.114 136.770  0.00  0.00    +0.000 C 
ENDBRANCH  17  20
ENDBRANCH   2  12
BRANCH   7  22
ATOM     22  O   UNL     1     113.435 125.436 137.077  0.00  0.00    +0.000 OA
ATOM     23  C   UNL     1     114.096 125.097 136.718  0.00  0.00    +0.000 C 
ENDBRANCH   7  22
BRANCH   9  24
ATOM     24  O   UNL     1     112.573 124.003 136.831  0.00  0.00    +0.000 OA
ATOM     25  C   UNL     1     112.067 123.361 136.942  0.00  0.00    +0.000 C 
ENDBRANCH   9  24
TORSDOF 5
ENDMDL
MODEL 8
REMARK VINA RESULT:      -7.0     10.230     11.924
REMARK  Name = 75072281
REMARK  5 active torsions:
REMARK  status: ('A' for Active; 'I' for Inactive)
REMARK    1  A    between atoms: O_2  and  C_13
REMARK    2  A    between atoms: O_3  and  C_17
REMARK    3  A    between atoms: O_4  and  C_19
REMARK    4  A    between atoms: O_5  and  C_21
REMARK    5  A    between atoms: C_7  and  C_12
REMARK                            x       y       z     vdW  Elec       q    Type
REMARK                         _______ _______ _______ _____ _____    ______ ____
ROOT
ATOM      1  O   UNL     1     112.533 127.316 137.191  0.00  0.00    +0.000 OA
ATOM      2  C   UNL     1     112.893 126.829 136.631  0.00  0.00    +0.000 C 
ATOM      3  C   UNL     1     113.461 127.140 136.119  0.00  0.00    +0.000 C 
ATOM      4  C   UNL     1     113.668 127.938 136.168  0.00  0.00    +0.000 C 
ATOM      5  C   UNL     1     113.307 128.423 136.728  0.00  0.00    +0.000 A 
ATOM      6  C   UNL     1     112.739 128.113 137.239  0.00  0.00    +0.000 A 
ATOM      7  C   UNL     1     112.356 128.609 137.827  0.00  0.00    +0.000 A 
ATOM      8  C   UNL     1     113.531 129.252 136.769  0.00  0.00    +0.000 A 
ATOM      9  C   UNL     1     112.567 129.440 137.883  0.00  0.00    +0.000 A 
ATOM     10  C   UNL     1     113.159 129.764 137.350  0.00  0.00    +0.000 A 
ENDROOT
BRANCH   2  12
ATOM     11  O   UNL     1     113.511 124.079 137.103  0.00  0.00    +0.000 OA
ATOM     12  C   UNL     1     112.687 126.032 136.582  0.00  0.00    +0.000 A 
ATOM     13  C   UNL     1     111.965 125.812 136.248  0.00  0.00    +0.000 A 
ATOM     14  C   UNL     1     113.202 125.455 136.867  0.00  0.00    +0.000 A 
ATOM     15  C   UNL     1     111.758 125.016 136.199  0.00  0.00    +0.000 A 
ATOM     16  C   UNL     1     112.995 124.657 136.818  0.00  0.00    +0.000 A 
ATOM     17  C   UNL     1     112.274 124.438 136.484  0.00  0.00    +0.000 A 
BRANCH  15  18
ATOM     18  O   UNL     1     111.036 124.796 135.865  0.00  0.00    +0.000 OA
ATOM     19  C   UNL     1     110.597 125.345 135.435  0.00  0.00    +0.000 C 
ENDBRANCH  15  18
BRANCH  17  20
ATOM     20  O   UNL     1     112.067 123.640 136.435  0.00  0.00    +0.000 OA
ATOM     21  C   UNL     1     111.925 123.209 137.124  0.00  0.00    +0.000 C 
ENDBRANCH  17  20
ENDBRANCH   2  12
BRANCH   7  22
ATOM     22  O   UNL     1     111.789 128.289 138.335  0.00  0.00    +0.000 OA
ATOM     23  C   UNL     1     111.963 128.188 139.135  0.00  0.00    +0.000 C 
ENDBRANCH   7  22
BRANCH   9  24
ATOM     24  O   UNL     1     112.205 129.924 138.444  0.00  0.00    +0.000 OA
ATOM     25  C   UNL     1     112.230 130.744 138.359  0.00  0.00    +0.000 C 
ENDBRANCH   9  24
TORSDOF 5
ENDMDL
MODEL 9
REMARK VINA RESULT:      -6.9      9.953     11.756
REMARK  Name = 75072281
REMARK  5 active torsions:
REMARK  status: ('A' for Active; 'I' for Inactive)
REMARK    1  A    between atoms: O_2  and  C_13
REMARK    2  A    between atoms: O_3  and  C_17
REMARK    3  A    between atoms: O_4  and  C_19
REMARK    4  A    between atoms: O_5  and  C_21
REMARK    5  A    between atoms: C_7  and  C_12
REMARK                            x       y       z     vdW  Elec       q    Type
REMARK                         _______ _______ _______ _____ _____    ______ ____
ROOT
ATOM      1  O   UNL     1     112.150 126.424 138.893  0.00  0.00    +0.000 OA
ATOM      2  C   UNL     1     112.617 126.148 138.272  0.00  0.00    +0.000 C 
ATOM      3  C   UNL     1     113.438 126.131 138.351  0.00  0.00    +0.000 C 
ATOM      4  C   UNL     1     113.792 126.391 139.050  0.00  0.00    +0.000 C 
ATOM      5  C   UNL     1     113.323 126.666 139.671  0.00  0.00    +0.000 A 
ATOM      6  C   UNL     1     112.502 126.683 139.592  0.00  0.00    +0.000 A 
ATOM      7  C   UNL     1     112.003 126.968 140.232  0.00  0.00    +0.000 A 
ATOM      8  C   UNL     1     113.702 126.934 140.394  0.00  0.00    +0.000 A 
ATOM      9  C   UNL     1     112.365 127.240 140.962  0.00  0.00    +0.000 A 
ATOM     10  C   UNL     1     113.221 127.222 141.044  0.00  0.00    +0.000 A 
ENDROOT
BRANCH   2  12
ATOM     11  O   UNL     1     111.543 126.713 135.684  0.00  0.00    +0.000 OA
ATOM     12  C   UNL     1     112.265 125.889 137.573  0.00  0.00    +0.000 A 
ATOM     13  C   UNL     1     112.096 125.088 137.468  0.00  0.00    +0.000 A 
ATOM     14  C   UNL     1     112.081 126.430 136.979  0.00  0.00    +0.000 A 
ATOM     15  C   UNL     1     111.744 124.829 136.769  0.00  0.00    +0.000 A 
ATOM     16  C   UNL     1     111.728 126.171 136.279  0.00  0.00    +0.000 A 
ATOM     17  C   UNL     1     111.560 125.370 136.175  0.00  0.00    +0.000 A 
BRANCH  15  18
ATOM     18  O   UNL     1     111.575 124.028 136.663  0.00  0.00    +0.000 OA
ATOM     19  C   UNL     1     111.973 123.461 137.111  0.00  0.00    +0.000 C 
ENDBRANCH  15  18
BRANCH  17  20
ATOM     20  O   UNL     1     111.207 125.111 135.475  0.00  0.00    +0.000 OA
ATOM     21  C   UNL     1     110.454 125.379 135.269  0.00  0.00    +0.000 C 
ENDBRANCH  17  20
ENDBRANCH   2  12
BRANCH   7  22
ATOM     22  O   UNL     1     111.183 126.981 140.144  0.00  0.00    +0.000 OA
ATOM     23  C   UNL     1     110.713 126.475 140.594  0.00  0.00    +0.000 C 
ENDBRANCH   7  22
BRANCH   9  24
ATOM     24  O   UNL     1     111.894 127.515 141.581  0.00  0.00    +0.000 OA
ATOM     25  C   UNL     1     112.209 128.036 142.138  0.00  0.00    +0.000 C 
ENDBRANCH   9  24
TORSDOF 5
ENDMDL
MODEL 10
REMARK VINA RESULT:      -6.9      9.268     11.654
REMARK  Name = 75072281
REMARK  5 active torsions:
REMARK  status: ('A' for Active; 'I' for Inactive)
REMARK    1  A    between atoms: O_2  and  C_13
REMARK    2  A    between atoms: O_3  and  C_17
REMARK    3  A    between atoms: O_4  and  C_19
REMARK    4  A    between atoms: O_5  and  C_21
REMARK    5  A    between atoms: C_7  and  C_12
REMARK                            x       y       z     vdW  Elec       q    Type
REMARK                         _______ _______ _______ _____ _____    ______ ____
ROOT
ATOM      1  O   UNL     1     110.983 126.325 136.397  0.00  0.00    +0.000 OA
ATOM      2  C   UNL     1     111.266 125.651 136.014  0.00  0.00    +0.000 C 
ATOM      3  C   UNL     1     110.849 125.334 135.377  0.00  0.00    +0.000 C 
ATOM      4  C   UNL     1     110.149 125.690 135.122  0.00  0.00    +0.000 C 
ATOM      5  C   UNL     1     109.868 126.364 135.506  0.00  0.00    +0.000 A 
ATOM      6  C   UNL     1     110.285 126.682 136.143  0.00  0.00    +0.000 A 
ATOM      7  C   UNL     1     110.001 127.384 136.550  0.00  0.00    +0.000 A 
ATOM      8  C   UNL     1     109.138 126.727 135.231  0.00  0.00    +0.000 A 
ATOM      9  C   UNL     1     109.273 127.759 136.289  0.00  0.00    +0.000 A 
ATOM     10  C   UNL     1     108.839 127.429 135.625  0.00  0.00    +0.000 A 
ENDROOT
BRANCH   2  12
ATOM     11  O   UNL     1     114.107 125.713 136.318  0.00  0.00    +0.000 OA
ATOM     12  C   UNL     1     111.965 125.295 136.268  0.00  0.00    +0.000 A 
ATOM     13  C   UNL     1     111.943 124.551 136.624  0.00  0.00    +0.000 A 
ATOM     14  C   UNL     1     112.686 125.682 136.166  0.00  0.00    +0.000 A 
ATOM     15  C   UNL     1     112.642 124.194 136.878  0.00  0.00    +0.000 A 
ATOM     16  C   UNL     1     113.386 125.325 136.420  0.00  0.00    +0.000 A 
ATOM     17  C   UNL     1     113.363 124.582 136.776  0.00  0.00    +0.000 A 
BRANCH  15  18
ATOM     18  O   UNL     1     112.621 123.450 137.234  0.00  0.00    +0.000 OA
ATOM     19  C   UNL     1     111.913 123.027 137.262  0.00  0.00    +0.000 C 
ENDBRANCH  15  18
BRANCH  17  20
ATOM     20  O   UNL     1     114.063 124.225 137.030  0.00  0.00    +0.000 OA
ATOM     21  C   UNL     1     114.585 124.641 137.515  0.00  0.00    +0.000 C 
ENDBRANCH  17  20
ENDBRANCH   2  12
BRANCH   7  22
ATOM     22  O   UNL     1     110.424 127.694 137.186  0.00  0.00    +0.000 OA
ATOM     23  C   UNL     1     110.122 127.632 137.951  0.00  0.00    +0.000 C 
ENDBRANCH   7  22
BRANCH   9  24
ATOM     24  O   UNL     1     108.993 128.433 136.674  0.00  0.00    +0.000 OA
ATOM     25  C   UNL     1     108.632 129.035 136.241  0.00  0.00    +0.000 C 
ENDBRANCH   9  24
TORSDOF 5
ENDMDL
