MODEL 1
REMARK VINA RESULT:     -11.3      0.000      0.000
REMARK  Name = 131752282
REMARK  13 active torsions:
REMARK  status: ('A' for Active; 'I' for Inactive)
REMARK    1  A    between atoms: O_1  and  C_23
REMARK    2  A    between atoms: O_1  and  C_28
REMARK    3  A    between atoms: O_10  and  C_35
REMARK    4  A    between atoms: O_10  and  C_50
REMARK    5  A    between atoms: O_15  and  C_45
REMARK    6  A    between atoms: O_15  and  C_52
REMARK    7  A    between atoms: C_25  and  C_33
REMARK    8  A    between atoms: C_27  and  C_34
REMARK    9  A    between atoms: C_32  and  C_35
REMARK   10  A    between atoms: C_44  and  C_47
REMARK   11  A    between atoms: C_48  and  C_51
REMARK   12  A    between atoms: C_50  and  C_57
REMARK   13  A    between atoms: C_58  and  C_59
REMARK                            x       y       z     vdW  Elec       q    Type
REMARK                         _______ _______ _______ _____ _____    ______ ____
ROOT
ATOM      1  O   UNL     1     113.119 129.581 136.723  0.00  0.00    +0.000 OA
ATOM      2  O   UNL     1     111.259 129.453 135.096  0.00  0.00    +0.000 OA
ATOM      3  O   UNL     1     112.803 129.128 134.612  0.00  0.00    +0.000 OA
ATOM      4  C   UNL     1     111.728 129.701 136.423  0.00  0.00    +0.000 C 
ATOM      5  C   UNL     1     111.879 129.496 135.638  0.00  0.00    +0.000 C 
ATOM      6  C   UNL     1     112.347 129.743 136.965  0.00  0.00    +0.000 C 
ATOM      7  C   UNL     1     112.651 129.333 135.396  0.00  0.00    +0.000 C 
ATOM      8  C   UNL     1     113.271 129.376 135.939  0.00  0.00    +0.000 C 
ENDROOT
BRANCH   6  13
ATOM      9  O   UNL     1     112.305 128.576 138.131  0.00  0.00    +0.000 OA
ATOM     10  O   UNL     1     112.088 131.321 137.369  0.00  0.00    +0.000 OA
ATOM     11  O   UNL     1     111.736 130.587 140.133  0.00  0.00    +0.000 OA
ATOM     12  O   UNL     1     112.136 128.167 139.504  0.00  0.00    +0.000 OA
ATOM     13  C   UNL     1     112.196 129.949 137.750  0.00  0.00    +0.000 A 
ATOM     14  C   UNL     1     112.175 129.366 138.333  0.00  0.00    +0.000 A 
ATOM     15  C   UNL     1     112.066 130.738 137.952  0.00  0.00    +0.000 A 
ATOM     16  C   UNL     1     112.024 129.571 139.117  0.00  0.00    +0.000 A 
ATOM     17  C   UNL     1     111.915 130.943 138.736  0.00  0.00    +0.000 A 
ATOM     18  C   UNL     1     111.894 130.360 139.319  0.00  0.00    +0.000 A 
ATOM     19  C   UNL     1     112.005 128.954 139.715  0.00  0.00    +0.000 A 
ATOM     20  C   UNL     1     111.712 129.984 140.745  0.00  0.00    +0.000 A 
ATOM     21  C   UNL     1     111.848 129.162 140.534  0.00  0.00    +0.000 A 
BRANCH  20  22
ATOM     22  C   UNL     1     111.561 130.192 141.527  0.00  0.00    +0.000 A 
ATOM     23  C   UNL     1     111.259 130.610 143.095  0.00  0.00    +0.000 A 
ATOM     24  C   UNL     1     110.833 130.520 141.734  0.00  0.00    +0.000 A 
ATOM     25  C   UNL     1     112.138 130.074 142.106  0.00  0.00    +0.000 A 
ATOM     26  C   UNL     1     110.681 130.729 142.518  0.00  0.00    +0.000 A 
ATOM     27  C   UNL     1     111.987 130.282 142.889  0.00  0.00    +0.000 A 
BRANCH  23  28
ATOM     28  O   UNL     1     111.108 130.819 143.879  0.00  0.00    +0.000 OA
BRANCH  28  37
ATOM     29  O   UNL     1     111.660 132.136 143.836  0.00  0.00    +0.000 OA
ATOM     30  O   UNL     1     112.602 131.814 146.103  0.00  0.00    +0.000 OA
ATOM     31  O   UNL     1     112.841 133.238 145.305  0.00  0.00    +0.000 OA
ATOM     32  O   UNL     1     111.736 130.604 145.390  0.00  0.00    +0.000 OA
ATOM     33  C   UNL     1     112.288 131.921 145.348  0.00  0.00    +0.000 C 
ATOM     34  C   UNL     1     112.407 132.633 144.949  0.00  0.00    +0.000 C 
ATOM     35  C   UNL     1     111.855 131.316 144.991  0.00  0.00    +0.000 C 
ATOM     36  C   UNL     1     112.093 132.741 144.193  0.00  0.00    +0.000 C 
ATOM     37  C   UNL     1     111.541 131.424 144.235  0.00  0.00    +0.000 C 
BRANCH  36  39
ATOM     38  O   UNL     1     111.567 133.869 143.491  0.00  0.00    +0.000 OA
ATOM     39  C   UNL     1     112.212 133.453 143.795  0.00  0.00    +0.000 C 
ENDBRANCH  36  39
ENDBRANCH  28  37
ENDBRANCH  23  28
ENDBRANCH  20  22
ENDBRANCH   6  13
BRANCH   8  41
ATOM     40  O   UNL     1     114.650 129.746 135.869  0.00  0.00    +0.000 OA
ATOM     41  C   UNL     1     114.043 129.213 135.697  0.00  0.00    +0.000 C 
ENDBRANCH   8  41
BRANCH   4  42
ATOM     42  O   UNL     1     110.956 129.864 136.665  0.00  0.00    +0.000 OA
BRANCH  42  47
ATOM     43  O   UNL     1     110.476 128.540 136.421  0.00  0.00    +0.000 OA
ATOM     44  O   UNL     1     109.461 130.470 136.319  0.00  0.00    +0.000 OA
ATOM     45  O   UNL     1     108.233 129.450 135.901  0.00  0.00    +0.000 OA
ATOM     46  O   UNL     1     108.501 127.823 135.829  0.00  0.00    +0.000 OA
ATOM     47  C   UNL     1     110.342 129.353 136.456  0.00  0.00    +0.000 C 
ATOM     48  C   UNL     1     109.595 129.656 136.283  0.00  0.00    +0.000 C 
ATOM     49  C   UNL     1     108.981 129.147 136.074  0.00  0.00    +0.000 C 
ATOM     50  C   UNL     1     109.115 128.333 136.038  0.00  0.00    +0.000 C 
ATOM     51  C   UNL     1     109.862 128.029 136.212  0.00  0.00    +0.000 C 
BRANCH  51  52
ATOM     52  C   UNL     1     109.995 127.217 136.176  0.00  0.00    +0.000 C 
BRANCH  52  53
ATOM     53  O   UNL     1     110.478 126.852 136.737  0.00  0.00    +0.000 OA
BRANCH  53  55
ATOM     54  O   UNL     1     110.181 125.479 136.476  0.00  0.00    +0.000 OA
ATOM     55  C   UNL     1     110.732 126.076 136.622  0.00  0.00    +0.000 C 
BRANCH  55  56
ATOM     56  C   UNL     1     111.536 125.896 136.652  0.00  0.00    +0.000 C 
ATOM     57  C   UNL     1     111.810 125.313 137.167  0.00  0.00    +0.000 C 
BRANCH  57  59
ATOM     58  O   UNL     1     115.027 124.589 137.288  0.00  0.00    +0.000 OA
ATOM     59  C   UNL     1     112.614 125.132 137.198  0.00  0.00    +0.000 A 
ATOM     60  C   UNL     1     113.138 125.644 137.576  0.00  0.00    +0.000 A 
ATOM     61  C   UNL     1     112.894 124.439 136.849  0.00  0.00    +0.000 A 
ATOM     62  C   UNL     1     113.942 125.463 137.606  0.00  0.00    +0.000 A 
ATOM     63  C   UNL     1     113.698 124.257 136.879  0.00  0.00    +0.000 A 
ATOM     64  C   UNL     1     114.222 124.770 137.258  0.00  0.00    +0.000 A 
ENDBRANCH  57  59
ENDBRANCH  55  56
ENDBRANCH  53  55
ENDBRANCH  52  53
ENDBRANCH  51  52
ENDBRANCH  42  47
ENDBRANCH   4  42
TORSDOF 13
ENDMDL
MODEL 2
REMARK VINA RESULT:     -10.9      5.630      7.752
REMARK  Name = 131752282
REMARK  13 active torsions:
REMARK  status: ('A' for Active; 'I' for Inactive)
REMARK    1  A    between atoms: O_1  and  C_23
REMARK    2  A    between atoms: O_1  and  C_28
REMARK    3  A    between atoms: O_10  and  C_35
REMARK    4  A    between atoms: O_10  and  C_50
REMARK    5  A    between atoms: O_15  and  C_45
REMARK    6  A    between atoms: O_15  and  C_52
REMARK    7  A    between atoms: C_25  and  C_33
REMARK    8  A    between atoms: C_27  and  C_34
REMARK    9  A    between atoms: C_32  and  C_35
REMARK   10  A    between atoms: C_44  and  C_47
REMARK   11  A    between atoms: C_48  and  C_51
REMARK   12  A    between atoms: C_50  and  C_57
REMARK   13  A    between atoms: C_58  and  C_59
REMARK                            x       y       z     vdW  Elec       q    Type
REMARK                         _______ _______ _______ _____ _____    ______ ____
ROOT
ATOM      1  O   UNL     1     105.228 129.095 142.273  0.00  0.00    +0.000 OA
ATOM      2  O   UNL     1     105.127 126.924 141.089  0.00  0.00    +0.000 OA
ATOM      3  O   UNL     1     103.766 127.845 141.241  0.00  0.00    +0.000 OA
ATOM      4  C   UNL     1     105.875 127.911 141.802  0.00  0.00    +0.000 C 
ATOM      5  C   UNL     1     105.161 127.647 141.483  0.00  0.00    +0.000 C 
ATOM      6  C   UNL     1     105.909 128.634 142.196  0.00  0.00    +0.000 C 
ATOM      7  C   UNL     1     104.480 128.108 141.559  0.00  0.00    +0.000 C 
ATOM      8  C   UNL     1     104.514 128.832 141.954  0.00  0.00    +0.000 C 
ENDROOT
BRANCH   6  13
ATOM      9  O   UNL     1     106.174 128.535 143.822  0.00  0.00    +0.000 OA
ATOM     10  O   UNL     1     107.070 129.261 141.208  0.00  0.00    +0.000 OA
ATOM     11  O   UNL     1     108.798 129.704 143.471  0.00  0.00    +0.000 OA
ATOM     12  O   UNL     1     107.008 128.741 144.981  0.00  0.00    +0.000 OA
ATOM     13  C   UNL     1     106.622 128.898 142.515  0.00  0.00    +0.000 A 
ATOM     14  C   UNL     1     106.755 128.849 143.327  0.00  0.00    +0.000 A 
ATOM     15  C   UNL     1     107.204 129.212 142.021  0.00  0.00    +0.000 A 
ATOM     16  C   UNL     1     107.469 129.112 143.645  0.00  0.00    +0.000 A 
ATOM     17  C   UNL     1     107.917 129.475 142.339  0.00  0.00    +0.000 A 
ATOM     18  C   UNL     1     108.050 129.426 143.151  0.00  0.00    +0.000 A 
ATOM     19  C   UNL     1     107.595 129.056 144.494  0.00  0.00    +0.000 A 
ATOM     20  C   UNL     1     108.942 129.655 144.317  0.00  0.00    +0.000 A 
ATOM     21  C   UNL     1     108.337 129.329 144.832  0.00  0.00    +0.000 A 
BRANCH  20  22
ATOM     22  C   UNL     1     109.657 129.920 144.631  0.00  0.00    +0.000 A 
ATOM     23  C   UNL     1     111.087 130.450 145.262  0.00  0.00    +0.000 A 
ATOM     24  C   UNL     1     110.359 129.527 144.449  0.00  0.00    +0.000 A 
ATOM     25  C   UNL     1     109.671 130.578 145.130  0.00  0.00    +0.000 A 
ATOM     26  C   UNL     1     111.075 129.792 144.764  0.00  0.00    +0.000 A 
ATOM     27  C   UNL     1     110.385 130.842 145.444  0.00  0.00    +0.000 A 
BRANCH  23  28
ATOM     28  O   UNL     1     111.802 130.715 145.577  0.00  0.00    +0.000 OA
BRANCH  28  37
ATOM     29  O   UNL     1     112.078 131.655 144.537  0.00  0.00    +0.000 OA
ATOM     30  O   UNL     1     113.152 133.160 146.183  0.00  0.00    +0.000 OA
ATOM     31  O   UNL     1     113.071 133.598 144.594  0.00  0.00    +0.000 OA
ATOM     32  O   UNL     1     112.518 131.718 146.675  0.00  0.00    +0.000 OA
ATOM     33  C   UNL     1     112.794 132.658 145.634  0.00  0.00    +0.000 C 
ATOM     34  C   UNL     1     112.754 132.877 144.840  0.00  0.00    +0.000 C 
ATOM     35  C   UNL     1     112.477 131.937 145.880  0.00  0.00    +0.000 C 
ATOM     36  C   UNL     1     112.395 132.375 144.292  0.00  0.00    +0.000 C 
ATOM     37  C   UNL     1     112.119 131.436 145.331  0.00  0.00    +0.000 C 
BRANCH  36  39
ATOM     38  O   UNL     1     112.680 132.105 142.917  0.00  0.00    +0.000 OA
ATOM     39  C   UNL     1     112.355 132.595 143.497  0.00  0.00    +0.000 C 
ENDBRANCH  36  39
ENDBRANCH  28  37
ENDBRANCH  23  28
ENDBRANCH  20  22
ENDBRANCH   6  13
BRANCH   8  41
ATOM     40  O   UNL     1     103.840 130.081 141.787  0.00  0.00    +0.000 OA
ATOM     41  C   UNL     1     103.834 129.293 142.030  0.00  0.00    +0.000 C 
ENDBRANCH   8  41
BRANCH   4  42
ATOM     42  O   UNL     1     106.555 127.451 141.726  0.00  0.00    +0.000 OA
BRANCH  42  47
ATOM     43  O   UNL     1     106.201 126.398 142.625  0.00  0.00    +0.000 OA
ATOM     44  O   UNL     1     107.169 126.342 140.670  0.00  0.00    +0.000 OA
ATOM     45  O   UNL     1     107.123 124.735 141.041  0.00  0.00    +0.000 OA
ATOM     46  O   UNL     1     106.462 124.237 142.469  0.00  0.00    +0.000 OA
ATOM     47  C   UNL     1     106.531 126.647 141.912  0.00  0.00    +0.000 C 
ATOM     48  C   UNL     1     106.839 126.093 141.384  0.00  0.00    +0.000 C 
ATOM     49  C   UNL     1     106.816 125.289 141.569  0.00  0.00    +0.000 C 
ATOM     50  C   UNL     1     106.485 125.040 142.284  0.00  0.00    +0.000 C 
ATOM     51  C   UNL     1     106.178 125.594 142.812  0.00  0.00    +0.000 C 
BRANCH  51  52
ATOM     52  C   UNL     1     105.848 125.345 143.525  0.00  0.00    +0.000 C 
BRANCH  52  53
ATOM     53  O   UNL     1     106.208 125.546 144.240  0.00  0.00    +0.000 OA
BRANCH  53  55
ATOM     54  O   UNL     1     105.002 125.500 145.003  0.00  0.00    +0.000 OA
ATOM     55  C   UNL     1     105.819 125.403 144.952  0.00  0.00    +0.000 C 
BRANCH  55  56
ATOM     56  C   UNL     1     106.248 125.163 145.616  0.00  0.00    +0.000 C 
ATOM     57  C   UNL     1     106.173 125.574 146.326  0.00  0.00    +0.000 C 
BRANCH  57  59
ATOM     58  O   UNL     1     107.888 124.616 148.978  0.00  0.00    +0.000 OA
ATOM     59  C   UNL     1     106.601 125.335 146.990  0.00  0.00    +0.000 A 
ATOM     60  C   UNL     1     106.241 124.872 147.569  0.00  0.00    +0.000 A 
ATOM     61  C   UNL     1     107.391 125.558 147.073  0.00  0.00    +0.000 A 
ATOM     62  C   UNL     1     106.669 124.633 148.231  0.00  0.00    +0.000 A 
ATOM     63  C   UNL     1     107.820 125.319 147.736  0.00  0.00    +0.000 A 
ATOM     64  C   UNL     1     107.459 124.856 148.315  0.00  0.00    +0.000 A 
ENDBRANCH  57  59
ENDBRANCH  55  56
ENDBRANCH  53  55
ENDBRANCH  52  53
ENDBRANCH  51  52
ENDBRANCH  42  47
ENDBRANCH   4  42
TORSDOF 13
ENDMDL
MODEL 3
REMARK VINA RESULT:     -10.9      3.198      4.280
REMARK  Name = 131752282
REMARK  13 active torsions:
REMARK  status: ('A' for Active; 'I' for Inactive)
REMARK    1  A    between atoms: O_1  and  C_23
REMARK    2  A    between atoms: O_1  and  C_28
REMARK    3  A    between atoms: O_10  and  C_35
REMARK    4  A    between atoms: O_10  and  C_50
REMARK    5  A    between atoms: O_15  and  C_45
REMARK    6  A    between atoms: O_15  and  C_52
REMARK    7  A    between atoms: C_25  and  C_33
REMARK    8  A    between atoms: C_27  and  C_34
REMARK    9  A    between atoms: C_32  and  C_35
REMARK   10  A    between atoms: C_44  and  C_47
REMARK   11  A    between atoms: C_48  and  C_51
REMARK   12  A    between atoms: C_50  and  C_57
REMARK   13  A    between atoms: C_58  and  C_59
REMARK                            x       y       z     vdW  Elec       q    Type
REMARK                         _______ _______ _______ _____ _____    ______ ____
ROOT
ATOM      1  O   UNL     1     113.037 130.193 139.357  0.00  0.00    +0.000 OA
ATOM      2  O   UNL     1     112.610 131.098 137.094  0.00  0.00    +0.000 OA
ATOM      3  O   UNL     1     114.114 131.221 137.761  0.00  0.00    +0.000 OA
ATOM      4  C   UNL     1     112.143 130.433 138.270  0.00  0.00    +0.000 C 
ATOM      5  C   UNL     1     112.752 130.797 137.848  0.00  0.00    +0.000 C 
ATOM      6  C   UNL     1     112.285 130.132 139.023  0.00  0.00    +0.000 C 
ATOM      7  C   UNL     1     113.504 130.858 138.181  0.00  0.00    +0.000 C 
ATOM      8  C   UNL     1     113.647 130.556 138.936  0.00  0.00    +0.000 C 
ENDROOT
BRANCH   6  13
ATOM      9  O   UNL     1     112.246 128.488 139.167  0.00  0.00    +0.000 OA
ATOM     10  O   UNL     1     111.107 131.049 139.722  0.00  0.00    +0.000 OA
ATOM     11  O   UNL     1     109.818 128.678 140.730  0.00  0.00    +0.000 OA
ATOM     12  O   UNL     1     111.632 127.277 139.653  0.00  0.00    +0.000 OA
ATOM     13  C   UNL     1     111.676 129.768 139.445  0.00  0.00    +0.000 A 
ATOM     14  C   UNL     1     111.656 128.947 139.517  0.00  0.00    +0.000 A 
ATOM     15  C   UNL     1     111.086 130.227 139.795  0.00  0.00    +0.000 A 
ATOM     16  C   UNL     1     111.047 128.585 139.939  0.00  0.00    +0.000 A 
ATOM     17  C   UNL     1     110.478 129.865 140.216  0.00  0.00    +0.000 A 
ATOM     18  C   UNL     1     110.458 129.044 140.288  0.00  0.00    +0.000 A 
ATOM     19  C   UNL     1     111.038 127.728 140.007  0.00  0.00    +0.000 A 
ATOM     20  C   UNL     1     109.791 127.822 140.809  0.00  0.00    +0.000 A 
ATOM     21  C   UNL     1     110.405 127.344 140.445  0.00  0.00    +0.000 A 
BRANCH  20  22
ATOM     22  C   UNL     1     109.181 127.463 141.231  0.00  0.00    +0.000 A 
ATOM     23  C   UNL     1     107.960 126.744 142.076  0.00  0.00    +0.000 A 
ATOM     24  C   UNL     1     108.734 126.865 140.881  0.00  0.00    +0.000 A 
ATOM     25  C   UNL     1     109.018 127.701 142.004  0.00  0.00    +0.000 A 
ATOM     26  C   UNL     1     108.123 126.505 141.303  0.00  0.00    +0.000 A 
ATOM     27  C   UNL     1     108.407 127.342 142.426  0.00  0.00    +0.000 A 
BRANCH  23  28
ATOM     28  O   UNL     1     107.349 126.384 142.499  0.00  0.00    +0.000 OA
BRANCH  28  37
ATOM     29  O   UNL     1     106.243 127.203 142.113  0.00  0.00    +0.000 OA
ATOM     30  O   UNL     1     105.524 127.344 144.478  0.00  0.00    +0.000 OA
ATOM     31  O   UNL     1     104.658 128.116 143.304  0.00  0.00    +0.000 OA
ATOM     32  O   UNL     1     106.870 126.478 144.075  0.00  0.00    +0.000 OA
ATOM     33  C   UNL     1     105.764 127.297 143.690  0.00  0.00    +0.000 C 
ATOM     34  C   UNL     1     105.331 127.683 143.103  0.00  0.00    +0.000 C 
ATOM     35  C   UNL     1     106.437 126.864 143.489  0.00  0.00    +0.000 C 
ATOM     36  C   UNL     1     105.571 127.636 142.315  0.00  0.00    +0.000 C 
ATOM     37  C   UNL     1     106.676 126.817 142.700  0.00  0.00    +0.000 C 
BRANCH  36  39
ATOM     38  O   UNL     1     104.841 127.595 141.086  0.00  0.00    +0.000 OA
ATOM     39  C   UNL     1     105.138 128.021 141.728  0.00  0.00    +0.000 C 
ENDBRANCH  36  39
ENDBRANCH  28  37
ENDBRANCH  23  28
ENDBRANCH  20  22
ENDBRANCH   6  13
BRANCH   8  41
ATOM     40  O   UNL     1     114.487 130.897 140.041  0.00  0.00    +0.000 OA
ATOM     41  C   UNL     1     114.399 130.617 139.270  0.00  0.00    +0.000 C 
ENDBRANCH   8  41
BRANCH   4  42
ATOM     42  O   UNL     1     111.391 130.372 137.936  0.00  0.00    +0.000 OA
BRANCH  42  47
ATOM     43  O   UNL     1     111.740 129.430 136.920  0.00  0.00    +0.000 OA
ATOM     44  O   UNL     1     110.337 131.102 136.897  0.00  0.00    +0.000 OA
ATOM     45  O   UNL     1     110.160 130.525 135.361  0.00  0.00    +0.000 OA
ATOM     46  O   UNL     1     111.037 129.218 134.865  0.00  0.00    +0.000 OA
ATOM     47  C   UNL     1     111.303 130.083 137.168  0.00  0.00    +0.000 C 
ATOM     48  C   UNL     1     110.776 130.448 136.649  0.00  0.00    +0.000 C 
ATOM     49  C   UNL     1     110.687 130.160 135.881  0.00  0.00    +0.000 C 
ATOM     50  C   UNL     1     111.126 129.506 135.633  0.00  0.00    +0.000 C 
ATOM     51  C   UNL     1     111.652 129.141 136.152  0.00  0.00    +0.000 C 
BRANCH  51  52
ATOM     52  C   UNL     1     112.090 128.488 135.904  0.00  0.00    +0.000 C 
BRANCH  52  53
ATOM     53  O   UNL     1     112.052 127.780 136.327  0.00  0.00    +0.000 OA
BRANCH  53  55
ATOM     54  O   UNL     1     113.370 127.380 135.947  0.00  0.00    +0.000 OA
ATOM     55  C   UNL     1     112.604 127.185 136.186  0.00  0.00    +0.000 C 
BRANCH  55  56
ATOM     56  C   UNL     1     112.392 126.393 136.282  0.00  0.00    +0.000 C 
ATOM     57  C   UNL     1     112.827 125.908 136.788  0.00  0.00    +0.000 C 
BRANCH  57  59
ATOM     58  O   UNL     1     111.982 122.741 137.173  0.00  0.00    +0.000 OA
ATOM     59  C   UNL     1     112.615 125.116 136.885  0.00  0.00    +0.000 A 
ATOM     60  C   UNL     1     111.883 124.921 137.211  0.00  0.00    +0.000 A 
ATOM     61  C   UNL     1     113.136 124.519 136.655  0.00  0.00    +0.000 A 
ATOM     62  C   UNL     1     111.672 124.130 137.307  0.00  0.00    +0.000 A 
ATOM     63  C   UNL     1     112.926 123.728 136.751  0.00  0.00    +0.000 A 
ATOM     64  C   UNL     1     112.193 123.534 137.077  0.00  0.00    +0.000 A 
ENDBRANCH  57  59
ENDBRANCH  55  56
ENDBRANCH  53  55
ENDBRANCH  52  53
ENDBRANCH  51  52
ENDBRANCH  42  47
ENDBRANCH   4  42
TORSDOF 13
ENDMDL
MODEL 4
REMARK VINA RESULT:     -10.9      8.609     12.119
REMARK  Name = 131752282
REMARK  13 active torsions:
REMARK  status: ('A' for Active; 'I' for Inactive)
REMARK    1  A    between atoms: O_1  and  C_23
REMARK    2  A    between atoms: O_1  and  C_28
REMARK    3  A    between atoms: O_10  and  C_35
REMARK    4  A    between atoms: O_10  and  C_50
REMARK    5  A    between atoms: O_15  and  C_45
REMARK    6  A    between atoms: O_15  and  C_52
REMARK    7  A    between atoms: C_25  and  C_33
REMARK    8  A    between atoms: C_27  and  C_34
REMARK    9  A    between atoms: C_32  and  C_35
REMARK   10  A    between atoms: C_44  and  C_47
REMARK   11  A    between atoms: C_48  and  C_51
REMARK   12  A    between atoms: C_50  and  C_57
REMARK   13  A    between atoms: C_58  and  C_59
REMARK                            x       y       z     vdW  Elec       q    Type
REMARK                         _______ _______ _______ _____ _____    ______ ____
ROOT
ATOM      1  O   UNL     1     106.829 125.872 146.629  0.00  0.00    +0.000 OA
ATOM      2  O   UNL     1     105.311 124.023 147.263  0.00  0.00    +0.000 OA
ATOM      3  O   UNL     1     106.700 124.280 148.117  0.00  0.00    +0.000 OA
ATOM      4  C   UNL     1     105.629 125.127 146.414  0.00  0.00    +0.000 C 
ATOM      5  C   UNL     1     105.817 124.639 147.052  0.00  0.00    +0.000 C 
ATOM      6  C   UNL     1     106.134 125.743 146.203  0.00  0.00    +0.000 C 
ATOM      7  C   UNL     1     106.511 124.767 147.479  0.00  0.00    +0.000 C 
ATOM      8  C   UNL     1     107.018 125.384 147.267  0.00  0.00    +0.000 C 
ENDROOT
BRANCH   6  13
ATOM      9  O   UNL     1     105.517 127.250 146.469  0.00  0.00    +0.000 OA
ATOM     10  O   UNL     1     106.376 125.212 144.660  0.00  0.00    +0.000 OA
ATOM     11  O   UNL     1     105.380 127.705 143.615  0.00  0.00    +0.000 OA
ATOM     12  O   UNL     1     105.012 128.512 145.987  0.00  0.00    +0.000 OA
ATOM     13  C   UNL     1     105.947 126.232 145.565  0.00  0.00    +0.000 A 
ATOM     14  C   UNL     1     105.638 126.984 145.698  0.00  0.00    +0.000 A 
ATOM     15  C   UNL     1     106.068 125.966 144.793  0.00  0.00    +0.000 A 
ATOM     16  C   UNL     1     105.451 127.472 145.060  0.00  0.00    +0.000 A 
ATOM     17  C   UNL     1     105.880 126.454 144.155  0.00  0.00    +0.000 A 
ATOM     18  C   UNL     1     105.572 127.206 144.288  0.00  0.00    +0.000 A 
ATOM     19  C   UNL     1     105.130 128.255 145.212  0.00  0.00    +0.000 A 
ATOM     20  C   UNL     1     105.058 128.492 143.747  0.00  0.00    +0.000 A 
ATOM     21  C   UNL     1     104.932 128.768 144.551  0.00  0.00    +0.000 A 
BRANCH  20  22
ATOM     22  C   UNL     1     104.872 128.977 143.107  0.00  0.00    +0.000 A 
ATOM     23  C   UNL     1     104.499 129.948 141.826  0.00  0.00    +0.000 A 
ATOM     24  C   UNL     1     105.286 129.680 142.988  0.00  0.00    +0.000 A 
ATOM     25  C   UNL     1     104.271 128.759 142.585  0.00  0.00    +0.000 A 
ATOM     26  C   UNL     1     105.099 130.166 142.348  0.00  0.00    +0.000 A 
ATOM     27  C   UNL     1     104.085 129.244 141.945  0.00  0.00    +0.000 A 
BRANCH  23  28
ATOM     28  O   UNL     1     104.312 130.433 141.185  0.00  0.00    +0.000 OA
BRANCH  28  37
ATOM     29  O   UNL     1     103.103 131.027 141.664  0.00  0.00    +0.000 OA
ATOM     30  O   UNL     1     103.892 133.245 140.897  0.00  0.00    +0.000 OA
ATOM     31  O   UNL     1     102.421 133.100 141.631  0.00  0.00    +0.000 OA
ATOM     32  O   UNL     1     104.838 131.911 140.674  0.00  0.00    +0.000 OA
ATOM     33  C   UNL     1     103.630 132.506 141.153  0.00  0.00    +0.000 C 
ATOM     34  C   UNL     1     102.894 132.433 141.520  0.00  0.00    +0.000 C 
ATOM     35  C   UNL     1     104.102 131.839 141.041  0.00  0.00    +0.000 C 
ATOM     36  C   UNL     1     102.632 131.694 141.775  0.00  0.00    +0.000 C 
ATOM     37  C   UNL     1     103.839 131.099 141.297  0.00  0.00    +0.000 C 
BRANCH  36  39
ATOM     38  O   UNL     1     101.303 131.166 141.791  0.00  0.00    +0.000 OA
ATOM     39  C   UNL     1     101.896 131.622 142.142  0.00  0.00    +0.000 C 
ENDBRANCH  36  39
ENDBRANCH  28  37
ENDBRANCH  23  28
ENDBRANCH  20  22
ENDBRANCH   6  13
BRANCH   8  41
ATOM     40  O   UNL     1     108.401 125.741 147.301  0.00  0.00    +0.000 OA
ATOM     41  C   UNL     1     107.712 125.513 147.694  0.00  0.00    +0.000 C 
ENDBRANCH   8  41
BRANCH   4  42
ATOM     42  O   UNL     1     104.935 124.999 145.987  0.00  0.00    +0.000 OA
BRANCH  42  47
ATOM     43  O   UNL     1     104.018 125.347 147.027  0.00  0.00    +0.000 OA
ATOM     44  O   UNL     1     103.923 123.789 145.501  0.00  0.00    +0.000 OA
ATOM     45  O   UNL     1     102.501 123.533 146.298  0.00  0.00    +0.000 OA
ATOM     46  O   UNL     1     102.090 124.486 147.581  0.00  0.00    +0.000 OA
ATOM     47  C   UNL     1     104.224 124.871 146.386  0.00  0.00    +0.000 C 
ATOM     48  C   UNL     1     103.718 124.266 146.143  0.00  0.00    +0.000 C 
ATOM     49  C   UNL     1     103.007 124.138 146.541  0.00  0.00    +0.000 C 
ATOM     50  C   UNL     1     102.802 124.615 147.183  0.00  0.00    +0.000 C 
ATOM     51  C   UNL     1     103.307 125.220 147.426  0.00  0.00    +0.000 C 
BRANCH  51  52
ATOM     52  C   UNL     1     103.102 125.696 148.067  0.00  0.00    +0.000 C 
BRANCH  52  53
ATOM     53  O   UNL     1     103.150 126.517 148.003  0.00  0.00    +0.000 OA
BRANCH  53  55
ATOM     54  O   UNL     1     103.200 126.789 149.405  0.00  0.00    +0.000 OA
ATOM     55  C   UNL     1     102.949 126.993 148.646  0.00  0.00    +0.000 C 
BRANCH  55  56
ATOM     56  C   UNL     1     102.496 127.674 148.530  0.00  0.00    +0.000 C 
ATOM     57  C   UNL     1     102.808 128.413 148.718  0.00  0.00    +0.000 C 
BRANCH  57  59
ATOM     58  O   UNL     1     100.996 131.133 148.258  0.00  0.00    +0.000 OA
ATOM     59  C   UNL     1     102.355 129.094 148.602  0.00  0.00    +0.000 A 
ATOM     60  C   UNL     1     102.665 129.729 148.177  0.00  0.00    +0.000 A 
ATOM     61  C   UNL     1     101.592 129.138 148.913  0.00  0.00    +0.000 A 
ATOM     62  C   UNL     1     102.212 130.408 148.062  0.00  0.00    +0.000 A 
ATOM     63  C   UNL     1     101.139 129.818 148.798  0.00  0.00    +0.000 A 
ATOM     64  C   UNL     1     101.449 130.453 148.373  0.00  0.00    +0.000 A 
ENDBRANCH  57  59
ENDBRANCH  55  56
ENDBRANCH  53  55
ENDBRANCH  52  53
ENDBRANCH  51  52
ENDBRANCH  42  47
ENDBRANCH   4  42
TORSDOF 13
ENDMDL
MODEL 5
REMARK VINA RESULT:     -10.8      3.541      6.465
REMARK  Name = 131752282
REMARK  13 active torsions:
REMARK  status: ('A' for Active; 'I' for Inactive)
REMARK    1  A    between atoms: O_1  and  C_23
REMARK    2  A    between atoms: O_1  and  C_28
REMARK    3  A    between atoms: O_10  and  C_35
REMARK    4  A    between atoms: O_10  and  C_50
REMARK    5  A    between atoms: O_15  and  C_45
REMARK    6  A    between atoms: O_15  and  C_52
REMARK    7  A    between atoms: C_25  and  C_33
REMARK    8  A    between atoms: C_27  and  C_34
REMARK    9  A    between atoms: C_32  and  C_35
REMARK   10  A    between atoms: C_44  and  C_47
REMARK   11  A    between atoms: C_48  and  C_51
REMARK   12  A    between atoms: C_50  and  C_57
REMARK   13  A    between atoms: C_58  and  C_59
REMARK                            x       y       z     vdW  Elec       q    Type
REMARK                         _______ _______ _______ _____ _____    ______ ____
ROOT
ATOM      1  O   UNL     1     113.352 125.550 137.597  0.00  0.00    +0.000 OA
ATOM      2  O   UNL     1     113.634 127.435 136.020  0.00  0.00    +0.000 OA
ATOM      3  O   UNL     1     114.860 126.352 136.239  0.00  0.00    +0.000 OA
ATOM      4  C   UNL     1     112.833 126.719 136.962  0.00  0.00    +0.000 C 
ATOM      5  C   UNL     1     113.540 126.807 136.545  0.00  0.00    +0.000 C 
ATOM      6  C   UNL     1     112.739 126.091 137.487  0.00  0.00    +0.000 C 
ATOM      7  C   UNL     1     114.153 126.266 136.655  0.00  0.00    +0.000 C 
ATOM      8  C   UNL     1     114.059 125.636 137.181  0.00  0.00    +0.000 C 
ENDROOT
BRANCH   6  13
ATOM      9  O   UNL     1     112.673 126.471 139.092  0.00  0.00    +0.000 OA
ATOM     10  O   UNL     1     111.392 125.536 136.715  0.00  0.00    +0.000 OA
ATOM     11  O   UNL     1     109.876 125.731 139.158  0.00  0.00    +0.000 OA
ATOM     12  O   UNL     1     111.949 126.584 140.335  0.00  0.00    +0.000 OA
ATOM     13  C   UNL     1     112.032 126.003 137.904  0.00  0.00    +0.000 A 
ATOM     14  C   UNL     1     111.999 126.193 138.706  0.00  0.00    +0.000 A 
ATOM     15  C   UNL     1     111.358 125.725 137.518  0.00  0.00    +0.000 A 
ATOM     16  C   UNL     1     111.292 126.105 139.121  0.00  0.00    +0.000 A 
ATOM     17  C   UNL     1     110.652 125.638 137.934  0.00  0.00    +0.000 A 
ATOM     18  C   UNL     1     110.618 125.827 138.735  0.00  0.00    +0.000 A 
ATOM     19  C   UNL     1     111.270 126.306 139.957  0.00  0.00    +0.000 A 
ATOM     20  C   UNL     1     109.835 125.928 139.994  0.00  0.00    +0.000 A 
ATOM     21  C   UNL     1     110.537 126.217 140.396  0.00  0.00    +0.000 A 
BRANCH  20  22
ATOM     22  C   UNL     1     109.127 125.838 140.407  0.00  0.00    +0.000 A 
ATOM     23  C   UNL     1     107.710 125.660 141.233  0.00  0.00    +0.000 A 
ATOM     24  C   UNL     1     108.609 126.477 140.481  0.00  0.00    +0.000 A 
ATOM     25  C   UNL     1     108.935 125.111 140.746  0.00  0.00    +0.000 A 
ATOM     26  C   UNL     1     107.900 126.388 140.894  0.00  0.00    +0.000 A 
ATOM     27  C   UNL     1     108.227 125.022 141.159  0.00  0.00    +0.000 A 
BRANCH  23  28
ATOM     28  O   UNL     1     107.001 125.570 141.646  0.00  0.00    +0.000 OA
BRANCH  28  37
ATOM     29  O   UNL     1     106.231 125.056 140.558  0.00  0.00    +0.000 OA
ATOM     30  O   UNL     1     105.048 123.537 142.113  0.00  0.00    +0.000 OA
ATOM     31  O   UNL     1     104.672 123.529 140.506  0.00  0.00    +0.000 OA
ATOM     32  O   UNL     1     106.212 124.557 142.683  0.00  0.00    +0.000 OA
ATOM     33  C   UNL     1     105.442 124.043 141.595  0.00  0.00    +0.000 C 
ATOM     34  C   UNL     1     105.255 124.040 140.791  0.00  0.00    +0.000 C 
ATOM     35  C   UNL     1     106.025 124.554 141.880  0.00  0.00    +0.000 C 
ATOM     36  C   UNL     1     105.649 124.546 140.273  0.00  0.00    +0.000 C 
ATOM     37  C   UNL     1     106.419 125.060 141.361  0.00  0.00    +0.000 C 
BRANCH  36  39
ATOM     38  O   UNL     1     105.248 125.246 139.093  0.00  0.00    +0.000 OA
ATOM     39  C   UNL     1     105.461 124.542 139.470  0.00  0.00    +0.000 C 
ENDBRANCH  36  39
ENDBRANCH  28  37
ENDBRANCH  23  28
ENDBRANCH  20  22
ENDBRANCH   6  13
BRANCH   8  41
ATOM     40  O   UNL     1     114.505 124.288 137.336  0.00  0.00    +0.000 OA
ATOM     41  C   UNL     1     114.671 125.095 137.291  0.00  0.00    +0.000 C 
ENDBRANCH   8  41
BRANCH   4  42
ATOM     42  O   UNL     1     112.220 127.261 136.852  0.00  0.00    +0.000 OA
BRANCH  42  47
ATOM     43  O   UNL     1     112.816 128.395 137.485  0.00  0.00    +0.000 OA
ATOM     44  O   UNL     1     111.661 128.230 135.640  0.00  0.00    +0.000 OA
ATOM     45  O   UNL     1     111.977 129.849 135.666  0.00  0.00    +0.000 OA
ATOM     46  O   UNL     1     112.852 130.499 136.905  0.00  0.00    +0.000 OA
ATOM     47  C   UNL     1     112.379 128.070 136.866  0.00  0.00    +0.000 C 
ATOM     48  C   UNL     1     112.099 128.555 136.260  0.00  0.00    +0.000 C 
ATOM     49  C   UNL     1     112.256 129.365 136.272  0.00  0.00    +0.000 C 
ATOM     50  C   UNL     1     112.694 129.690 136.892  0.00  0.00    +0.000 C 
ATOM     51  C   UNL     1     112.974 129.205 137.498  0.00  0.00    +0.000 C 
BRANCH  51  52
ATOM     52  C   UNL     1     113.411 129.530 138.117  0.00  0.00    +0.000 C 
BRANCH  52  53
ATOM     53  O   UNL     1     113.247 129.316 138.897  0.00  0.00    +0.000 OA
BRANCH  53  55
ATOM     54  O   UNL     1     114.403 129.913 139.484  0.00  0.00    +0.000 OA
ATOM     55  C   UNL     1     113.602 129.721 139.520  0.00  0.00    +0.000 C 
BRANCH  55  56
ATOM     56  C   UNL     1     113.157 129.935 140.181  0.00  0.00    +0.000 C 
ATOM     57  C   UNL     1     113.381 129.677 140.932  0.00  0.00    +0.000 C 
BRANCH  57  59
ATOM     58  O   UNL     1     111.601 130.536 143.575  0.00  0.00    +0.000 OA
ATOM     59  C   UNL     1     112.935 129.891 141.592  0.00  0.00    +0.000 A 
ATOM     60  C   UNL     1     112.500 129.321 141.999  0.00  0.00    +0.000 A 
ATOM     61  C   UNL     1     112.926 130.676 141.846  0.00  0.00    +0.000 A 
ATOM     62  C   UNL     1     112.055 129.536 142.659  0.00  0.00    +0.000 A 
ATOM     63  C   UNL     1     112.482 130.891 142.507  0.00  0.00    +0.000 A 
ATOM     64  C   UNL     1     112.046 130.321 142.913  0.00  0.00    +0.000 A 
ENDBRANCH  57  59
ENDBRANCH  55  56
ENDBRANCH  53  55
ENDBRANCH  52  53
ENDBRANCH  51  52
ENDBRANCH  42  47
ENDBRANCH   4  42
TORSDOF 13
ENDMDL
MODEL 6
REMARK VINA RESULT:     -10.7      1.388      2.747
REMARK  Name = 131752282
REMARK  13 active torsions:
REMARK  status: ('A' for Active; 'I' for Inactive)
REMARK    1  A    between atoms: O_1  and  C_23
REMARK    2  A    between atoms: O_1  and  C_28
REMARK    3  A    between atoms: O_10  and  C_35
REMARK    4  A    between atoms: O_10  and  C_50
REMARK    5  A    between atoms: O_15  and  C_45
REMARK    6  A    between atoms: O_15  and  C_52
REMARK    7  A    between atoms: C_25  and  C_33
REMARK    8  A    between atoms: C_27  and  C_34
REMARK    9  A    between atoms: C_32  and  C_35
REMARK   10  A    between atoms: C_44  and  C_47
REMARK   11  A    between atoms: C_48  and  C_51
REMARK   12  A    between atoms: C_50  and  C_57
REMARK   13  A    between atoms: C_58  and  C_59
REMARK                            x       y       z     vdW  Elec       q    Type
REMARK                         _______ _______ _______ _____ _____    ______ ____
ROOT
ATOM      1  O   UNL     1     109.578 128.874 136.802  0.00  0.00    +0.000 OA
ATOM      2  O   UNL     1     111.185 130.126 135.397  0.00  0.00    +0.000 OA
ATOM      3  O   UNL     1     110.003 129.218 134.689  0.00  0.00    +0.000 OA
ATOM      4  C   UNL     1     110.704 129.745 136.688  0.00  0.00    +0.000 C 
ATOM      5  C   UNL     1     110.650 129.709 135.865  0.00  0.00    +0.000 C 
ATOM      6  C   UNL     1     110.169 129.328 137.156  0.00  0.00    +0.000 C 
ATOM      7  C   UNL     1     110.059 129.255 135.511  0.00  0.00    +0.000 C 
ATOM      8  C   UNL     1     109.522 128.837 135.979  0.00  0.00    +0.000 C 
ENDROOT
BRANCH   6  13
ATOM      9  O   UNL     1     110.810 128.063 137.998  0.00  0.00    +0.000 OA
ATOM     10  O   UNL     1     109.636 130.667 137.958  0.00  0.00    +0.000 OA
ATOM     11  O   UNL     1     110.382 129.489 140.479  0.00  0.00    +0.000 OA
ATOM     12  O   UNL     1     111.198 127.438 139.239  0.00  0.00    +0.000 OA
ATOM     13  C   UNL     1     110.223 129.365 137.978  0.00  0.00    +0.000 A 
ATOM     14  C   UNL     1     110.543 128.732 138.399  0.00  0.00    +0.000 A 
ATOM     15  C   UNL     1     109.957 130.034 138.380  0.00  0.00    +0.000 A 
ATOM     16  C   UNL     1     110.598 128.769 139.221  0.00  0.00    +0.000 A 
ATOM     17  C   UNL     1     110.011 130.071 139.201  0.00  0.00    +0.000 A 
ATOM     18  C   UNL     1     110.331 129.439 139.622  0.00  0.00    +0.000 A 
ATOM     19  C   UNL     1     110.934 128.103 139.649  0.00  0.00    +0.000 A 
ATOM     20  C   UNL     1     110.715 128.833 140.924  0.00  0.00    +0.000 A 
ATOM     21  C   UNL     1     110.993 128.135 140.506  0.00  0.00    +0.000 A 
BRANCH  20  22
ATOM     22  C   UNL     1     110.768 128.873 141.745  0.00  0.00    +0.000 A 
ATOM     23  C   UNL     1     110.873 128.953 143.390  0.00  0.00    +0.000 A 
ATOM     24  C   UNL     1     111.507 128.898 142.111  0.00  0.00    +0.000 A 
ATOM     25  C   UNL     1     110.081 128.887 142.203  0.00  0.00    +0.000 A 
ATOM     26  C   UNL     1     111.560 128.938 142.933  0.00  0.00    +0.000 A 
ATOM     27  C   UNL     1     110.134 128.927 143.025  0.00  0.00    +0.000 A 
BRANCH  23  28
ATOM     28  O   UNL     1     110.925 128.992 144.213  0.00  0.00    +0.000 OA
BRANCH  28  37
ATOM     29  O   UNL     1     110.830 130.415 144.317  0.00  0.00    +0.000 OA
ATOM     30  O   UNL     1     112.439 130.384 146.198  0.00  0.00    +0.000 OA
ATOM     31  O   UNL     1     111.808 131.816 145.675  0.00  0.00    +0.000 OA
ATOM     32  O   UNL     1     111.998 128.972 145.467  0.00  0.00    +0.000 OA
ATOM     33  C   UNL     1     111.903 130.394 145.571  0.00  0.00    +0.000 C 
ATOM     34  C   UNL     1     111.587 131.110 145.310  0.00  0.00    +0.000 C 
ATOM     35  C   UNL     1     111.682 129.688 145.205  0.00  0.00    +0.000 C 
ATOM     36  C   UNL     1     111.051 131.120 144.683  0.00  0.00    +0.000 C 
ATOM     37  C   UNL     1     111.146 129.698 144.578  0.00  0.00    +0.000 C 
BRANCH  36  39
ATOM     38  O   UNL     1     109.918 131.950 144.420  0.00  0.00    +0.000 OA
ATOM     39  C   UNL     1     110.736 131.836 144.421  0.00  0.00    +0.000 C 
ENDBRANCH  36  39
ENDBRANCH  28  37
ENDBRANCH  23  28
ENDBRANCH  20  22
ENDBRANCH   6  13
BRANCH   8  41
ATOM     40  O   UNL     1     108.147 128.469 135.865  0.00  0.00    +0.000 OA
ATOM     41  C   UNL     1     108.932 128.383 135.625  0.00  0.00    +0.000 C 
ENDBRANCH   8  41
BRANCH   4  42
ATOM     42  O   UNL     1     111.295 130.199 137.042  0.00  0.00    +0.000 OA
BRANCH  42  47
ATOM     43  O   UNL     1     112.376 129.394 136.568  0.00  0.00    +0.000 OA
ATOM     44  O   UNL     1     112.260 131.536 136.970  0.00  0.00    +0.000 OA
ATOM     45  O   UNL     1     113.823 131.399 136.459  0.00  0.00    +0.000 OA
ATOM     46  O   UNL     1     114.421 129.925 136.021  0.00  0.00    +0.000 OA
ATOM     47  C   UNL     1     112.077 130.130 136.787  0.00  0.00    +0.000 C 
ATOM     48  C   UNL     1     112.559 130.798 136.750  0.00  0.00    +0.000 C 
ATOM     49  C   UNL     1     113.340 130.730 136.495  0.00  0.00    +0.000 C 
ATOM     50  C   UNL     1     113.640 129.993 136.276  0.00  0.00    +0.000 C 
ATOM     51  C   UNL     1     113.157 129.324 136.312  0.00  0.00    +0.000 C 
BRANCH  51  52
ATOM     52  C   UNL     1     113.456 128.588 136.094  0.00  0.00    +0.000 C 
BRANCH  52  53
ATOM     53  O   UNL     1     113.391 127.946 136.608  0.00  0.00    +0.000 OA
BRANCH  53  55
ATOM     54  O   UNL     1     114.441 127.149 136.056  0.00  0.00    +0.000 OA
ATOM     55  C   UNL     1     113.687 127.209 136.388  0.00  0.00    +0.000 C 
BRANCH  55  56
ATOM     56  C   UNL     1     113.231 126.530 136.498  0.00  0.00    +0.000 C 
ATOM     57  C   UNL     1     113.590 125.824 136.727  0.00  0.00    +0.000 C 
BRANCH  57  59
ATOM     58  O   UNL     1     111.763 123.112 137.169  0.00  0.00    +0.000 OA
ATOM     59  C   UNL     1     113.133 125.145 136.837  0.00  0.00    +0.000 A 
ATOM     60  C   UNL     1     113.461 124.401 136.703  0.00  0.00    +0.000 A 
ATOM     61  C   UNL     1     112.348 125.212 137.082  0.00  0.00    +0.000 A 
ATOM     62  C   UNL     1     113.005 123.723 136.814  0.00  0.00    +0.000 A 
ATOM     63  C   UNL     1     111.891 124.535 137.193  0.00  0.00    +0.000 A 
ATOM     64  C   UNL     1     112.220 123.790 137.058  0.00  0.00    +0.000 A 
ENDBRANCH  57  59
ENDBRANCH  55  56
ENDBRANCH  53  55
ENDBRANCH  52  53
ENDBRANCH  51  52
ENDBRANCH  42  47
ENDBRANCH   4  42
TORSDOF 13
ENDMDL
MODEL 7
REMARK VINA RESULT:     -10.7      1.363      2.195
REMARK  Name = 131752282
REMARK  13 active torsions:
REMARK  status: ('A' for Active; 'I' for Inactive)
REMARK    1  A    between atoms: O_1  and  C_23
REMARK    2  A    between atoms: O_1  and  C_28
REMARK    3  A    between atoms: O_10  and  C_35
REMARK    4  A    between atoms: O_10  and  C_50
REMARK    5  A    between atoms: O_15  and  C_45
REMARK    6  A    between atoms: O_15  and  C_52
REMARK    7  A    between atoms: C_25  and  C_33
REMARK    8  A    between atoms: C_27  and  C_34
REMARK    9  A    between atoms: C_32  and  C_35
REMARK   10  A    between atoms: C_44  and  C_47
REMARK   11  A    between atoms: C_48  and  C_51
REMARK   12  A    between atoms: C_50  and  C_57
REMARK   13  A    between atoms: C_58  and  C_59
REMARK                            x       y       z     vdW  Elec       q    Type
REMARK                         _______ _______ _______ _____ _____    ______ ____
ROOT
ATOM      1  O   UNL     1     112.828 128.889 137.314  0.00  0.00    +0.000 OA
ATOM      2  O   UNL     1     111.957 130.383 135.544  0.00  0.00    +0.000 OA
ATOM      3  O   UNL     1     112.737 128.987 135.136  0.00  0.00    +0.000 OA
ATOM      4  C   UNL     1     112.148 130.084 136.929  0.00  0.00    +0.000 C 
ATOM      5  C   UNL     1     112.247 129.885 136.134  0.00  0.00    +0.000 C 
ATOM      6  C   UNL     1     112.439 129.586 137.518  0.00  0.00    +0.000 C 
ATOM      7  C   UNL     1     112.637 129.187 135.930  0.00  0.00    +0.000 C 
ATOM      8  C   UNL     1     112.928 128.688 136.520  0.00  0.00    +0.000 C 
ENDROOT
BRANCH   6  13
ATOM      9  O   UNL     1     111.241 128.877 138.404  0.00  0.00    +0.000 OA
ATOM     10  O   UNL     1     113.439 130.694 138.221  0.00  0.00    +0.000 OA
ATOM     11  O   UNL     1     112.050 130.400 140.728  0.00  0.00    +0.000 OA
ATOM     12  O   UNL     1     110.519 128.701 139.641  0.00  0.00    +0.000 OA
ATOM     13  C   UNL     1     112.339 129.785 138.313  0.00  0.00    +0.000 A 
ATOM     14  C   UNL     1     111.741 129.431 138.756  0.00  0.00    +0.000 A 
ATOM     15  C   UNL     1     112.840 130.339 138.664  0.00  0.00    +0.000 A 
ATOM     16  C   UNL     1     111.642 129.630 139.550  0.00  0.00    +0.000 A 
ATOM     17  C   UNL     1     112.741 130.539 139.458  0.00  0.00    +0.000 A 
ATOM     18  C   UNL     1     112.143 130.184 139.901  0.00  0.00    +0.000 A 
ATOM     19  C   UNL     1     111.015 129.254 140.001  0.00  0.00    +0.000 A 
ATOM     20  C   UNL     1     111.428 130.035 141.195  0.00  0.00    +0.000 A 
ATOM     21  C   UNL     1     110.907 129.458 140.829  0.00  0.00    +0.000 A 
BRANCH  20  22
ATOM     22  C   UNL     1     111.332 130.236 141.988  0.00  0.00    +0.000 A 
ATOM     23  C   UNL     1     111.140 130.639 143.577  0.00  0.00    +0.000 A 
ATOM     24  C   UNL     1     111.878 129.976 142.549  0.00  0.00    +0.000 A 
ATOM     25  C   UNL     1     110.689 130.698 142.223  0.00  0.00    +0.000 A 
ATOM     26  C   UNL     1     111.782 130.177 143.344  0.00  0.00    +0.000 A 
ATOM     27  C   UNL     1     110.594 130.899 143.016  0.00  0.00    +0.000 A 
BRANCH  23  28
ATOM     28  O   UNL     1     111.044 130.841 144.371  0.00  0.00    +0.000 OA
BRANCH  28  37
ATOM     29  O   UNL     1     111.839 132.028 144.377  0.00  0.00    +0.000 OA
ATOM     30  O   UNL     1     110.173 133.138 145.833  0.00  0.00    +0.000 OA
ATOM     31  O   UNL     1     111.523 133.955 145.353  0.00  0.00    +0.000 OA
ATOM     32  O   UNL     1     109.933 131.581 145.343  0.00  0.00    +0.000 OA
ATOM     33  C   UNL     1     110.728 132.768 145.348  0.00  0.00    +0.000 C 
ATOM     34  C   UNL     1     111.403 133.176 145.108  0.00  0.00    +0.000 C 
ATOM     35  C   UNL     1     110.608 131.989 145.102  0.00  0.00    +0.000 C 
ATOM     36  C   UNL     1     111.958 132.807 144.622  0.00  0.00    +0.000 C 
ATOM     37  C   UNL     1     111.164 131.620 144.617  0.00  0.00    +0.000 C 
BRANCH  36  39
ATOM     38  O   UNL     1     113.382 132.914 144.557  0.00  0.00    +0.000 OA
ATOM     39  C   UNL     1     112.634 133.215 144.382  0.00  0.00    +0.000 C 
ENDBRANCH  36  39
ENDBRANCH  28  37
ENDBRANCH  23  28
ENDBRANCH  20  22
ENDBRANCH   6  13
BRANCH   8  41
ATOM     40  O   UNL     1     113.443 127.406 136.885  0.00  0.00    +0.000 OA
ATOM     41  C   UNL     1     113.318 127.991 136.316  0.00  0.00    +0.000 C 
ENDBRANCH   8  41
BRANCH   4  42
ATOM     42  O   UNL     1     111.758 130.782 137.133  0.00  0.00    +0.000 OA
BRANCH  42  47
ATOM     43  O   UNL     1     110.540 130.371 136.510  0.00  0.00    +0.000 OA
ATOM     44  O   UNL     1     111.317 132.362 136.955  0.00  0.00    +0.000 OA
ATOM     45  O   UNL     1     109.878 132.741 136.243  0.00  0.00    +0.000 OA
ATOM     46  O   UNL     1     108.880 131.541 135.709  0.00  0.00    +0.000 OA
ATOM     47  C   UNL     1     111.039 130.971 136.777  0.00  0.00    +0.000 C 
ATOM     48  C   UNL     1     110.818 131.761 136.688  0.00  0.00    +0.000 C 
ATOM     49  C   UNL     1     110.099 131.951 136.332  0.00  0.00    +0.000 C 
ATOM     50  C   UNL     1     109.599 131.350 136.064  0.00  0.00    +0.000 C 
ATOM     51  C   UNL     1     109.820 130.560 136.153  0.00  0.00    +0.000 C 
BRANCH  51  52
ATOM     52  C   UNL     1     109.321 129.961 135.886  0.00  0.00    +0.000 C 
BRANCH  52  53
ATOM     53  O   UNL     1     109.182 129.298 136.358  0.00  0.00    +0.000 OA
BRANCH  53  55
ATOM     54  O   UNL     1     108.047 128.588 135.861  0.00  0.00    +0.000 OA
ATOM     55  C   UNL     1     108.854 128.618 136.028  0.00  0.00    +0.000 C 
BRANCH  55  56
ATOM     56  C   UNL     1     109.333 127.966 135.863  0.00  0.00    +0.000 C 
ATOM     57  C   UNL     1     109.210 127.253 136.259  0.00  0.00    +0.000 C 
BRANCH  57  59
ATOM     58  O   UNL     1     111.124 124.646 135.604  0.00  0.00    +0.000 OA
ATOM     59  C   UNL     1     109.689 126.601 136.095  0.00  0.00    +0.000 A 
ATOM     60  C   UNL     1     109.769 126.333 135.319  0.00  0.00    +0.000 A 
ATOM     61  C   UNL     1     110.087 126.218 136.707  0.00  0.00    +0.000 A 
ATOM     62  C   UNL     1     110.247 125.682 135.155  0.00  0.00    +0.000 A 
ATOM     63  C   UNL     1     110.566 125.566 136.544  0.00  0.00    +0.000 A 
ATOM     64  C   UNL     1     110.645 125.298 135.768  0.00  0.00    +0.000 A 
ENDBRANCH  57  59
ENDBRANCH  55  56
ENDBRANCH  53  55
ENDBRANCH  52  53
ENDBRANCH  51  52
ENDBRANCH  42  47
ENDBRANCH   4  42
TORSDOF 13
ENDMDL
MODEL 8
REMARK VINA RESULT:     -10.7      7.005      9.227
REMARK  Name = 131752282
REMARK  13 active torsions:
REMARK  status: ('A' for Active; 'I' for Inactive)
REMARK    1  A    between atoms: O_1  and  C_23
REMARK    2  A    between atoms: O_1  and  C_28
REMARK    3  A    between atoms: O_10  and  C_35
REMARK    4  A    between atoms: O_10  and  C_50
REMARK    5  A    between atoms: O_15  and  C_45
REMARK    6  A    between atoms: O_15  and  C_52
REMARK    7  A    between atoms: C_25  and  C_33
REMARK    8  A    between atoms: C_27  and  C_34
REMARK    9  A    between atoms: C_32  and  C_35
REMARK   10  A    between atoms: C_44  and  C_47
REMARK   11  A    between atoms: C_48  and  C_51
REMARK   12  A    between atoms: C_50  and  C_57
REMARK   13  A    between atoms: C_58  and  C_59
REMARK                            x       y       z     vdW  Elec       q    Type
REMARK                         _______ _______ _______ _____ _____    ______ ____
ROOT
ATOM      1  O   UNL     1     105.193 126.885 144.468  0.00  0.00    +0.000 OA
ATOM      2  O   UNL     1     107.653 126.733 144.251  0.00  0.00    +0.000 OA
ATOM      3  O   UNL     1     106.812 125.510 144.970  0.00  0.00    +0.000 OA
ATOM      4  C   UNL     1     106.434 127.446 144.036  0.00  0.00    +0.000 C 
ATOM      5  C   UNL     1     106.834 126.784 144.323  0.00  0.00    +0.000 C 
ATOM      6  C   UNL     1     105.614 127.497 144.109  0.00  0.00    +0.000 C 
ATOM      7  C   UNL     1     106.413 126.172 144.683  0.00  0.00    +0.000 C 
ATOM      8  C   UNL     1     105.592 126.223 144.755  0.00  0.00    +0.000 C 
ENDROOT
BRANCH   6  13
ATOM      9  O   UNL     1     104.882 127.444 142.631  0.00  0.00    +0.000 OA
ATOM     10  O   UNL     1     105.546 128.874 145.014  0.00  0.00    +0.000 OA
ATOM     11  O   UNL     1     104.001 130.180 142.962  0.00  0.00    +0.000 OA
ATOM     12  O   UNL     1     104.110 128.061 141.580  0.00  0.00    +0.000 OA
ATOM     13  C   UNL     1     105.214 128.159 143.822  0.00  0.00    +0.000 A 
ATOM     14  C   UNL     1     104.848 128.133 143.084  0.00  0.00    +0.000 A 
ATOM     15  C   UNL     1     105.180 128.848 144.274  0.00  0.00    +0.000 A 
ATOM     16  C   UNL     1     104.448 128.794 142.797  0.00  0.00    +0.000 A 
ATOM     17  C   UNL     1     104.780 129.510 143.988  0.00  0.00    +0.000 A 
ATOM     18  C   UNL     1     104.415 129.483 143.250  0.00  0.00    +0.000 A 
ATOM     19  C   UNL     1     104.071 128.755 142.026  0.00  0.00    +0.000 A 
ATOM     20  C   UNL     1     103.617 130.159 142.193  0.00  0.00    +0.000 A 
ATOM     21  C   UNL     1     103.653 129.441 141.722  0.00  0.00    +0.000 A 
BRANCH  20  22
ATOM     22  C   UNL     1     103.219 130.822 141.910  0.00  0.00    +0.000 A 
ATOM     23  C   UNL     1     102.420 132.151 141.343  0.00  0.00    +0.000 A 
ATOM     24  C   UNL     1     102.518 131.068 142.270  0.00  0.00    +0.000 A 
ATOM     25  C   UNL     1     103.519 131.242 141.266  0.00  0.00    +0.000 A 
ATOM     26  C   UNL     1     102.118 131.732 141.987  0.00  0.00    +0.000 A 
ATOM     27  C   UNL     1     103.121 131.905 140.983  0.00  0.00    +0.000 A 
BRANCH  23  28
ATOM     28  O   UNL     1     102.021 132.815 141.059  0.00  0.00    +0.000 OA
BRANCH  28  37
ATOM     29  O   UNL     1     102.886 133.850 141.530  0.00  0.00    +0.000 OA
ATOM     30  O   UNL     1     100.920 135.134 142.314  0.00  0.00    +0.000 OA
ATOM     31  O   UNL     1     102.439 135.742 142.524  0.00  0.00    +0.000 OA
ATOM     32  O   UNL     1     100.710 133.670 141.582  0.00  0.00    +0.000 OA
ATOM     33  C   UNL     1     101.575 134.706 142.053  0.00  0.00    +0.000 C 
ATOM     34  C   UNL     1     102.335 135.010 142.158  0.00  0.00    +0.000 C 
ATOM     35  C   UNL     1     101.470 133.974 141.687  0.00  0.00    +0.000 C 
ATOM     36  C   UNL     1     102.990 134.582 141.897  0.00  0.00    +0.000 C 
ATOM     37  C   UNL     1     102.126 133.547 141.426  0.00  0.00    +0.000 C 
BRANCH  36  39
ATOM     38  O   UNL     1     104.266 134.935 141.359  0.00  0.00    +0.000 OA
ATOM     39  C   UNL     1     103.749 134.886 142.002  0.00  0.00    +0.000 C 
ENDBRANCH  36  39
ENDBRANCH  28  37
ENDBRANCH  23  28
ENDBRANCH  20  22
ENDBRANCH   6  13
BRANCH   8  41
ATOM     40  O   UNL     1     104.579 125.784 145.663  0.00  0.00    +0.000 OA
ATOM     41  C   UNL     1     105.171 125.611 145.115  0.00  0.00    +0.000 C 
ENDBRANCH   8  41
BRANCH   4  42
ATOM     42  O   UNL     1     106.854 128.058 143.677  0.00  0.00    +0.000 OA
BRANCH  42  47
ATOM     43  O   UNL     1     107.341 127.190 142.651  0.00  0.00    +0.000 OA
ATOM     44  O   UNL     1     108.082 129.115 143.364  0.00  0.00    +0.000 OA
ATOM     45  O   UNL     1     109.182 128.776 142.182  0.00  0.00    +0.000 OA
ATOM     46  O   UNL     1     109.054 127.380 141.312  0.00  0.00    +0.000 OA
ATOM     47  C   UNL     1     107.404 127.888 143.085  0.00  0.00    +0.000 C 
ATOM     48  C   UNL     1     108.018 128.417 142.929  0.00  0.00    +0.000 C 
ATOM     49  C   UNL     1     108.568 128.248 142.338  0.00  0.00    +0.000 C 
ATOM     50  C   UNL     1     108.504 127.549 141.903  0.00  0.00    +0.000 C 
ATOM     51  C   UNL     1     107.890 127.020 142.059  0.00  0.00    +0.000 C 
BRANCH  51  52
ATOM     52  C   UNL     1     107.827 126.323 141.625  0.00  0.00    +0.000 C 
BRANCH  52  53
ATOM     53  O   UNL     1     107.097 126.093 141.317  0.00  0.00    +0.000 OA
BRANCH  53  55
ATOM     54  O   UNL     1     107.343 124.700 141.518  0.00  0.00    +0.000 OA
ATOM     55  C   UNL     1     106.967 125.307 141.104  0.00  0.00    +0.000 C 
BRANCH  55  56
ATOM     56  C   UNL     1     106.461 125.126 140.478  0.00  0.00    +0.000 C 
ATOM     57  C   UNL     1     105.774 124.692 140.614  0.00  0.00    +0.000 C 
BRANCH  57  59
ATOM     58  O   UNL     1     103.753 123.966 138.109  0.00  0.00    +0.000 OA
ATOM     59  C   UNL     1     105.268 124.511 139.988  0.00  0.00    +0.000 A 
ATOM     60  C   UNL     1     104.705 125.059 139.740  0.00  0.00    +0.000 A 
ATOM     61  C   UNL     1     105.327 123.780 139.609  0.00  0.00    +0.000 A 
ATOM     62  C   UNL     1     104.200 124.878 139.114  0.00  0.00    +0.000 A 
ATOM     63  C   UNL     1     104.822 123.598 138.983  0.00  0.00    +0.000 A 
ATOM     64  C   UNL     1     104.258 124.148 138.735  0.00  0.00    +0.000 A 
ENDBRANCH  57  59
ENDBRANCH  55  56
ENDBRANCH  53  55
ENDBRANCH  52  53
ENDBRANCH  51  52
ENDBRANCH  42  47
ENDBRANCH   4  42
TORSDOF 13
ENDMDL
MODEL 9
REMARK VINA RESULT:     -10.7      2.036      3.369
REMARK  Name = 131752282
REMARK  13 active torsions:
REMARK  status: ('A' for Active; 'I' for Inactive)
REMARK    1  A    between atoms: O_1  and  C_23
REMARK    2  A    between atoms: O_1  and  C_28
REMARK    3  A    between atoms: O_10  and  C_35
REMARK    4  A    between atoms: O_10  and  C_50
REMARK    5  A    between atoms: O_15  and  C_45
REMARK    6  A    between atoms: O_15  and  C_52
REMARK    7  A    between atoms: C_25  and  C_33
REMARK    8  A    between atoms: C_27  and  C_34
REMARK    9  A    between atoms: C_32  and  C_35
REMARK   10  A    between atoms: C_44  and  C_47
REMARK   11  A    between atoms: C_48  and  C_51
REMARK   12  A    between atoms: C_50  and  C_57
REMARK   13  A    between atoms: C_58  and  C_59
REMARK                            x       y       z     vdW  Elec       q    Type
REMARK                         _______ _______ _______ _____ _____    ______ ____
ROOT
ATOM      1  O   UNL     1     110.716 130.061 138.741  0.00  0.00    +0.000 OA
ATOM      2  O   UNL     1     109.377 127.980 138.693  0.00  0.00    +0.000 OA
ATOM      3  O   UNL     1     110.012 128.585 137.295  0.00  0.00    +0.000 OA
ATOM      4  C   UNL     1     109.952 129.065 139.424  0.00  0.00    +0.000 C 
ATOM      5  C   UNL     1     109.823 128.673 138.709  0.00  0.00    +0.000 C 
ATOM      6  C   UNL     1     110.398 129.758 139.440  0.00  0.00    +0.000 C 
ATOM      7  C   UNL     1     110.140 128.976 138.010  0.00  0.00    +0.000 C 
ATOM      8  C   UNL     1     110.587 129.670 138.026  0.00  0.00    +0.000 C 
ENDROOT
BRANCH   6  13
ATOM      9  O   UNL     1     111.867 129.653 140.186  0.00  0.00    +0.000 OA
ATOM     10  O   UNL     1     109.188 130.646 140.123  0.00  0.00    +0.000 OA
ATOM     11  O   UNL     1     110.907 131.346 142.327  0.00  0.00    +0.000 OA
ATOM     12  O   UNL     1     112.759 129.980 141.271  0.00  0.00    +0.000 OA
ATOM     13  C   UNL     1     110.528 130.150 140.155  0.00  0.00    +0.000 A 
ATOM     14  C   UNL     1     111.261 130.098 140.527  0.00  0.00    +0.000 A 
ATOM     15  C   UNL     1     109.922 130.594 140.496  0.00  0.00    +0.000 A 
ATOM     16  C   UNL     1     111.390 130.489 141.241  0.00  0.00    +0.000 A 
ATOM     17  C   UNL     1     110.051 130.986 141.210  0.00  0.00    +0.000 A 
ATOM     18  C   UNL     1     110.785 130.934 141.583  0.00  0.00    +0.000 A 
ATOM     19  C   UNL     1     112.159 130.427 141.620  0.00  0.00    +0.000 A 
ATOM     20  C   UNL     1     111.669 131.296 142.721  0.00  0.00    +0.000 A 
ATOM     21  C   UNL     1     112.300 130.833 142.365  0.00  0.00    +0.000 A 
BRANCH  20  22
ATOM     22  C   UNL     1     111.795 131.688 143.434  0.00  0.00    +0.000 A 
ATOM     23  C   UNL     1     112.046 132.475 144.863  0.00  0.00    +0.000 A 
ATOM     24  C   UNL     1     111.710 131.284 144.148  0.00  0.00    +0.000 A 
ATOM     25  C   UNL     1     112.005 132.486 143.436  0.00  0.00    +0.000 A 
ATOM     26  C   UNL     1     111.836 131.677 144.863  0.00  0.00    +0.000 A 
ATOM     27  C   UNL     1     112.131 132.879 144.149  0.00  0.00    +0.000 A 
BRANCH  23  28
ATOM     28  O   UNL     1     112.172 132.868 145.578  0.00  0.00    +0.000 OA
BRANCH  28  37
ATOM     29  O   UNL     1     110.788 133.189 145.734  0.00  0.00    +0.000 OA
ATOM     30  O   UNL     1     111.101 133.343 148.185  0.00  0.00    +0.000 OA
ATOM     31  O   UNL     1     109.613 133.612 147.525  0.00  0.00    +0.000 OA
ATOM     32  O   UNL     1     112.381 132.971 147.211  0.00  0.00    +0.000 OA
ATOM     33  C   UNL     1     110.997 133.292 147.368  0.00  0.00    +0.000 C 
ATOM     34  C   UNL     1     110.253 133.426 147.038  0.00  0.00    +0.000 C 
ATOM     35  C   UNL     1     111.637 133.106 146.881  0.00  0.00    +0.000 C 
ATOM     36  C   UNL     1     110.149 133.375 146.221  0.00  0.00    +0.000 C 
ATOM     37  C   UNL     1     111.532 133.054 146.064  0.00  0.00    +0.000 C 
BRANCH  36  39
ATOM     38  O   UNL     1     109.334 133.966 145.206  0.00  0.00    +0.000 OA
ATOM     39  C   UNL     1     109.405 133.509 145.891  0.00  0.00    +0.000 C 
ENDBRANCH  36  39
ENDBRANCH  28  37
ENDBRANCH  23  28
ENDBRANCH  20  22
ENDBRANCH   6  13
BRANCH   8  41
ATOM     40  O   UNL     1     110.917 130.788 137.199  0.00  0.00    +0.000 OA
ATOM     41  C   UNL     1     110.905 129.973 137.327  0.00  0.00    +0.000 C 
ENDBRANCH   8  41
BRANCH   4  42
ATOM     42  O   UNL     1     109.635 128.763 140.123  0.00  0.00    +0.000 OA
BRANCH  42  47
ATOM     43  O   UNL     1     110.506 127.634 140.217  0.00  0.00    +0.000 OA
ATOM     44  O   UNL     1     108.401 127.862 140.745  0.00  0.00    +0.000 OA
ATOM     45  O   UNL     1     108.655 126.283 141.150  0.00  0.00    +0.000 OA
ATOM     46  O   UNL     1     110.144 125.604 140.934  0.00  0.00    +0.000 OA
ATOM     47  C   UNL     1     109.763 127.973 140.325  0.00  0.00    +0.000 C 
ATOM     48  C   UNL     1     109.146 127.523 140.636  0.00  0.00    +0.000 C 
ATOM     49  C   UNL     1     109.272 126.733 140.839  0.00  0.00    +0.000 C 
ATOM     50  C   UNL     1     110.017 126.394 140.731  0.00  0.00    +0.000 C 
ATOM     51  C   UNL     1     110.634 126.844 140.419  0.00  0.00    +0.000 C 
BRANCH  51  52
ATOM     52  C   UNL     1     111.378 126.505 140.311  0.00  0.00    +0.000 C 
BRANCH  52  53
ATOM     53  O   UNL     1     111.842 126.726 139.666  0.00  0.00    +0.000 OA
BRANCH  53  55
ATOM     54  O   UNL     1     113.131 126.579 140.264  0.00  0.00    +0.000 OA
ATOM     55  C   UNL     1     112.627 126.478 139.618  0.00  0.00    +0.000 C 
BRANCH  55  56
ATOM     56  C   UNL     1     112.910 126.129 138.926  0.00  0.00    +0.000 C 
ATOM     57  C   UNL     1     113.652 126.335 138.632  0.00  0.00    +0.000 C 
BRANCH  57  59
ATOM     58  O   UNL     1     114.782 124.938 135.865  0.00  0.00    +0.000 OA
ATOM     59  C   UNL     1     113.934 125.986 137.940  0.00  0.00    +0.000 A 
ATOM     60  C   UNL     1     113.749 126.315 137.207  0.00  0.00    +0.000 A 
ATOM     61  C   UNL     1     114.402 125.308 137.982  0.00  0.00    +0.000 A 
ATOM     62  C   UNL     1     114.032 125.966 136.515  0.00  0.00    +0.000 A 
ATOM     63  C   UNL     1     114.684 124.958 137.290  0.00  0.00    +0.000 A 
ATOM     64  C   UNL     1     114.499 125.287 136.557  0.00  0.00    +0.000 A 
ENDBRANCH  57  59
ENDBRANCH  55  56
ENDBRANCH  53  55
ENDBRANCH  52  53
ENDBRANCH  51  52
ENDBRANCH  42  47
ENDBRANCH   4  42
TORSDOF 13
ENDMDL
MODEL 10
REMARK VINA RESULT:     -10.6      1.354      3.909
REMARK  Name = 131752282
REMARK  13 active torsions:
REMARK  status: ('A' for Active; 'I' for Inactive)
REMARK    1  A    between atoms: O_1  and  C_23
REMARK    2  A    between atoms: O_1  and  C_28
REMARK    3  A    between atoms: O_10  and  C_35
REMARK    4  A    between atoms: O_10  and  C_50
REMARK    5  A    between atoms: O_15  and  C_45
REMARK    6  A    between atoms: O_15  and  C_52
REMARK    7  A    between atoms: C_25  and  C_33
REMARK    8  A    between atoms: C_27  and  C_34
REMARK    9  A    between atoms: C_32  and  C_35
REMARK   10  A    between atoms: C_44  and  C_47
REMARK   11  A    between atoms: C_48  and  C_51
REMARK   12  A    between atoms: C_50  and  C_57
REMARK   13  A    between atoms: C_58  and  C_59
REMARK                            x       y       z     vdW  Elec       q    Type
REMARK                         _______ _______ _______ _____ _____    ______ ____
ROOT
ATOM      1  O   UNL     1     113.560 125.954 137.985  0.00  0.00    +0.000 OA
ATOM      2  O   UNL     1     111.988 125.461 136.139  0.00  0.00    +0.000 OA
ATOM      3  O   UNL     1     113.573 125.022 136.012  0.00  0.00    +0.000 OA
ATOM      4  C   UNL     1     112.244 126.009 137.434  0.00  0.00    +0.000 C 
ATOM      5  C   UNL     1     112.511 125.625 136.754  0.00  0.00    +0.000 C 
ATOM      6  C   UNL     1     112.767 126.174 138.048  0.00  0.00    +0.000 C 
ATOM      7  C   UNL     1     113.304 125.406 136.690  0.00  0.00    +0.000 C 
ATOM      8  C   UNL     1     113.829 125.571 137.306  0.00  0.00    +0.000 C 
ENDROOT
BRANCH   6  13
ATOM      9  O   UNL     1     113.187 127.745 138.329  0.00  0.00    +0.000 OA
ATOM     10  O   UNL     1     111.812 125.370 139.126  0.00  0.00    +0.000 OA
ATOM     11  O   UNL     1     111.678 127.712 140.798  0.00  0.00    +0.000 OA
ATOM     12  O   UNL     1     113.145 128.938 139.138  0.00  0.00    +0.000 OA
ATOM     13  C   UNL     1     112.499 126.558 138.728  0.00  0.00    +0.000 A 
ATOM     14  C   UNL     1     112.709 127.343 138.869  0.00  0.00    +0.000 A 
ATOM     15  C   UNL     1     112.022 126.156 139.267  0.00  0.00    +0.000 A 
ATOM     16  C   UNL     1     112.441 127.726 139.547  0.00  0.00    +0.000 A 
ATOM     17  C   UNL     1     111.754 126.539 139.946  0.00  0.00    +0.000 A 
ATOM     18  C   UNL     1     111.963 127.324 140.087  0.00  0.00    +0.000 A 
ATOM     19  C   UNL     1     112.666 128.544 139.683  0.00  0.00    +0.000 A 
ATOM     20  C   UNL     1     111.893 128.531 140.950  0.00  0.00    +0.000 A 
ATOM     21  C   UNL     1     112.390 128.950 140.389  0.00  0.00    +0.000 A 
BRANCH  20  22
ATOM     22  C   UNL     1     111.623 128.911 141.630  0.00  0.00    +0.000 A 
ATOM     23  C   UNL     1     111.083 129.672 142.991  0.00  0.00    +0.000 A 
ATOM     24  C   UNL     1     111.996 128.776 142.354  0.00  0.00    +0.000 A 
ATOM     25  C   UNL     1     110.980 129.427 141.588  0.00  0.00    +0.000 A 
ATOM     26  C   UNL     1     111.726 129.157 143.035  0.00  0.00    +0.000 A 
ATOM     27  C   UNL     1     110.711 129.807 142.268  0.00  0.00    +0.000 A 
BRANCH  23  28
ATOM     28  O   UNL     1     110.813 130.053 143.672  0.00  0.00    +0.000 OA
BRANCH  28  37
ATOM     29  O   UNL     1     111.508 131.291 143.508  0.00  0.00    +0.000 OA
ATOM     30  O   UNL     1     112.012 131.328 145.931  0.00  0.00    +0.000 OA
ATOM     31  O   UNL     1     112.539 132.553 144.959  0.00  0.00    +0.000 OA
ATOM     32  O   UNL     1     111.149 130.078 145.287  0.00  0.00    +0.000 OA
ATOM     33  C   UNL     1     111.844 131.315 145.123  0.00  0.00    +0.000 C 
ATOM     34  C   UNL     1     112.108 131.928 144.638  0.00  0.00    +0.000 C 
ATOM     35  C   UNL     1     111.413 130.690 144.802  0.00  0.00    +0.000 C 
ATOM     36  C   UNL     1     111.939 131.915 143.830  0.00  0.00    +0.000 C 
ATOM     37  C   UNL     1     111.245 130.678 143.993  0.00  0.00    +0.000 C 
BRANCH  36  39
ATOM     38  O   UNL     1     111.669 132.927 142.857  0.00  0.00    +0.000 OA
ATOM     39  C   UNL     1     112.203 132.528 143.344  0.00  0.00    +0.000 C 
ENDBRANCH  36  39
ENDBRANCH  28  37
ENDBRANCH  23  28
ENDBRANCH  20  22
ENDBRANCH   6  13
BRANCH   8  41
ATOM     40  O   UNL     1     115.008 125.011 137.887  0.00  0.00    +0.000 OA
ATOM     41  C   UNL     1     114.622 125.351 137.242  0.00  0.00    +0.000 C 
ENDBRANCH   8  41
BRANCH   4  42
ATOM     42  O   UNL     1     111.451 126.229 137.497  0.00  0.00    +0.000 OA
BRANCH  42  47
ATOM     43  O   UNL     1     111.390 127.330 136.589  0.00  0.00    +0.000 OA
ATOM     44  O   UNL     1     110.089 125.592 136.817  0.00  0.00    +0.000 OA
ATOM     45  O   UNL     1     109.347 126.374 135.568  0.00  0.00    +0.000 OA
ATOM     46  O   UNL     1     109.967 127.794 135.000  0.00  0.00    +0.000 OA
ATOM     47  C   UNL     1     111.080 126.620 136.873  0.00  0.00    +0.000 C 
ATOM     48  C   UNL     1     110.399 126.302 136.533  0.00  0.00    +0.000 C 
ATOM     49  C   UNL     1     110.028 126.693 135.908  0.00  0.00    +0.000 C 
ATOM     50  C   UNL     1     110.338 127.403 135.624  0.00  0.00    +0.000 C 
ATOM     51  C   UNL     1     111.019 127.722 135.964  0.00  0.00    +0.000 C 
BRANCH  51  52
ATOM     52  C   UNL     1     111.329 128.431 135.680  0.00  0.00    +0.000 C 
BRANCH  52  53
ATOM     53  O   UNL     1     111.652 128.980 136.204  0.00  0.00    +0.000 OA
BRANCH  53  55
ATOM     54  O   UNL     1     112.217 129.983 135.359  0.00  0.00    +0.000 OA
ATOM     55  C   UNL     1     111.721 129.771 135.983  0.00  0.00    +0.000 C 
BRANCH  55  56
ATOM     56  C   UNL     1     111.293 130.352 136.384  0.00  0.00    +0.000 C 
ATOM     57  C   UNL     1     111.690 130.955 136.782  0.00  0.00    +0.000 C 
BRANCH  57  59
ATOM     58  O   UNL     1     109.981 133.275 138.391  0.00  0.00    +0.000 OA
ATOM     59  C   UNL     1     111.263 131.536 137.184  0.00  0.00    +0.000 A 
ATOM     60  C   UNL     1     111.154 132.279 136.844  0.00  0.00    +0.000 A 
ATOM     61  C   UNL     1     110.944 131.372 137.927  0.00  0.00    +0.000 A 
ATOM     62  C   UNL     1     110.727 132.858 137.245  0.00  0.00    +0.000 A 
ATOM     63  C   UNL     1     110.516 131.952 138.330  0.00  0.00    +0.000 A 
ATOM     64  C   UNL     1     110.408 132.695 137.988  0.00  0.00    +0.000 A 
ENDBRANCH  57  59
ENDBRANCH  55  56
ENDBRANCH  53  55
ENDBRANCH  52  53
ENDBRANCH  51  52
ENDBRANCH  42  47
ENDBRANCH   4  42
TORSDOF 13
ENDMDL
