MODEL 1
REMARK VINA RESULT:     -10.2      0.000      0.000
REMARK  Name = 100927068
REMARK  3 active torsions:
REMARK  status: ('A' for Active; 'I' for Inactive)
REMARK    1  A    between atoms: O_1  and  C_13
REMARK    2  A    between atoms: O_1  and  C_16
REMARK    3  A    between atoms: C_17  and  C_20
REMARK                            x       y       z     vdW  Elec       q    Type
REMARK                         _______ _______ _______ _____ _____    ______ ____
ROOT
ATOM      1  O   UNL     1     105.633 124.418 147.698  0.00  0.00    +0.000 OA
ATOM      2  O   UNL     1     107.046 125.597 146.043  0.00  0.00    +0.000 OA
ATOM      3  O   UNL     1     108.155 125.622 146.965  0.00  0.00    +0.000 OA
ATOM      4  O   UNL     1     107.827 124.432 149.612  0.00  0.00    +0.000 OA
ATOM      5  C   UNL     1     105.798 125.002 146.404  0.00  0.00    +0.000 C 
ATOM      6  C   UNL     1     105.327 124.609 146.955  0.00  0.00    +0.000 C 
ATOM      7  C   UNL     1     106.575 125.204 146.595  0.00  0.00    +0.000 C 
ATOM      8  C   UNL     1     106.880 125.013 147.336  0.00  0.00    +0.000 A 
ATOM      9  C   UNL     1     106.409 124.621 147.888  0.00  0.00    +0.000 A 
ATOM     10  C   UNL     1     107.691 125.229 147.523  0.00  0.00    +0.000 A 
ATOM     11  C   UNL     1     106.716 124.416 148.665  0.00  0.00    +0.000 A 
ATOM     12  C   UNL     1     108.015 125.033 148.294  0.00  0.00    +0.000 A 
ATOM     13  C   UNL     1     107.525 124.624 148.868  0.00  0.00    +0.000 A 
ENDROOT
BRANCH   6  16
ATOM     14  O   UNL     1     103.471 122.913 145.595  0.00  0.00    +0.000 OA
ATOM     15  O   UNL     1     102.218 123.802 146.197  0.00  0.00    +0.000 OA
ATOM     16  C   UNL     1     104.550 124.407 146.765  0.00  0.00    +0.000 A 
ATOM     17  C   UNL     1     104.399 123.761 146.275  0.00  0.00    +0.000 A 
ATOM     18  C   UNL     1     103.923 124.852 147.067  0.00  0.00    +0.000 A 
ATOM     19  C   UNL     1     103.622 123.559 146.086  0.00  0.00    +0.000 A 
ATOM     20  C   UNL     1     103.146 124.649 146.877  0.00  0.00    +0.000 A 
ATOM     21  C   UNL     1     102.996 124.003 146.386  0.00  0.00    +0.000 A 
ENDBRANCH   6  16
BRANCH   5  22
ATOM     22  O   UNL     1     105.492 125.193 145.662  0.00  0.00    +0.000 OA
BRANCH  22  28
ATOM     23  O   UNL     1     105.398 126.585 145.971  0.00  0.00    +0.000 OA
ATOM     24  O   UNL     1     105.590 125.557 144.056  0.00  0.00    +0.000 OA
ATOM     25  O   UNL     1     105.545 127.130 143.562  0.00  0.00    +0.000 OA
ATOM     26  O   UNL     1     105.402 128.340 144.675  0.00  0.00    +0.000 OA
ATOM     27  C   UNL     1     105.519 126.162 144.611  0.00  0.00    +0.000 C 
ATOM     28  C   UNL     1     105.470 125.980 145.415  0.00  0.00    +0.000 C 
ATOM     29  C   UNL     1     105.496 126.949 144.365  0.00  0.00    +0.000 C 
ATOM     30  C   UNL     1     105.424 127.553 144.922  0.00  0.00    +0.000 C 
ATOM     31  C   UNL     1     105.375 127.372 145.724  0.00  0.00    +0.000 C 
ENDBRANCH  22  28
ENDBRANCH   5  22
TORSDOF 3
ENDMDL
MODEL 2
REMARK VINA RESULT:      -9.9      1.635      4.168
REMARK  Name = 100927068
REMARK  3 active torsions:
REMARK  status: ('A' for Active; 'I' for Inactive)
REMARK    1  A    between atoms: O_1  and  C_13
REMARK    2  A    between atoms: O_1  and  C_16
REMARK    3  A    between atoms: C_17  and  C_20
REMARK                            x       y       z     vdW  Elec       q    Type
REMARK                         _______ _______ _______ _____ _____    ______ ____
ROOT
ATOM      1  O   UNL     1     103.732 125.740 147.297  0.00  0.00    +0.000 OA
ATOM      2  O   UNL     1     105.647 124.403 146.478  0.00  0.00    +0.000 OA
ATOM      3  O   UNL     1     104.769 123.323 146.100  0.00  0.00    +0.000 OA
ATOM      4  O   UNL     1     101.898 123.602 146.561  0.00  0.00    +0.000 OA
ATOM      5  C   UNL     1     105.136 125.599 147.069  0.00  0.00    +0.000 C 
ATOM      6  C   UNL     1     104.498 126.045 147.342  0.00  0.00    +0.000 C 
ATOM      7  C   UNL     1     105.008 124.849 146.751  0.00  0.00    +0.000 C 
ATOM      8  C   UNL     1     104.244 124.545 146.705  0.00  0.00    +0.000 A 
ATOM      9  C   UNL     1     103.605 124.990 146.978  0.00  0.00    +0.000 A 
ATOM     10  C   UNL     1     104.124 123.762 146.371  0.00  0.00    +0.000 A 
ATOM     11  C   UNL     1     102.803 124.684 146.936  0.00  0.00    +0.000 A 
ATOM     12  C   UNL     1     103.329 123.439 146.321  0.00  0.00    +0.000 A 
ATOM     13  C   UNL     1     102.665 123.903 146.605  0.00  0.00    +0.000 A 
ENDROOT
BRANCH   6  16
ATOM     14  O   UNL     1     104.684 127.772 149.612  0.00  0.00    +0.000 OA
ATOM     15  O   UNL     1     105.004 129.048 148.615  0.00  0.00    +0.000 OA
ATOM     16  C   UNL     1     104.624 126.795 147.661  0.00  0.00    +0.000 A 
ATOM     17  C   UNL     1     104.591 126.908 148.478  0.00  0.00    +0.000 A 
ATOM     18  C   UNL     1     104.785 127.433 147.162  0.00  0.00    +0.000 A 
ATOM     19  C   UNL     1     104.718 127.659 148.795  0.00  0.00    +0.000 A 
ATOM     20  C   UNL     1     104.911 128.184 147.481  0.00  0.00    +0.000 A 
ATOM     21  C   UNL     1     104.878 128.297 148.298  0.00  0.00    +0.000 A 
ENDBRANCH   6  16
BRANCH   5  22
ATOM     22  O   UNL     1     105.901 125.904 147.115  0.00  0.00    +0.000 OA
BRANCH  22  28
ATOM     23  O   UNL     1     106.250 125.069 148.222  0.00  0.00    +0.000 OA
ATOM     24  O   UNL     1     107.494 126.018 146.700  0.00  0.00    +0.000 OA
ATOM     25  O   UNL     1     108.639 125.241 147.599  0.00  0.00    +0.000 OA
ATOM     26  O   UNL     1     108.190 124.350 148.913  0.00  0.00    +0.000 OA
ATOM     27  C   UNL     1     107.270 125.573 147.357  0.00  0.00    +0.000 C 
ATOM     28  C   UNL     1     106.473 125.515 147.565  0.00  0.00    +0.000 C 
ATOM     29  C   UNL     1     107.843 125.184 147.807  0.00  0.00    +0.000 C 
ATOM     30  C   UNL     1     107.618 124.738 148.464  0.00  0.00    +0.000 C 
ATOM     31  C   UNL     1     106.822 124.681 148.671  0.00  0.00    +0.000 C 
ENDBRANCH  22  28
ENDBRANCH   5  22
TORSDOF 3
ENDMDL
MODEL 3
REMARK VINA RESULT:      -9.7      1.713      4.139
REMARK  Name = 100927068
REMARK  3 active torsions:
REMARK  status: ('A' for Active; 'I' for Inactive)
REMARK    1  A    between atoms: O_1  and  C_13
REMARK    2  A    between atoms: O_1  and  C_16
REMARK    3  A    between atoms: C_17  and  C_20
REMARK                            x       y       z     vdW  Elec       q    Type
REMARK                         _______ _______ _______ _____ _____    ______ ____
ROOT
ATOM      1  O   UNL     1     104.980 124.103 147.037  0.00  0.00    +0.000 OA
ATOM      2  O   UNL     1     103.363 125.682 148.045  0.00  0.00    +0.000 OA
ATOM      3  O   UNL     1     102.265 125.032 147.373  0.00  0.00    +0.000 OA
ATOM      4  O   UNL     1     102.814 122.740 145.647  0.00  0.00    +0.000 OA
ATOM      5  C   UNL     1     104.707 125.224 147.880  0.00  0.00    +0.000 C 
ATOM      6  C   UNL     1     105.246 124.698 147.544  0.00  0.00    +0.000 C 
ATOM      7  C   UNL     1     103.902 125.156 147.709  0.00  0.00    +0.000 C 
ATOM      8  C   UNL     1     103.637 124.562 147.202  0.00  0.00    +0.000 A 
ATOM      9  C   UNL     1     104.176 124.036 146.866  0.00  0.00    +0.000 A 
ATOM     10  C   UNL     1     102.797 124.501 147.032  0.00  0.00    +0.000 A 
ATOM     11  C   UNL     1     103.913 123.411 146.336  0.00  0.00    +0.000 A 
ATOM     12  C   UNL     1     102.515 123.884 146.505  0.00  0.00    +0.000 A 
ATOM     13  C   UNL     1     103.076 123.336 146.155  0.00  0.00    +0.000 A 
ENDROOT
BRANCH   6  16
ATOM     14  O   UNL     1     107.882 125.488 146.774  0.00  0.00    +0.000 OA
ATOM     15  O   UNL     1     108.463 124.967 148.228  0.00  0.00    +0.000 OA
ATOM     16  C   UNL     1     106.050 124.766 147.714  0.00  0.00    +0.000 A 
ATOM     17  C   UNL     1     106.564 125.094 147.158  0.00  0.00    +0.000 A 
ATOM     18  C   UNL     1     106.340 124.505 148.442  0.00  0.00    +0.000 A 
ATOM     19  C   UNL     1     107.368 125.161 147.330  0.00  0.00    +0.000 A 
ATOM     20  C   UNL     1     107.145 124.572 148.612  0.00  0.00    +0.000 A 
ATOM     21  C   UNL     1     107.658 124.900 148.056  0.00  0.00    +0.000 A 
ENDBRANCH   6  16
BRANCH   5  22
ATOM     22  O   UNL     1     104.972 125.818 148.387  0.00  0.00    +0.000 OA
BRANCH  22  28
ATOM     23  O   UNL     1     104.786 126.846 147.411  0.00  0.00    +0.000 OA
ATOM     24  O   UNL     1     104.799 126.932 149.592  0.00  0.00    +0.000 OA
ATOM     25  O   UNL     1     104.528 128.516 149.219  0.00  0.00    +0.000 OA
ATOM     26  O   UNL     1     104.429 128.987 147.641  0.00  0.00    +0.000 OA
ATOM     27  C   UNL     1     104.750 127.168 148.803  0.00  0.00    +0.000 C 
ATOM     28  C   UNL     1     104.836 126.610 148.200  0.00  0.00    +0.000 C 
ATOM     29  C   UNL     1     104.614 127.960 148.617  0.00  0.00    +0.000 C 
ATOM     30  C   UNL     1     104.564 128.194 147.827  0.00  0.00    +0.000 C 
ATOM     31  C   UNL     1     104.650 127.638 147.225  0.00  0.00    +0.000 C 
ENDBRANCH  22  28
ENDBRANCH   5  22
TORSDOF 3
ENDMDL
MODEL 4
REMARK VINA RESULT:      -9.6      1.170      3.667
REMARK  Name = 100927068
REMARK  3 active torsions:
REMARK  status: ('A' for Active; 'I' for Inactive)
REMARK    1  A    between atoms: O_1  and  C_13
REMARK    2  A    between atoms: O_1  and  C_16
REMARK    3  A    between atoms: C_17  and  C_20
REMARK                            x       y       z     vdW  Elec       q    Type
REMARK                         _______ _______ _______ _____ _____    ______ ____
ROOT
ATOM      1  O   UNL     1     103.891 124.356 148.054  0.00  0.00    +0.000 OA
ATOM      2  O   UNL     1     104.165 124.199 145.599  0.00  0.00    +0.000 OA
ATOM      3  O   UNL     1     102.783 123.818 145.440  0.00  0.00    +0.000 OA
ATOM      4  O   UNL     1     101.092 123.590 147.811  0.00  0.00    +0.000 OA
ATOM      5  C   UNL     1     104.715 124.466 146.891  0.00  0.00    +0.000 C 
ATOM      6  C   UNL     1     104.623 124.518 147.709  0.00  0.00    +0.000 C 
ATOM      7  C   UNL     1     104.074 124.252 146.417  0.00  0.00    +0.000 C 
ATOM      8  C   UNL     1     103.342 124.089 146.761  0.00  0.00    +0.000 A 
ATOM      9  C   UNL     1     103.251 124.142 147.580  0.00  0.00    +0.000 A 
ATOM     10  C   UNL     1     102.682 123.867 146.257  0.00  0.00    +0.000 A 
ATOM     11  C   UNL     1     102.493 123.975 147.951  0.00  0.00    +0.000 A 
ATOM     12  C   UNL     1     101.918 123.697 146.610  0.00  0.00    +0.000 A 
ATOM     13  C   UNL     1     101.823 123.751 147.462  0.00  0.00    +0.000 A 
ENDROOT
BRANCH   6  16
ATOM     14  O   UNL     1     105.954 126.441 149.352  0.00  0.00    +0.000 OA
ATOM     15  O   UNL     1     107.185 125.373 149.606  0.00  0.00    +0.000 OA
ATOM     16  C   UNL     1     105.263 124.732 148.183  0.00  0.00    +0.000 A 
ATOM     17  C   UNL     1     105.288 125.480 148.530  0.00  0.00    +0.000 A 
ATOM     18  C   UNL     1     105.880 124.197 148.310  0.00  0.00    +0.000 A 
ATOM     19  C   UNL     1     105.929 125.693 149.005  0.00  0.00    +0.000 A 
ATOM     20  C   UNL     1     106.520 124.412 148.784  0.00  0.00    +0.000 A 
ATOM     21  C   UNL     1     106.544 125.159 149.131  0.00  0.00    +0.000 A 
ENDBRANCH   6  16
BRANCH   5  22
ATOM     22  O   UNL     1     105.446 124.628 146.546  0.00  0.00    +0.000 OA
BRANCH  22  28
ATOM     23  O   UNL     1     105.024 125.900 146.051  0.00  0.00    +0.000 OA
ATOM     24  O   UNL     1     106.578 124.538 145.349  0.00  0.00    +0.000 OA
ATOM     25  O   UNL     1     106.721 125.765 144.255  0.00  0.00    +0.000 OA
ATOM     26  O   UNL     1     105.732 127.082 144.358  0.00  0.00    +0.000 OA
ATOM     27  C   UNL     1     106.084 125.196 145.400  0.00  0.00    +0.000 C 
ATOM     28  C   UNL     1     105.517 125.241 145.999  0.00  0.00    +0.000 C 
ATOM     29  C   UNL     1     106.155 125.810 144.853  0.00  0.00    +0.000 C 
ATOM     30  C   UNL     1     105.660 126.468 144.905  0.00  0.00    +0.000 C 
ATOM     31  C   UNL     1     105.095 126.513 145.504  0.00  0.00    +0.000 C 
ENDBRANCH  22  28
ENDBRANCH   5  22
TORSDOF 3
ENDMDL
MODEL 5
REMARK VINA RESULT:      -9.5     11.929     13.039
REMARK  Name = 100927068
REMARK  3 active torsions:
REMARK  status: ('A' for Active; 'I' for Inactive)
REMARK    1  A    between atoms: O_1  and  C_13
REMARK    2  A    between atoms: O_1  and  C_16
REMARK    3  A    between atoms: C_17  and  C_20
REMARK                            x       y       z     vdW  Elec       q    Type
REMARK                         _______ _______ _______ _____ _____    ______ ____
ROOT
ATOM      1  O   UNL     1     111.921 125.858 136.116  0.00  0.00    +0.000 OA
ATOM      2  O   UNL     1     111.570 128.304 136.258  0.00  0.00    +0.000 OA
ATOM      3  O   UNL     1     110.338 128.199 135.516  0.00  0.00    +0.000 OA
ATOM      4  O   UNL     1     109.444 125.569 134.612  0.00  0.00    +0.000 OA
ATOM      5  C   UNL     1     112.354 127.147 136.556  0.00  0.00    +0.000 C 
ATOM      6  C   UNL     1     112.471 126.332 136.508  0.00  0.00    +0.000 C 
ATOM      7  C   UNL     1     111.687 127.488 136.210  0.00  0.00    +0.000 C 
ATOM      8  C   UNL     1     111.137 127.015 135.818  0.00  0.00    +0.000 A 
ATOM      9  C   UNL     1     111.254 126.200 135.771  0.00  0.00    +0.000 A 
ATOM     10  C   UNL     1     110.446 127.383 135.463  0.00  0.00    +0.000 A 
ATOM     11  C   UNL     1     110.688 125.695 135.365  0.00  0.00    +0.000 A 
ATOM     12  C   UNL     1     109.870 126.895 135.053  0.00  0.00    +0.000 A 
ATOM     13  C   UNL     1     109.992 126.046 135.004  0.00  0.00    +0.000 A 
ENDROOT
BRANCH   6  16
ATOM     14  O   UNL     1     115.063 125.154 136.253  0.00  0.00    +0.000 OA
ATOM     15  O   UNL     1     115.137 124.963 137.890  0.00  0.00    +0.000 OA
ATOM     16  C   UNL     1     113.138 125.989 136.853  0.00  0.00    +0.000 A 
ATOM     17  C   UNL     1     113.767 125.743 136.380  0.00  0.00    +0.000 A 
ATOM     18  C   UNL     1     113.175 125.894 137.672  0.00  0.00    +0.000 A 
ATOM     19  C   UNL     1     114.433 125.400 136.726  0.00  0.00    +0.000 A 
ATOM     20  C   UNL     1     113.842 125.552 138.017  0.00  0.00    +0.000 A 
ATOM     21  C   UNL     1     114.471 125.305 137.544  0.00  0.00    +0.000 A 
ENDBRANCH   6  16
BRANCH   5  22
ATOM     22  O   UNL     1     112.904 127.620 136.948  0.00  0.00    +0.000 OA
BRANCH  22  28
ATOM     23  O   UNL     1     113.420 128.172 135.735  0.00  0.00    +0.000 OA
ATOM     24  O   UNL     1     113.381 128.972 137.765  0.00  0.00    +0.000 OA
ATOM     25  O   UNL     1     114.135 130.199 136.960  0.00  0.00    +0.000 OA
ATOM     26  O   UNL     1     114.413 130.074 135.339  0.00  0.00    +0.000 OA
ATOM     27  C   UNL     1     113.520 128.910 136.954  0.00  0.00    +0.000 C 
ATOM     28  C   UNL     1     113.281 128.234 136.545  0.00  0.00    +0.000 C 
ATOM     29  C   UNL     1     113.897 129.524 136.552  0.00  0.00    +0.000 C 
ATOM     30  C   UNL     1     114.036 129.461 135.741  0.00  0.00    +0.000 C 
ATOM     31  C   UNL     1     113.798 128.786 135.333  0.00  0.00    +0.000 C 
ENDBRANCH  22  28
ENDBRANCH   5  22
TORSDOF 3
ENDMDL
MODEL 6
REMARK VINA RESULT:      -9.4     10.114     12.153
REMARK  Name = 100927068
REMARK  3 active torsions:
REMARK  status: ('A' for Active; 'I' for Inactive)
REMARK    1  A    between atoms: O_1  and  C_13
REMARK    2  A    between atoms: O_1  and  C_16
REMARK    3  A    between atoms: C_17  and  C_20
REMARK                            x       y       z     vdW  Elec       q    Type
REMARK                         _______ _______ _______ _____ _____    ______ ____
ROOT
ATOM      1  O   UNL     1     113.511 127.185 136.401  0.00  0.00    +0.000 OA
ATOM      2  O   UNL     1     112.389 128.311 138.298  0.00  0.00    +0.000 OA
ATOM      3  O   UNL     1     112.720 129.608 137.761  0.00  0.00    +0.000 OA
ATOM      4  O   UNL     1     114.214 129.768 135.256  0.00  0.00    +0.000 OA
ATOM      5  C   UNL     1     112.780 127.112 137.628  0.00  0.00    +0.000 C 
ATOM      6  C   UNL     1     113.154 126.736 136.995  0.00  0.00    +0.000 C 
ATOM      7  C   UNL     1     112.763 127.936 137.666  0.00  0.00    +0.000 C 
ATOM      8  C   UNL     1     113.120 128.384 137.073  0.00  0.00    +0.000 A 
ATOM      9  C   UNL     1     113.494 128.008 136.441  0.00  0.00    +0.000 A 
ATOM     10  C   UNL     1     113.096 129.242 137.125  0.00  0.00    +0.000 A 
ATOM     11  C   UNL     1     113.870 128.464 135.816  0.00  0.00    +0.000 A 
ATOM     12  C   UNL     1     113.466 129.714 136.510  0.00  0.00    +0.000 A 
ATOM     13  C   UNL     1     113.855 129.323 135.852  0.00  0.00    +0.000 A 
ENDROOT
BRANCH   6  16
ATOM     14  O   UNL     1     114.557 124.269 137.332  0.00  0.00    +0.000 OA
ATOM     15  O   UNL     1     113.219 123.440 136.836  0.00  0.00    +0.000 OA
ATOM     16  C   UNL     1     113.171 125.912 136.956  0.00  0.00    +0.000 A 
ATOM     17  C   UNL     1     113.856 125.503 137.164  0.00  0.00    +0.000 A 
ATOM     18  C   UNL     1     112.501 125.498 136.707  0.00  0.00    +0.000 A 
ATOM     19  C   UNL     1     113.872 124.679 137.124  0.00  0.00    +0.000 A 
ATOM     20  C   UNL     1     112.518 124.674 136.668  0.00  0.00    +0.000 A 
ATOM     21  C   UNL     1     113.203 124.265 136.876  0.00  0.00    +0.000 A 
ENDBRANCH   6  16
BRANCH   5  22
ATOM     22  O   UNL     1     112.423 126.663 138.220  0.00  0.00    +0.000 OA
BRANCH  22  28
ATOM     23  O   UNL     1     113.453 126.972 139.162  0.00  0.00    +0.000 OA
ATOM     24  O   UNL     1     111.389 126.328 139.462  0.00  0.00    +0.000 OA
ATOM     25  O   UNL     1     111.902 126.468 141.024  0.00  0.00    +0.000 OA
ATOM     26  O   UNL     1     113.449 126.944 141.344  0.00  0.00    +0.000 OA
ATOM     27  C   UNL     1     112.162 126.566 139.623  0.00  0.00    +0.000 C 
ATOM     28  C   UNL     1     112.679 126.734 139.001  0.00  0.00    +0.000 C 
ATOM     29  C   UNL     1     112.419 126.636 140.404  0.00  0.00    +0.000 C 
ATOM     30  C   UNL     1     113.193 126.874 140.563  0.00  0.00    +0.000 C 
ATOM     31  C   UNL     1     113.709 127.042 139.943  0.00  0.00    +0.000 C 
ENDBRANCH  22  28
ENDBRANCH   5  22
TORSDOF 3
ENDMDL
MODEL 7
REMARK VINA RESULT:      -9.4     10.633     11.974
REMARK  Name = 100927068
REMARK  3 active torsions:
REMARK  status: ('A' for Active; 'I' for Inactive)
REMARK    1  A    between atoms: O_1  and  C_13
REMARK    2  A    between atoms: O_1  and  C_16
REMARK    3  A    between atoms: C_17  and  C_20
REMARK                            x       y       z     vdW  Elec       q    Type
REMARK                         _______ _______ _______ _____ _____    ______ ____
ROOT
ATOM      1  O   UNL     1     111.020 125.268 136.509  0.00  0.00    +0.000 OA
ATOM      2  O   UNL     1     113.240 126.307 136.164  0.00  0.00    +0.000 OA
ATOM      3  O   UNL     1     113.903 125.072 136.505  0.00  0.00    +0.000 OA
ATOM      4  O   UNL     1     112.289 122.742 137.208  0.00  0.00    +0.000 OA
ATOM      5  C   UNL     1     111.815 126.406 136.165  0.00  0.00    +0.000 C 
ATOM      6  C   UNL     1     111.075 126.059 136.280  0.00  0.00    +0.000 C 
ATOM      7  C   UNL     1     112.500 125.960 136.279  0.00  0.00    +0.000 C 
ATOM      8  C   UNL     1     112.446 125.170 136.507  0.00  0.00    +0.000 A 
ATOM      9  C   UNL     1     111.706 124.824 136.622  0.00  0.00    +0.000 A 
ATOM     10  C   UNL     1     113.168 124.717 136.622  0.00  0.00    +0.000 A 
ATOM     11  C   UNL     1     111.636 124.000 136.860  0.00  0.00    +0.000 A 
ATOM     12  C   UNL     1     113.117 123.893 136.860  0.00  0.00    +0.000 A 
ATOM     13  C   UNL     1     112.347 123.533 136.980  0.00  0.00    +0.000 A 
ENDROOT
BRANCH   6  16
ATOM     14  O   UNL     1     108.869 127.526 137.353  0.00  0.00    +0.000 OA
ATOM     15  O   UNL     1     108.331 127.836 135.824  0.00  0.00    +0.000 OA
ATOM     16  C   UNL     1     110.389 126.503 136.167  0.00  0.00    +0.000 A 
ATOM     17  C   UNL     1     109.972 126.793 136.817  0.00  0.00    +0.000 A 
ATOM     18  C   UNL     1     110.120 126.658 135.401  0.00  0.00    +0.000 A 
ATOM     19  C   UNL     1     109.286 127.237 136.702  0.00  0.00    +0.000 A 
ATOM     20  C   UNL     1     109.434 127.102 135.288  0.00  0.00    +0.000 A 
ATOM     21  C   UNL     1     109.017 127.392 135.938  0.00  0.00    +0.000 A 
ENDBRANCH   6  16
BRANCH   5  22
ATOM     22  O   UNL     1     111.869 127.196 135.937  0.00  0.00    +0.000 OA
BRANCH  22  28
ATOM     23  O   UNL     1     112.310 127.619 137.229  0.00  0.00    +0.000 OA
ATOM     24  O   UNL     1     112.599 128.511 135.258  0.00  0.00    +0.000 OA
ATOM     25  O   UNL     1     113.405 129.591 136.210  0.00  0.00    +0.000 OA
ATOM     26  O   UNL     1     113.481 129.356 137.841  0.00  0.00    +0.000 OA
ATOM     27  C   UNL     1     112.637 128.394 136.073  0.00  0.00    +0.000 C 
ATOM     28  C   UNL     1     112.272 127.736 136.413  0.00  0.00    +0.000 C 
ATOM     29  C   UNL     1     113.040 128.934 136.549  0.00  0.00    +0.000 C 
ATOM     30  C   UNL     1     113.078 128.816 137.365  0.00  0.00    +0.000 C 
ATOM     31  C   UNL     1     112.713 128.159 137.705  0.00  0.00    +0.000 C 
ENDBRANCH  22  28
ENDBRANCH   5  22
TORSDOF 3
ENDMDL
MODEL 8
REMARK VINA RESULT:      -9.3      0.872      3.262
REMARK  Name = 100927068
REMARK  3 active torsions:
REMARK  status: ('A' for Active; 'I' for Inactive)
REMARK    1  A    between atoms: O_1  and  C_13
REMARK    2  A    between atoms: O_1  and  C_16
REMARK    3  A    between atoms: C_17  and  C_20
REMARK                            x       y       z     vdW  Elec       q    Type
REMARK                         _______ _______ _______ _____ _____    ______ ____
ROOT
ATOM      1  O   UNL     1     106.819 125.417 146.954  0.00  0.00    +0.000 OA
ATOM      2  O   UNL     1     104.843 124.689 148.254  0.00  0.00    +0.000 OA
ATOM      3  O   UNL     1     105.684 124.241 149.337  0.00  0.00    +0.000 OA
ATOM      4  O   UNL     1     108.580 124.536 149.099  0.00  0.00    +0.000 OA
ATOM      5  C   UNL     1     105.402 125.270 147.075  0.00  0.00    +0.000 C 
ATOM      6  C   UNL     1     106.060 125.513 146.642  0.00  0.00    +0.000 C 
ATOM      7  C   UNL     1     105.502 124.931 147.821  0.00  0.00    +0.000 C 
ATOM      8  C   UNL     1     106.258 124.835 148.133  0.00  0.00    +0.000 A 
ATOM      9  C   UNL     1     106.917 125.078 147.699  0.00  0.00    +0.000 A 
ATOM     10  C   UNL     1     106.349 124.481 148.911  0.00  0.00    +0.000 A 
ATOM     11  C   UNL     1     107.712 124.983 148.013  0.00  0.00    +0.000 A 
ATOM     12  C   UNL     1     107.135 124.378 149.241  0.00  0.00    +0.000 A 
ATOM     13  C   UNL     1     107.821 124.631 148.789  0.00  0.00    +0.000 A 
ENDROOT
BRANCH   6  16
ATOM     14  O   UNL     1     106.231 125.328 143.795  0.00  0.00    +0.000 OA
ATOM     15  O   UNL     1     105.666 126.872 143.660  0.00  0.00    +0.000 OA
ATOM     16  C   UNL     1     105.962 125.852 145.896  0.00  0.00    +0.000 A 
ATOM     17  C   UNL     1     106.146 125.420 145.218  0.00  0.00    +0.000 A 
ATOM     18  C   UNL     1     105.679 126.625 145.829  0.00  0.00    +0.000 A 
ATOM     19  C   UNL     1     106.047 125.760 144.473  0.00  0.00    +0.000 A 
ATOM     20  C   UNL     1     105.581 126.964 145.083  0.00  0.00    +0.000 A 
ATOM     21  C   UNL     1     105.765 126.532 144.405  0.00  0.00    +0.000 A 
ENDBRANCH   6  16
BRANCH   5  22
ATOM     22  O   UNL     1     104.645 125.367 146.763  0.00  0.00    +0.000 OA
BRANCH  22  28
ATOM     23  O   UNL     1     104.484 123.991 146.411  0.00  0.00    +0.000 OA
ATOM     24  O   UNL     1     103.020 125.490 147.020  0.00  0.00    +0.000 OA
ATOM     25  O   UNL     1     102.047 124.176 146.796  0.00  0.00    +0.000 OA
ATOM     26  O   UNL     1     102.699 122.739 146.315  0.00  0.00    +0.000 OA
ATOM     27  C   UNL     1     103.345 124.771 146.779  0.00  0.00    +0.000 C 
ATOM     28  C   UNL     1     104.158 124.710 146.651  0.00  0.00    +0.000 C 
ATOM     29  C   UNL     1     102.859 124.114 146.667  0.00  0.00    +0.000 C 
ATOM     30  C   UNL     1     103.186 123.396 146.427  0.00  0.00    +0.000 C 
ATOM     31  C   UNL     1     103.998 123.334 146.299  0.00  0.00    +0.000 C 
ENDBRANCH  22  28
ENDBRANCH   5  22
TORSDOF 3
ENDMDL
MODEL 9
REMARK VINA RESULT:      -9.3      9.811     11.621
REMARK  Name = 100927068
REMARK  3 active torsions:
REMARK  status: ('A' for Active; 'I' for Inactive)
REMARK    1  A    between atoms: O_1  and  C_13
REMARK    2  A    between atoms: O_1  and  C_16
REMARK    3  A    between atoms: C_17  and  C_20
REMARK                            x       y       z     vdW  Elec       q    Type
REMARK                         _______ _______ _______ _____ _____    ______ ____
ROOT
ATOM      1  O   UNL     1     113.398 126.203 138.759  0.00  0.00    +0.000 OA
ATOM      2  O   UNL     1     111.011 125.707 138.330  0.00  0.00    +0.000 OA
ATOM      3  O   UNL     1     110.638 126.250 139.613  0.00  0.00    +0.000 OA
ATOM      4  O   UNL     1     112.720 127.314 141.364  0.00  0.00    +0.000 OA
ATOM      5  C   UNL     1     112.375 125.683 137.905  0.00  0.00    +0.000 C 
ATOM      6  C   UNL     1     113.170 125.849 138.048  0.00  0.00    +0.000 C 
ATOM      7  C   UNL     1     111.806 125.873 138.473  0.00  0.00    +0.000 C 
ATOM      8  C   UNL     1     112.033 126.226 139.182  0.00  0.00    +0.000 A 
ATOM      9  C   UNL     1     112.828 126.392 139.325  0.00  0.00    +0.000 A 
ATOM     10  C   UNL     1     111.431 126.419 139.765  0.00  0.00    +0.000 A 
ATOM     11  C   UNL     1     113.078 126.761 140.061  0.00  0.00    +0.000 A 
ATOM     12  C   UNL     1     111.661 126.787 140.506  0.00  0.00    +0.000 A 
ATOM     13  C   UNL     1     112.489 126.959 140.655  0.00  0.00    +0.000 A 
ENDROOT
BRANCH   6  16
ATOM     14  O   UNL     1     114.906 126.643 135.921  0.00  0.00    +0.000 OA
ATOM     15  O   UNL     1     115.448 125.091 135.783  0.00  0.00    +0.000 OA
ATOM     16  C   UNL     1     113.740 125.660 137.482  0.00  0.00    +0.000 A 
ATOM     17  C   UNL     1     114.038 126.247 136.985  0.00  0.00    +0.000 A 
ATOM     18  C   UNL     1     114.011 124.883 137.413  0.00  0.00    +0.000 A 
ATOM     19  C   UNL     1     114.607 126.057 136.418  0.00  0.00    +0.000 A 
ATOM     20  C   UNL     1     114.580 124.694 136.846  0.00  0.00    +0.000 A 
ATOM     21  C   UNL     1     114.878 125.281 136.349  0.00  0.00    +0.000 A 
ENDBRANCH   6  16
BRANCH   5  22
ATOM     22  O   UNL     1     112.149 125.330 137.196  0.00  0.00    +0.000 OA
BRANCH  22  28
ATOM     23  O   UNL     1     111.573 126.540 136.699  0.00  0.00    +0.000 OA
ATOM     24  O   UNL     1     111.194 124.456 136.173  0.00  0.00    +0.000 OA
ATOM     25  O   UNL     1     110.141 125.229 135.164  0.00  0.00    +0.000 OA
ATOM     26  O   UNL     1     110.044 126.876 135.179  0.00  0.00    +0.000 OA
ATOM     27  C   UNL     1     111.144 125.279 136.180  0.00  0.00    +0.000 C 
ATOM     28  C   UNL     1     111.622 125.716 136.692  0.00  0.00    +0.000 C 
ATOM     29  C   UNL     1     110.618 125.666 135.675  0.00  0.00    +0.000 C 
ATOM     30  C   UNL     1     110.570 126.490 135.683  0.00  0.00    +0.000 C 
ATOM     31  C   UNL     1     111.047 126.926 136.195  0.00  0.00    +0.000 C 
ENDBRANCH  22  28
ENDBRANCH   5  22
TORSDOF 3
ENDMDL
MODEL 10
REMARK VINA RESULT:      -9.3      9.147     11.077
REMARK  Name = 100927068
REMARK  3 active torsions:
REMARK  status: ('A' for Active; 'I' for Inactive)
REMARK    1  A    between atoms: O_1  and  C_13
REMARK    2  A    between atoms: O_1  and  C_16
REMARK    3  A    between atoms: C_17  and  C_20
REMARK                            x       y       z     vdW  Elec       q    Type
REMARK                         _______ _______ _______ _____ _____    ______ ____
ROOT
ATOM      1  O   UNL     1     113.817 126.226 138.289  0.00  0.00    +0.000 OA
ATOM      2  O   UNL     1     111.758 124.917 137.870  0.00  0.00    +0.000 OA
ATOM      3  O   UNL     1     112.377 124.247 136.753  0.00  0.00    +0.000 OA
ATOM      4  O   UNL     1     115.132 124.915 136.046  0.00  0.00    +0.000 OA
ATOM      5  C   UNL     1     112.469 125.896 138.631  0.00  0.00    +0.000 C 
ATOM      6  C   UNL     1     113.155 126.332 138.771  0.00  0.00    +0.000 C 
ATOM      7  C   UNL     1     112.445 125.354 138.010  0.00  0.00    +0.000 C 
ATOM      8  C   UNL     1     113.106 125.247 137.529  0.00  0.00    +0.000 A 
ATOM      9  C   UNL     1     113.792 125.684 137.669  0.00  0.00    +0.000 A 
ATOM     10  C   UNL     1     113.068 124.679 136.885  0.00  0.00    +0.000 A 
ATOM     11  C   UNL     1     114.488 125.582 137.174  0.00  0.00    +0.000 A 
ATOM     12  C   UNL     1     113.753 124.564 136.380  0.00  0.00    +0.000 A 
ATOM     13  C   UNL     1     114.468 125.018 136.526  0.00  0.00    +0.000 A 
ENDROOT
BRANCH   6  16
ATOM     14  O   UNL     1     113.095 129.033 139.703  0.00  0.00    +0.000 OA
ATOM     15  O   UNL     1     113.256 128.501 141.256  0.00  0.00    +0.000 OA
ATOM     16  C   UNL     1     113.180 126.875 139.392  0.00  0.00    +0.000 A 
ATOM     17  C   UNL     1     113.125 127.683 139.236  0.00  0.00    +0.000 A 
ATOM     18  C   UNL     1     113.261 126.608 140.169  0.00  0.00    +0.000 A 
ATOM     19  C   UNL     1     113.150 128.225 139.858  0.00  0.00    +0.000 A 
ATOM     20  C   UNL     1     113.286 127.151 140.790  0.00  0.00    +0.000 A 
ATOM     21  C   UNL     1     113.230 127.959 140.635  0.00  0.00    +0.000 A 
ENDBRANCH   6  16
BRANCH   5  22
ATOM     22  O   UNL     1     111.808 126.002 139.112  0.00  0.00    +0.000 OA
BRANCH  22  28
ATOM     23  O   UNL     1     111.089 126.709 138.099  0.00  0.00    +0.000 OA
ATOM     24  O   UNL     1     110.381 125.567 139.819  0.00  0.00    +0.000 OA
ATOM     25  O   UNL     1     108.951 126.056 139.158  0.00  0.00    +0.000 OA
ATOM     26  O   UNL     1     108.946 126.980 137.791  0.00  0.00    +0.000 OA
ATOM     27  C   UNL     1     110.378 126.029 139.136  0.00  0.00    +0.000 C 
ATOM     28  C   UNL     1     111.092 126.247 138.782  0.00  0.00    +0.000 C 
ATOM     29  C   UNL     1     109.663 126.273 138.805  0.00  0.00    +0.000 C 
ATOM     30  C   UNL     1     109.661 126.735 138.122  0.00  0.00    +0.000 C 
ATOM     31  C   UNL     1     110.374 126.953 137.769  0.00  0.00    +0.000 C 
ENDBRANCH  22  28
ENDBRANCH   5  22
TORSDOF 3
ENDMDL
