MODEL 1
REMARK VINA RESULT:     -10.7      0.000      0.000
REMARK  Name = 44257877
REMARK  9 active torsions:
REMARK  status: ('A' for Active; 'I' for Inactive)
REMARK    1  A    between atoms: O_1  and  C_20
REMARK    2  A    between atoms: O_1  and  C_22
REMARK    3  A    between atoms: O_3  and  C_21
REMARK    4  A    between atoms: O_3  and  C_30
REMARK    5  A    between atoms: O_19  and  C_52
REMARK    6  A    between atoms: C_25  and  C_33
REMARK    7  A    between atoms: C_28  and  C_36
REMARK    8  A    between atoms: C_29  and  C_37
REMARK    9  A    between atoms: C_45  and  C_47
REMARK                            x       y       z     vdW  Elec       q    Type
REMARK                         _______ _______ _______ _____ _____    ______ ____
ROOT
ATOM      1  O   UNL     1     113.238 128.710 139.402  0.00  0.00    +0.000 OA
ATOM      2  O   UNL     1     110.832 128.507 139.946  0.00  0.00    +0.000 OA
ATOM      3  O   UNL     1     111.955 127.718 140.862  0.00  0.00    +0.000 OA
ATOM      4  C   UNL     1     111.875 129.037 139.125  0.00  0.00    +0.000 C 
ATOM      5  C   UNL     1     111.634 128.574 139.765  0.00  0.00    +0.000 C 
ATOM      6  C   UNL     1     112.676 129.104 138.944  0.00  0.00    +0.000 C 
ATOM      7  C   UNL     1     112.195 128.180 140.223  0.00  0.00    +0.000 C 
ATOM      8  C   UNL     1     112.997 128.248 140.041  0.00  0.00    +0.000 C 
ENDROOT
BRANCH   6  13
ATOM      9  O   UNL     1     112.784 128.401 137.448  0.00  0.00    +0.000 OA
ATOM     10  O   UNL     1     113.039 130.698 139.168  0.00  0.00    +0.000 OA
ATOM     11  O   UNL     1     113.638 130.954 136.385  0.00  0.00    +0.000 OA
ATOM     12  O   UNL     1     113.523 129.828 135.491  0.00  0.00    +0.000 OA
ATOM     13  C   UNL     1     112.917 129.567 138.304  0.00  0.00    +0.000 A 
ATOM     14  C   UNL     1     112.976 129.232 137.552  0.00  0.00    +0.000 A 
ATOM     15  C   UNL     1     113.098 130.364 138.416  0.00  0.00    +0.000 A 
ATOM     16  C   UNL     1     113.216 129.695 136.912  0.00  0.00    +0.000 A 
ATOM     17  C   UNL     1     113.338 130.826 137.777  0.00  0.00    +0.000 A 
ATOM     18  C   UNL     1     113.398 130.492 137.025  0.00  0.00    +0.000 A 
ATOM     19  C   UNL     1     113.282 129.358 136.125  0.00  0.00    +0.000 A 
ATOM     20  C   UNL     1     112.844 128.047 136.668  0.00  0.00    +0.000 A 
ATOM     21  C   UNL     1     113.094 128.528 136.001  0.00  0.00    +0.000 A 
BRANCH  20  22
ATOM     22  C   UNL     1     112.662 127.250 136.558  0.00  0.00    +0.000 A 
ATOM     23  C   UNL     1     113.226 126.671 136.726  0.00  0.00    +0.000 A 
ATOM     24  C   UNL     1     111.916 127.031 136.281  0.00  0.00    +0.000 A 
ATOM     25  C   UNL     1     113.043 125.874 136.616  0.00  0.00    +0.000 A 
ATOM     26  C   UNL     1     111.733 126.234 136.172  0.00  0.00    +0.000 A 
ATOM     27  C   UNL     1     112.297 125.656 136.340  0.00  0.00    +0.000 A 
BRANCH  27  28
ATOM     28  O   UNL     1     112.115 124.859 136.230  0.00  0.00    +0.000 OA
ATOM     29  C   UNL     1     111.787 124.421 136.848  0.00  0.00    +0.000 C 
ENDBRANCH  27  28
ENDBRANCH  20  22
ENDBRANCH   6  13
BRANCH   8  31
ATOM     30  O   UNL     1     114.289 128.206 140.651  0.00  0.00    +0.000 OA
ATOM     31  C   UNL     1     113.559 127.853 140.498  0.00  0.00    +0.000 C 
ENDBRANCH   8  31
BRANCH   4  32
ATOM     32  O   UNL     1     111.313 129.432 138.667  0.00  0.00    +0.000 OA
BRANCH  32  37
ATOM     33  O   UNL     1     110.835 130.305 139.692  0.00  0.00    +0.000 OA
ATOM     34  O   UNL     1     108.534 130.082 138.808  0.00  0.00    +0.000 OA
ATOM     35  O   UNL     1     108.822 131.030 140.128  0.00  0.00    +0.000 OA
ATOM     36  C   UNL     1     109.924 129.758 138.738  0.00  0.00    +0.000 C 
ATOM     37  C   UNL     1     110.691 129.832 139.033  0.00  0.00    +0.000 C 
ATOM     38  C   UNL     1     109.301 130.157 139.103  0.00  0.00    +0.000 C 
ATOM     39  C   UNL     1     109.445 130.630 139.762  0.00  0.00    +0.000 C 
ATOM     40  C   UNL     1     110.212 130.704 140.057  0.00  0.00    +0.000 C 
BRANCH  40  42
ATOM     41  O   UNL     1     110.774 131.885 140.634  0.00  0.00    +0.000 OA
ATOM     42  C   UNL     1     110.356 131.178 140.717  0.00  0.00    +0.000 C 
ENDBRANCH  40  42
BRANCH  36  43
ATOM     43  O   UNL     1     109.779 129.283 138.078  0.00  0.00    +0.000 OA
BRANCH  43  48
ATOM     44  O   UNL     1     109.882 130.403 137.196  0.00  0.00    +0.000 OA
ATOM     45  O   UNL     1     108.976 128.437 136.911  0.00  0.00    +0.000 OA
ATOM     46  O   UNL     1     108.676 129.133 135.446  0.00  0.00    +0.000 OA
ATOM     47  O   UNL     1     109.180 130.675 135.146  0.00  0.00    +0.000 OA
ATOM     48  C   UNL     1     109.629 129.631 137.345  0.00  0.00    +0.000 C 
ATOM     49  C   UNL     1     109.228 129.208 136.762  0.00  0.00    +0.000 C 
ATOM     50  C   UNL     1     109.078 129.556 136.029  0.00  0.00    +0.000 C 
ATOM     51  C   UNL     1     109.330 130.327 135.879  0.00  0.00    +0.000 C 
ATOM     52  C   UNL     1     109.732 130.751 136.463  0.00  0.00    +0.000 C 
ATOM     53  C   UNL     1     109.983 131.522 136.312  0.00  0.00    +0.000 C 
ENDBRANCH  43  48
ENDBRANCH  36  43
ENDBRANCH  32  37
ENDBRANCH   4  32
TORSDOF 9
ENDMDL
MODEL 2
REMARK VINA RESULT:     -10.5      1.758      3.349
REMARK  Name = 44257877
REMARK  9 active torsions:
REMARK  status: ('A' for Active; 'I' for Inactive)
REMARK    1  A    between atoms: O_1  and  C_20
REMARK    2  A    between atoms: O_1  and  C_22
REMARK    3  A    between atoms: O_3  and  C_21
REMARK    4  A    between atoms: O_3  and  C_30
REMARK    5  A    between atoms: O_19  and  C_52
REMARK    6  A    between atoms: C_25  and  C_33
REMARK    7  A    between atoms: C_28  and  C_36
REMARK    8  A    between atoms: C_29  and  C_37
REMARK    9  A    between atoms: C_45  and  C_47
REMARK                            x       y       z     vdW  Elec       q    Type
REMARK                         _______ _______ _______ _____ _____    ______ ____
ROOT
ATOM      1  O   UNL     1     110.693 126.614 140.809  0.00  0.00    +0.000 OA
ATOM      2  O   UNL     1     109.635 128.623 139.824  0.00  0.00    +0.000 OA
ATOM      3  O   UNL     1     108.697 127.383 140.376  0.00  0.00    +0.000 OA
ATOM      4  C   UNL     1     110.810 127.904 140.204  0.00  0.00    +0.000 C 
ATOM      5  C   UNL     1     109.987 127.954 140.152  0.00  0.00    +0.000 C 
ATOM      6  C   UNL     1     111.162 127.234 140.533  0.00  0.00    +0.000 C 
ATOM      7  C   UNL     1     109.518 127.334 140.428  0.00  0.00    +0.000 C 
ATOM      8  C   UNL     1     109.872 126.664 140.756  0.00  0.00    +0.000 C 
ENDROOT
BRANCH   6  13
ATOM      9  O   UNL     1     112.004 126.594 139.258  0.00  0.00    +0.000 OA
ATOM     10  O   UNL     1     111.936 127.768 141.888  0.00  0.00    +0.000 OA
ATOM     11  O   UNL     1     114.450 127.036 140.741  0.00  0.00    +0.000 OA
ATOM     12  O   UNL     1     114.526 126.446 139.427  0.00  0.00    +0.000 OA
ATOM     13  C   UNL     1     111.985 127.185 140.585  0.00  0.00    +0.000 A 
ATOM     14  C   UNL     1     112.419 126.869 139.959  0.00  0.00    +0.000 A 
ATOM     15  C   UNL     1     112.372 127.452 141.263  0.00  0.00    +0.000 A 
ATOM     16  C   UNL     1     113.241 126.819 140.011  0.00  0.00    +0.000 A 
ATOM     17  C   UNL     1     113.193 127.402 141.315  0.00  0.00    +0.000 A 
ATOM     18  C   UNL     1     113.628 127.086 140.689  0.00  0.00    +0.000 A 
ATOM     19  C   UNL     1     113.704 126.492 139.367  0.00  0.00    +0.000 A 
ATOM     20  C   UNL     1     112.451 126.264 138.604  0.00  0.00    +0.000 A 
ATOM     21  C   UNL     1     113.307 126.212 138.657  0.00  0.00    +0.000 A 
BRANCH  20  22
ATOM     22  C   UNL     1     112.062 125.998 137.927  0.00  0.00    +0.000 A 
ATOM     23  C   UNL     1     111.692 125.259 137.926  0.00  0.00    +0.000 A 
ATOM     24  C   UNL     1     112.041 126.469 137.250  0.00  0.00    +0.000 A 
ATOM     25  C   UNL     1     111.302 124.994 137.249  0.00  0.00    +0.000 A 
ATOM     26  C   UNL     1     111.651 126.204 136.573  0.00  0.00    +0.000 A 
ATOM     27  C   UNL     1     111.282 125.466 136.573  0.00  0.00    +0.000 A 
BRANCH  27  28
ATOM     28  O   UNL     1     110.892 125.200 135.896  0.00  0.00    +0.000 OA
ATOM     29  C   UNL     1     110.305 125.664 135.548  0.00  0.00    +0.000 C 
ENDBRANCH  27  28
ENDBRANCH  20  22
ENDBRANCH   6  13
BRANCH   8  31
ATOM     30  O   UNL     1     109.695 125.272 141.030  0.00  0.00    +0.000 OA
ATOM     31  C   UNL     1     109.403 126.044 141.032  0.00  0.00    +0.000 C 
ENDBRANCH   8  31
BRANCH   4  32
ATOM     32  O   UNL     1     111.279 128.524 139.928  0.00  0.00    +0.000 OA
BRANCH  32  37
ATOM     33  O   UNL     1     110.823 129.498 140.870  0.00  0.00    +0.000 OA
ATOM     34  O   UNL     1     111.000 131.256 139.137  0.00  0.00    +0.000 OA
ATOM     35  O   UNL     1     110.485 131.644 140.656  0.00  0.00    +0.000 OA
ATOM     36  C   UNL     1     111.139 129.890 139.533  0.00  0.00    +0.000 C 
ATOM     37  C   UNL     1     111.080 129.304 140.111  0.00  0.00    +0.000 C 
ATOM     38  C   UNL     1     110.941 130.670 139.715  0.00  0.00    +0.000 C 
ATOM     39  C   UNL     1     110.684 130.863 140.474  0.00  0.00    +0.000 C 
ATOM     40  C   UNL     1     110.625 130.277 141.052  0.00  0.00    +0.000 C 
BRANCH  40  42
ATOM     41  O   UNL     1     110.893 130.436 142.446  0.00  0.00    +0.000 OA
ATOM     42  C   UNL     1     110.368 130.471 141.811  0.00  0.00    +0.000 C 
ENDBRANCH  40  42
BRANCH  36  43
ATOM     43  O   UNL     1     111.397 129.697 138.773  0.00  0.00    +0.000 OA
BRANCH  43  48
ATOM     44  O   UNL     1     112.735 130.082 139.095  0.00  0.00    +0.000 OA
ATOM     45  O   UNL     1     111.771 129.733 137.167  0.00  0.00    +0.000 OA
ATOM     46  O   UNL     1     113.297 130.137 136.684  0.00  0.00    +0.000 OA
ATOM     47  O   UNL     1     114.448 130.504 137.808  0.00  0.00    +0.000 OA
ATOM     48  C   UNL     1     112.160 129.898 138.532  0.00  0.00    +0.000 C 
ATOM     49  C   UNL     1     112.347 129.917 137.729  0.00  0.00    +0.000 C 
ATOM     50  C   UNL     1     113.109 130.119 137.488  0.00  0.00    +0.000 C 
ATOM     51  C   UNL     1     113.685 130.302 138.049  0.00  0.00    +0.000 C 
ATOM     52  C   UNL     1     113.497 130.284 138.853  0.00  0.00    +0.000 C 
ATOM     53  C   UNL     1     114.073 130.468 139.415  0.00  0.00    +0.000 C 
ENDBRANCH  43  48
ENDBRANCH  36  43
ENDBRANCH  32  37
ENDBRANCH   4  32
TORSDOF 9
ENDMDL
MODEL 3
REMARK VINA RESULT:     -10.3      1.132      3.516
REMARK  Name = 44257877
REMARK  9 active torsions:
REMARK  status: ('A' for Active; 'I' for Inactive)
REMARK    1  A    between atoms: O_1  and  C_20
REMARK    2  A    between atoms: O_1  and  C_22
REMARK    3  A    between atoms: O_3  and  C_21
REMARK    4  A    between atoms: O_3  and  C_30
REMARK    5  A    between atoms: O_19  and  C_52
REMARK    6  A    between atoms: C_25  and  C_33
REMARK    7  A    between atoms: C_28  and  C_36
REMARK    8  A    between atoms: C_29  and  C_37
REMARK    9  A    between atoms: C_45  and  C_47
REMARK                            x       y       z     vdW  Elec       q    Type
REMARK                         _______ _______ _______ _____ _____    ______ ____
ROOT
ATOM      1  O   UNL     1     110.564 128.994 135.962  0.00  0.00    +0.000 OA
ATOM      2  O   UNL     1     109.709 129.120 138.281  0.00  0.00    +0.000 OA
ATOM      3  O   UNL     1     108.676 128.792 137.037  0.00  0.00    +0.000 OA
ATOM      4  C   UNL     1     110.796 129.200 137.357  0.00  0.00    +0.000 C 
ATOM      5  C   UNL     1     109.994 129.078 137.508  0.00  0.00    +0.000 C 
ATOM      6  C   UNL     1     111.081 129.157 136.584  0.00  0.00    +0.000 C 
ATOM      7  C   UNL     1     109.477 128.914 136.886  0.00  0.00    +0.000 C 
ATOM      8  C   UNL     1     109.763 128.872 136.113  0.00  0.00    +0.000 C 
ENDROOT
BRANCH   6  13
ATOM      9  O   UNL     1     112.104 127.856 136.617  0.00  0.00    +0.000 OA
ATOM     10  O   UNL     1     111.638 130.676 136.258  0.00  0.00    +0.000 OA
ATOM     11  O   UNL     1     114.289 129.644 135.981  0.00  0.00    +0.000 OA
ATOM     12  O   UNL     1     114.564 128.238 136.153  0.00  0.00    +0.000 OA
ATOM     13  C   UNL     1     111.883 129.279 136.433  0.00  0.00    +0.000 A 
ATOM     14  C   UNL     1     112.406 128.641 136.446  0.00  0.00    +0.000 A 
ATOM     15  C   UNL     1     112.162 130.039 136.270  0.00  0.00    +0.000 A 
ATOM     16  C   UNL     1     113.209 128.763 136.295  0.00  0.00    +0.000 A 
ATOM     17  C   UNL     1     112.963 130.160 136.119  0.00  0.00    +0.000 A 
ATOM     18  C   UNL     1     113.487 129.523 136.132  0.00  0.00    +0.000 A 
ATOM     19  C   UNL     1     113.763 128.108 136.305  0.00  0.00    +0.000 A 
ATOM     20  C   UNL     1     112.645 127.188 136.631  0.00  0.00    +0.000 A 
ATOM     21  C   UNL     1     113.479 127.314 136.474  0.00  0.00    +0.000 A 
BRANCH  20  22
ATOM     22  C   UNL     1     112.363 126.430 136.794  0.00  0.00    +0.000 A 
ATOM     23  C   UNL     1     112.015 125.980 136.196  0.00  0.00    +0.000 A 
ATOM     24  C   UNL     1     112.430 126.120 137.556  0.00  0.00    +0.000 A 
ATOM     25  C   UNL     1     111.734 125.222 136.361  0.00  0.00    +0.000 A 
ATOM     26  C   UNL     1     112.149 125.362 137.721  0.00  0.00    +0.000 A 
ATOM     27  C   UNL     1     111.801 124.913 137.122  0.00  0.00    +0.000 A 
BRANCH  27  28
ATOM     28  O   UNL     1     111.520 124.155 137.286  0.00  0.00    +0.000 OA
ATOM     29  C   UNL     1     111.946 123.494 137.037  0.00  0.00    +0.000 C 
ENDBRANCH  27  28
ENDBRANCH  20  22
ENDBRANCH   6  13
BRANCH   8  31
ATOM     30  O   UNL     1     109.531 128.357 134.800  0.00  0.00    +0.000 OA
ATOM     31  C   UNL     1     109.246 128.708 135.491  0.00  0.00    +0.000 C 
ENDBRANCH   8  31
BRANCH   4  32
ATOM     32  O   UNL     1     111.313 129.363 137.979  0.00  0.00    +0.000 OA
BRANCH  32  37
ATOM     33  O   UNL     1     110.725 130.610 138.357  0.00  0.00    +0.000 OA
ATOM     34  O   UNL     1     111.184 130.105 140.736  0.00  0.00    +0.000 OA
ATOM     35  O   UNL     1     110.443 131.520 140.321  0.00  0.00    +0.000 OA
ATOM     36  C   UNL     1     111.248 129.735 139.357  0.00  0.00    +0.000 C 
ATOM     37  C   UNL     1     111.095 129.903 138.564  0.00  0.00    +0.000 C 
ATOM     38  C   UNL     1     111.031 130.273 139.943  0.00  0.00    +0.000 C 
ATOM     39  C   UNL     1     110.661 130.980 139.735  0.00  0.00    +0.000 C 
ATOM     40  C   UNL     1     110.508 131.148 138.942  0.00  0.00    +0.000 C 
BRANCH  40  42
ATOM     41  O   UNL     1     110.569 132.456 138.369  0.00  0.00    +0.000 OA
ATOM     42  C   UNL     1     110.137 131.856 138.735  0.00  0.00    +0.000 C 
ENDBRANCH  40  42
BRANCH  36  43
ATOM     43  O   UNL     1     111.619 129.027 139.565  0.00  0.00    +0.000 OA
BRANCH  43  48
ATOM     44  O   UNL     1     112.896 129.667 139.607  0.00  0.00    +0.000 OA
ATOM     45  O   UNL     1     112.228 127.756 140.423  0.00  0.00    +0.000 OA
ATOM     46  O   UNL     1     113.809 127.760 140.895  0.00  0.00    +0.000 OA
ATOM     47  O   UNL     1     114.781 129.035 140.509  0.00  0.00    +0.000 OA
ATOM     48  C   UNL     1     112.410 129.029 139.801  0.00  0.00    +0.000 C 
ATOM     49  C   UNL     1     112.714 128.394 140.230  0.00  0.00    +0.000 C 
ATOM     50  C   UNL     1     113.504 128.396 140.466  0.00  0.00    +0.000 C 
ATOM     51  C   UNL     1     113.991 129.033 140.273  0.00  0.00    +0.000 C 
ATOM     52  C   UNL     1     113.686 129.669 139.843  0.00  0.00    +0.000 C 
ATOM     53  C   UNL     1     114.173 130.307 139.650  0.00  0.00    +0.000 C 
ENDBRANCH  43  48
ENDBRANCH  36  43
ENDBRANCH  32  37
ENDBRANCH   4  32
TORSDOF 9
ENDMDL
MODEL 4
REMARK VINA RESULT:     -10.3      1.868      3.751
REMARK  Name = 44257877
REMARK  9 active torsions:
REMARK  status: ('A' for Active; 'I' for Inactive)
REMARK    1  A    between atoms: O_1  and  C_20
REMARK    2  A    between atoms: O_1  and  C_22
REMARK    3  A    between atoms: O_3  and  C_21
REMARK    4  A    between atoms: O_3  and  C_30
REMARK    5  A    between atoms: O_19  and  C_52
REMARK    6  A    between atoms: C_25  and  C_33
REMARK    7  A    between atoms: C_28  and  C_36
REMARK    8  A    between atoms: C_29  and  C_37
REMARK    9  A    between atoms: C_45  and  C_47
REMARK                            x       y       z     vdW  Elec       q    Type
REMARK                         _______ _______ _______ _____ _____    ______ ____
ROOT
ATOM      1  O   UNL     1     112.976 130.159 138.794  0.00  0.00    +0.000 OA
ATOM      2  O   UNL     1     113.531 129.434 141.094  0.00  0.00    +0.000 OA
ATOM      3  O   UNL     1     114.665 130.204 140.175  0.00  0.00    +0.000 OA
ATOM      4  C   UNL     1     112.594 129.532 140.020  0.00  0.00    +0.000 C 
ATOM      5  C   UNL     1     113.347 129.676 140.327  0.00  0.00    +0.000 C 
ATOM      6  C   UNL     1     112.409 129.774 139.253  0.00  0.00    +0.000 C 
ATOM      7  C   UNL     1     113.913 130.060 139.868  0.00  0.00    +0.000 C 
ATOM      8  C   UNL     1     113.727 130.302 139.101  0.00  0.00    +0.000 C 
ENDROOT
BRANCH   6  13
ATOM      9  O   UNL     1     112.135 128.353 138.448  0.00  0.00    +0.000 OA
ATOM     10  O   UNL     1     111.212 130.893 139.447  0.00  0.00    +0.000 OA
ATOM     11  O   UNL     1     109.400 129.200 138.025  0.00  0.00    +0.000 OA
ATOM     12  O   UNL     1     109.823 127.921 137.510  0.00  0.00    +0.000 OA
ATOM     13  C   UNL     1     111.656 129.630 138.946  0.00  0.00    +0.000 A 
ATOM     14  C   UNL     1     111.503 128.928 138.543  0.00  0.00    +0.000 A 
ATOM     15  C   UNL     1     111.057 130.190 139.043  0.00  0.00    +0.000 A 
ATOM     16  C   UNL     1     110.750 128.784 138.235  0.00  0.00    +0.000 A 
ATOM     17  C   UNL     1     110.306 130.046 138.736  0.00  0.00    +0.000 A 
ATOM     18  C   UNL     1     110.152 129.343 138.332  0.00  0.00    +0.000 A 
ATOM     19  C   UNL     1     110.578 128.056 137.813  0.00  0.00    +0.000 A 
ATOM     20  C   UNL     1     111.981 127.619 138.029  0.00  0.00    +0.000 A 
ATOM     21  C   UNL     1     111.198 127.469 137.709  0.00  0.00    +0.000 A 
BRANCH  20  22
ATOM     22  C   UNL     1     112.581 127.061 137.934  0.00  0.00    +0.000 A 
ATOM     23  C   UNL     1     113.098 127.116 137.292  0.00  0.00    +0.000 A 
ATOM     24  C   UNL     1     112.666 126.449 138.480  0.00  0.00    +0.000 A 
ATOM     25  C   UNL     1     113.698 126.557 137.198  0.00  0.00    +0.000 A 
ATOM     26  C   UNL     1     113.266 125.891 138.385  0.00  0.00    +0.000 A 
ATOM     27  C   UNL     1     113.782 125.946 137.744  0.00  0.00    +0.000 A 
BRANCH  27  28
ATOM     28  O   UNL     1     114.382 125.388 137.649  0.00  0.00    +0.000 OA
ATOM     29  C   UNL     1     114.231 124.682 137.248  0.00  0.00    +0.000 C 
ENDBRANCH  27  28
ENDBRANCH  20  22
ENDBRANCH   6  13
BRANCH   8  31
ATOM     30  O   UNL     1     114.226 130.689 137.818  0.00  0.00    +0.000 OA
ATOM     31  C   UNL     1     114.294 130.686 138.641  0.00  0.00    +0.000 C 
ENDBRANCH   8  31
BRANCH   4  32
ATOM     32  O   UNL     1     112.027 129.148 140.480  0.00  0.00    +0.000 OA
BRANCH  32  37
ATOM     33  O   UNL     1     111.959 130.153 141.493  0.00  0.00    +0.000 OA
ATOM     34  O   UNL     1     111.549 128.406 143.198  0.00  0.00    +0.000 OA
ATOM     35  O   UNL     1     111.618 129.993 143.643  0.00  0.00    +0.000 OA
ATOM     36  C   UNL     1     111.788 128.778 141.839  0.00  0.00    +0.000 C 
ATOM     37  C   UNL     1     111.925 129.360 141.271  0.00  0.00    +0.000 C 
ATOM     38  C   UNL     1     111.686 128.988 142.630  0.00  0.00    +0.000 C 
ATOM     39  C   UNL     1     111.720 129.782 142.852  0.00  0.00    +0.000 C 
ATOM     40  C   UNL     1     111.857 130.364 142.283  0.00  0.00    +0.000 C 
BRANCH  40  42
ATOM     41  O   UNL     1     111.322 131.688 142.231  0.00  0.00    +0.000 OA
ATOM     42  C   UNL     1     111.891 131.158 142.507  0.00  0.00    +0.000 C 
ENDBRANCH  40  42
BRANCH  36  43
ATOM     43  O   UNL     1     111.754 127.983 141.616  0.00  0.00    +0.000 OA
BRANCH  43  48
ATOM     44  O   UNL     1     110.328 128.048 141.566  0.00  0.00    +0.000 OA
ATOM     45  O   UNL     1     111.686 126.345 141.429  0.00  0.00    +0.000 OA
ATOM     46  O   UNL     1     110.226 125.591 141.284  0.00  0.00    +0.000 OA
ATOM     47  O   UNL     1     108.833 126.474 141.327  0.00  0.00    +0.000 OA
ATOM     48  C   UNL     1     111.024 127.606 141.544  0.00  0.00    +0.000 C 
ATOM     49  C   UNL     1     110.990 126.788 141.450  0.00  0.00    +0.000 C 
ATOM     50  C   UNL     1     110.260 126.410 141.378  0.00  0.00    +0.000 C 
ATOM     51  C   UNL     1     109.563 126.852 141.399  0.00  0.00    +0.000 C 
ATOM     52  C   UNL     1     109.597 127.671 141.493  0.00  0.00    +0.000 C 
ATOM     53  C   UNL     1     108.901 128.112 141.515  0.00  0.00    +0.000 C 
ENDBRANCH  43  48
ENDBRANCH  36  43
ENDBRANCH  32  37
ENDBRANCH   4  32
TORSDOF 9
ENDMDL
MODEL 5
REMARK VINA RESULT:     -10.3      1.444      3.329
REMARK  Name = 44257877
REMARK  9 active torsions:
REMARK  status: ('A' for Active; 'I' for Inactive)
REMARK    1  A    between atoms: O_1  and  C_20
REMARK    2  A    between atoms: O_1  and  C_22
REMARK    3  A    between atoms: O_3  and  C_21
REMARK    4  A    between atoms: O_3  and  C_30
REMARK    5  A    between atoms: O_19  and  C_52
REMARK    6  A    between atoms: C_25  and  C_33
REMARK    7  A    between atoms: C_28  and  C_36
REMARK    8  A    between atoms: C_29  and  C_37
REMARK    9  A    between atoms: C_45  and  C_47
REMARK                            x       y       z     vdW  Elec       q    Type
REMARK                         _______ _______ _______ _____ _____    ______ ____
ROOT
ATOM      1  O   UNL     1     112.926 129.497 137.420  0.00  0.00    +0.000 OA
ATOM      2  O   UNL     1     110.457 129.543 137.256  0.00  0.00    +0.000 OA
ATOM      3  O   UNL     1     111.377 129.690 135.894  0.00  0.00    +0.000 OA
ATOM      4  C   UNL     1     111.643 129.439 138.046  0.00  0.00    +0.000 C 
ATOM      5  C   UNL     1     111.280 129.527 137.310  0.00  0.00    +0.000 C 
ATOM      6  C   UNL     1     112.466 129.423 138.100  0.00  0.00    +0.000 C 
ATOM      7  C   UNL     1     111.740 129.601 136.629  0.00  0.00    +0.000 C 
ATOM      8  C   UNL     1     112.563 129.586 136.685  0.00  0.00    +0.000 C 
ENDROOT
BRANCH   6  13
ATOM      9  O   UNL     1     112.785 127.895 138.651  0.00  0.00    +0.000 OA
ATOM     10  O   UNL     1     112.858 130.754 138.993  0.00  0.00    +0.000 OA
ATOM     11  O   UNL     1     113.916 129.067 141.043  0.00  0.00    +0.000 OA
ATOM     12  O   UNL     1     113.899 127.631 140.910  0.00  0.00    +0.000 OA
ATOM     13  C   UNL     1     112.829 129.334 138.837  0.00  0.00    +0.000 A 
ATOM     14  C   UNL     1     112.995 128.580 139.125  0.00  0.00    +0.000 A 
ATOM     15  C   UNL     1     113.025 130.000 139.283  0.00  0.00    +0.000 A 
ATOM     16  C   UNL     1     113.358 128.491 139.862  0.00  0.00    +0.000 A 
ATOM     17  C   UNL     1     113.387 129.911 140.018  0.00  0.00    +0.000 A 
ATOM     18  C   UNL     1     113.554 129.156 140.308  0.00  0.00    +0.000 A 
ATOM     19  C   UNL     1     113.536 127.711 140.174  0.00  0.00    +0.000 A 
ATOM     20  C   UNL     1     112.956 127.106 138.948  0.00  0.00    +0.000 A 
ATOM     21  C   UNL     1     113.334 127.013 139.713  0.00  0.00    +0.000 A 
BRANCH  20  22
ATOM     22  C   UNL     1     112.759 126.443 138.499  0.00  0.00    +0.000 A 
ATOM     23  C   UNL     1     113.289 126.151 137.937  0.00  0.00    +0.000 A 
ATOM     24  C   UNL     1     112.031 126.070 138.612  0.00  0.00    +0.000 A 
ATOM     25  C   UNL     1     113.091 125.487 137.489  0.00  0.00    +0.000 A 
ATOM     26  C   UNL     1     111.833 125.406 138.164  0.00  0.00    +0.000 A 
ATOM     27  C   UNL     1     112.363 125.115 137.602  0.00  0.00    +0.000 A 
BRANCH  27  28
ATOM     28  O   UNL     1     112.166 124.451 137.154  0.00  0.00    +0.000 OA
ATOM     29  C   UNL     1     111.627 124.518 136.532  0.00  0.00    +0.000 C 
ENDBRANCH  27  28
ENDBRANCH  20  22
ENDBRANCH   6  13
BRANCH   8  31
ATOM     30  O   UNL     1     113.770 129.309 135.971  0.00  0.00    +0.000 OA
ATOM     31  C   UNL     1     113.023 129.659 136.004  0.00  0.00    +0.000 C 
ENDBRANCH   8  31
BRANCH   4  32
ATOM     32  O   UNL     1     111.182 129.365 138.727  0.00  0.00    +0.000 OA
BRANCH  32  37
ATOM     33  O   UNL     1     110.580 130.659 138.651  0.00  0.00    +0.000 OA
ATOM     34  O   UNL     1     108.469 129.728 139.547  0.00  0.00    +0.000 OA
ATOM     35  O   UNL     1     108.571 131.332 139.173  0.00  0.00    +0.000 OA
ATOM     36  C   UNL     1     109.826 129.547 139.137  0.00  0.00    +0.000 C 
ATOM     37  C   UNL     1     110.530 129.857 138.838  0.00  0.00    +0.000 C 
ATOM     38  C   UNL     1     109.173 130.038 139.249  0.00  0.00    +0.000 C 
ATOM     39  C   UNL     1     109.224 130.840 139.061  0.00  0.00    +0.000 C 
ATOM     40  C   UNL     1     109.928 131.150 138.763  0.00  0.00    +0.000 C 
BRANCH  40  42
ATOM     41  O   UNL     1     110.484 132.444 139.003  0.00  0.00    +0.000 OA
ATOM     42  C   UNL     1     109.978 131.952 138.576  0.00  0.00    +0.000 C 
ENDBRANCH  40  42
BRANCH  36  43
ATOM     43  O   UNL     1     109.775 128.745 139.324  0.00  0.00    +0.000 OA
BRANCH  43  48
ATOM     44  O   UNL     1     110.081 129.016 140.694  0.00  0.00    +0.000 OA
ATOM     45  O   UNL     1     109.250 127.236 139.740  0.00  0.00    +0.000 OA
ATOM     46  O   UNL     1     109.293 126.753 141.316  0.00  0.00    +0.000 OA
ATOM     47  O   UNL     1     109.861 127.777 142.478  0.00  0.00    +0.000 OA
ATOM     48  C   UNL     1     109.796 128.503 140.113  0.00  0.00    +0.000 C 
ATOM     49  C   UNL     1     109.534 127.749 140.320  0.00  0.00    +0.000 C 
ATOM     50  C   UNL     1     109.556 127.508 141.109  0.00  0.00    +0.000 C 
ATOM     51  C   UNL     1     109.840 128.019 141.690  0.00  0.00    +0.000 C 
ATOM     52  C   UNL     1     110.102 128.774 141.482  0.00  0.00    +0.000 C 
ATOM     53  C   UNL     1     110.386 129.286 142.063  0.00  0.00    +0.000 C 
ENDBRANCH  43  48
ENDBRANCH  36  43
ENDBRANCH  32  37
ENDBRANCH   4  32
TORSDOF 9
ENDMDL
MODEL 6
REMARK VINA RESULT:     -10.2      1.633      5.139
REMARK  Name = 44257877
REMARK  9 active torsions:
REMARK  status: ('A' for Active; 'I' for Inactive)
REMARK    1  A    between atoms: O_1  and  C_20
REMARK    2  A    between atoms: O_1  and  C_22
REMARK    3  A    between atoms: O_3  and  C_21
REMARK    4  A    between atoms: O_3  and  C_30
REMARK    5  A    between atoms: O_19  and  C_52
REMARK    6  A    between atoms: C_25  and  C_33
REMARK    7  A    between atoms: C_28  and  C_36
REMARK    8  A    between atoms: C_29  and  C_37
REMARK    9  A    between atoms: C_45  and  C_47
REMARK                            x       y       z     vdW  Elec       q    Type
REMARK                         _______ _______ _______ _____ _____    ______ ____
ROOT
ATOM      1  O   UNL     1     112.547 129.019 136.193  0.00  0.00    +0.000 OA
ATOM      2  O   UNL     1     113.336 126.770 136.860  0.00  0.00    +0.000 OA
ATOM      3  O   UNL     1     114.201 127.659 135.773  0.00  0.00    +0.000 OA
ATOM      4  C   UNL     1     112.376 127.825 136.959  0.00  0.00    +0.000 C 
ATOM      5  C   UNL     1     113.073 127.520 136.637  0.00  0.00    +0.000 C 
ATOM      6  C   UNL     1     112.114 128.574 136.736  0.00  0.00    +0.000 C 
ATOM      7  C   UNL     1     113.506 127.964 136.094  0.00  0.00    +0.000 C 
ATOM      8  C   UNL     1     113.242 128.714 135.872  0.00  0.00    +0.000 C 
ENDROOT
BRANCH   6  13
ATOM      9  O   UNL     1     112.196 129.421 138.157  0.00  0.00    +0.000 OA
ATOM     10  O   UNL     1     110.675 128.336 135.964  0.00  0.00    +0.000 OA
ATOM     11  O   UNL     1     109.330 129.793 138.022  0.00  0.00    +0.000 OA
ATOM     12  O   UNL     1     110.055 130.352 139.137  0.00  0.00    +0.000 OA
ATOM     13  C   UNL     1     111.417 128.879 137.058  0.00  0.00    +0.000 A 
ATOM     14  C   UNL     1     111.441 129.303 137.765  0.00  0.00    +0.000 A 
ATOM     15  C   UNL     1     110.698 128.760 136.672  0.00  0.00    +0.000 A 
ATOM     16  C   UNL     1     110.744 129.608 138.086  0.00  0.00    +0.000 A 
ATOM     17  C   UNL     1     110.002 129.064 136.993  0.00  0.00    +0.000 A 
ATOM     18  C   UNL     1     110.025 129.489 137.701  0.00  0.00    +0.000 A 
ATOM     19  C   UNL     1     110.756 130.051 138.822  0.00  0.00    +0.000 A 
ATOM     20  C   UNL     1     112.227 129.861 138.894  0.00  0.00    +0.000 A 
ATOM     21  C   UNL     1     111.502 130.179 139.229  0.00  0.00    +0.000 A 
BRANCH  20  22
ATOM     22  C   UNL     1     112.948 129.979 139.278  0.00  0.00    +0.000 A 
ATOM     23  C   UNL     1     113.106 129.591 139.989  0.00  0.00    +0.000 A 
ATOM     24  C   UNL     1     113.511 130.485 138.951  0.00  0.00    +0.000 A 
ATOM     25  C   UNL     1     113.827 129.709 140.372  0.00  0.00    +0.000 A 
ATOM     26  C   UNL     1     114.232 130.604 139.334  0.00  0.00    +0.000 A 
ATOM     27  C   UNL     1     114.389 130.215 140.045  0.00  0.00    +0.000 A 
BRANCH  27  28
ATOM     28  O   UNL     1     115.110 130.333 140.428  0.00  0.00    +0.000 OA
ATOM     29  C   UNL     1     115.212 130.984 140.925  0.00  0.00    +0.000 C 
ENDBRANCH  27  28
ENDBRANCH  20  22
ENDBRANCH   6  13
BRANCH   8  31
ATOM     30  O   UNL     1     113.722 129.979 135.410  0.00  0.00    +0.000 OA
ATOM     31  C   UNL     1     113.675 129.159 135.328  0.00  0.00    +0.000 C 
ENDBRANCH   8  31
BRANCH   4  32
ATOM     32  O   UNL     1     111.943 127.380 137.502  0.00  0.00    +0.000 OA
BRANCH  32  37
ATOM     33  O   UNL     1     111.585 126.329 136.603  0.00  0.00    +0.000 OA
ATOM     34  O   UNL     1     111.794 124.685 138.441  0.00  0.00    +0.000 OA
ATOM     35  O   UNL     1     111.366 124.182 136.929  0.00  0.00    +0.000 OA
ATOM     36  C   UNL     1     111.869 126.032 137.971  0.00  0.00    +0.000 C 
ATOM     37  C   UNL     1     111.799 126.580 137.358  0.00  0.00    +0.000 C 
ATOM     38  C   UNL     1     111.724 125.233 137.829  0.00  0.00    +0.000 C 
ATOM     39  C   UNL     1     111.510 124.982 137.073  0.00  0.00    +0.000 C 
ATOM     40  C   UNL     1     111.441 125.530 136.460  0.00  0.00    +0.000 C 
BRANCH  40  42
ATOM     41  O   UNL     1     110.472 125.442 135.413  0.00  0.00    +0.000 OA
ATOM     42  C   UNL     1     111.226 125.278 135.704  0.00  0.00    +0.000 C 
ENDBRANCH  40  42
BRANCH  36  43
ATOM     43  O   UNL     1     112.083 126.284 138.728  0.00  0.00    +0.000 OA
BRANCH  43  48
ATOM     44  O   UNL     1     110.712 126.343 139.127  0.00  0.00    +0.000 OA
ATOM     45  O   UNL     1     112.548 126.360 140.309  0.00  0.00    +0.000 OA
ATOM     46  O   UNL     1     111.409 126.458 141.500  0.00  0.00    +0.000 OA
ATOM     47  O   UNL     1     109.806 126.479 141.109  0.00  0.00    +0.000 OA
ATOM     48  C   UNL     1     111.514 126.333 139.323  0.00  0.00    +0.000 C 
ATOM     49  C   UNL     1     111.746 126.371 140.113  0.00  0.00    +0.000 C 
ATOM     50  C   UNL     1     111.177 126.419 140.708  0.00  0.00    +0.000 C 
ATOM     51  C   UNL     1     110.376 126.430 140.514  0.00  0.00    +0.000 C 
ATOM     52  C   UNL     1     110.143 126.392 139.722  0.00  0.00    +0.000 C 
ATOM     53  C   UNL     1     109.342 126.403 139.527  0.00  0.00    +0.000 C 
ENDBRANCH  43  48
ENDBRANCH  36  43
ENDBRANCH  32  37
ENDBRANCH   4  32
TORSDOF 9
ENDMDL
MODEL 7
REMARK VINA RESULT:     -10.1      1.306      4.324
REMARK  Name = 44257877
REMARK  9 active torsions:
REMARK  status: ('A' for Active; 'I' for Inactive)
REMARK    1  A    between atoms: O_1  and  C_20
REMARK    2  A    between atoms: O_1  and  C_22
REMARK    3  A    between atoms: O_3  and  C_21
REMARK    4  A    between atoms: O_3  and  C_30
REMARK    5  A    between atoms: O_19  and  C_52
REMARK    6  A    between atoms: C_25  and  C_33
REMARK    7  A    between atoms: C_28  and  C_36
REMARK    8  A    between atoms: C_29  and  C_37
REMARK    9  A    between atoms: C_45  and  C_47
REMARK                            x       y       z     vdW  Elec       q    Type
REMARK                         _______ _______ _______ _____ _____    ______ ____
ROOT
ATOM      1  O   UNL     1     110.461 128.984 136.122  0.00  0.00    +0.000 OA
ATOM      2  O   UNL     1     110.563 131.044 137.489  0.00  0.00    +0.000 OA
ATOM      3  O   UNL     1     109.837 131.072 136.008  0.00  0.00    +0.000 OA
ATOM      4  C   UNL     1     110.858 129.656 137.319  0.00  0.00    +0.000 C 
ATOM      5  C   UNL     1     110.529 130.358 137.033  0.00  0.00    +0.000 C 
ATOM      6  C   UNL     1     110.824 128.970 136.863  0.00  0.00    +0.000 C 
ATOM      7  C   UNL     1     110.166 130.371 136.293  0.00  0.00    +0.000 C 
ATOM      8  C   UNL     1     110.132 129.684 135.837  0.00  0.00    +0.000 C 
ENDROOT
BRANCH   6  13
ATOM      9  O   UNL     1     112.414 128.645 136.536  0.00  0.00    +0.000 OA
ATOM     10  O   UNL     1     109.900 127.922 137.742  0.00  0.00    +0.000 OA
ATOM     11  O   UNL     1     112.140 126.167 138.004  0.00  0.00    +0.000 OA
ATOM     12  O   UNL     1     113.416 126.492 137.415  0.00  0.00    +0.000 OA
ATOM     13  C   UNL     1     111.153 128.268 137.148  0.00  0.00    +0.000 A 
ATOM     14  C   UNL     1     111.943 128.092 136.994  0.00  0.00    +0.000 A 
ATOM     15  C   UNL     1     110.691 127.745 137.588  0.00  0.00    +0.000 A 
ATOM     16  C   UNL     1     112.273 127.391 137.280  0.00  0.00    +0.000 A 
ATOM     17  C   UNL     1     111.020 127.044 137.873  0.00  0.00    +0.000 A 
ATOM     18  C   UNL     1     111.811 126.867 137.719  0.00  0.00    +0.000 A 
ATOM     19  C   UNL     1     113.094 127.195 137.126  0.00  0.00    +0.000 A 
ATOM     20  C   UNL     1     113.239 128.466 136.372  0.00  0.00    +0.000 A 
ATOM     21  C   UNL     1     113.581 127.737 136.669  0.00  0.00    +0.000 A 
BRANCH  20  22
ATOM     22  C   UNL     1     113.698 128.992 135.932  0.00  0.00    +0.000 A 
ATOM     23  C   UNL     1     114.140 129.575 136.315  0.00  0.00    +0.000 A 
ATOM     24  C   UNL     1     113.717 128.935 135.109  0.00  0.00    +0.000 A 
ATOM     25  C   UNL     1     114.599 130.100 135.875  0.00  0.00    +0.000 A 
ATOM     26  C   UNL     1     114.176 129.460 134.669  0.00  0.00    +0.000 A 
ATOM     27  C   UNL     1     114.617 130.042 135.052  0.00  0.00    +0.000 A 
BRANCH  27  28
ATOM     28  O   UNL     1     115.077 130.568 134.613  0.00  0.00    +0.000 OA
ATOM     29  C   UNL     1     115.672 131.004 134.982  0.00  0.00    +0.000 C 
ENDBRANCH  27  28
ENDBRANCH  20  22
ENDBRANCH   6  13
BRANCH   8  31
ATOM     30  O   UNL     1     109.793 129.029 134.613  0.00  0.00    +0.000 OA
ATOM     31  C   UNL     1     109.769 129.698 135.097  0.00  0.00    +0.000 C 
ENDBRANCH   8  31
BRANCH   4  32
ATOM     32  O   UNL     1     111.221 129.642 138.060  0.00  0.00    +0.000 OA
BRANCH  32  37
ATOM     33  O   UNL     1     110.053 129.957 138.820  0.00  0.00    +0.000 OA
ATOM     34  O   UNL     1     111.430 131.300 140.379  0.00  0.00    +0.000 OA
ATOM     35  O   UNL     1     109.803 131.167 140.620  0.00  0.00    +0.000 OA
ATOM     36  C   UNL     1     111.325 130.471 139.219  0.00  0.00    +0.000 C 
ATOM     37  C   UNL     1     110.866 130.023 138.700  0.00  0.00    +0.000 C 
ATOM     38  C   UNL     1     110.971 130.852 139.859  0.00  0.00    +0.000 C 
ATOM     39  C   UNL     1     110.157 130.786 139.979  0.00  0.00    +0.000 C 
ATOM     40  C   UNL     1     109.698 130.338 139.460  0.00  0.00    +0.000 C 
BRANCH  40  42
ATOM     41  O   UNL     1     108.544 129.529 139.695  0.00  0.00    +0.000 OA
ATOM     42  C   UNL     1     108.885 130.272 139.581  0.00  0.00    +0.000 C 
ENDBRANCH  40  42
BRANCH  36  43
ATOM     43  O   UNL     1     112.139 130.537 139.098  0.00  0.00    +0.000 OA
BRANCH  43  48
ATOM     44  O   UNL     1     112.389 129.463 140.007  0.00  0.00    +0.000 OA
ATOM     45  O   UNL     1     113.731 130.966 139.166  0.00  0.00    +0.000 OA
ATOM     46  O   UNL     1     114.777 130.107 140.109  0.00  0.00    +0.000 OA
ATOM     47  O   UNL     1     114.232 128.818 140.983  0.00  0.00    +0.000 OA
ATOM     48  C   UNL     1     112.662 130.107 139.570  0.00  0.00    +0.000 C 
ATOM     49  C   UNL     1     113.457 130.322 139.603  0.00  0.00    +0.000 C 
ATOM     50  C   UNL     1     113.981 129.892 140.074  0.00  0.00    +0.000 C 
ATOM     51  C   UNL     1     113.709 129.248 140.512  0.00  0.00    +0.000 C 
ATOM     52  C   UNL     1     112.912 129.033 140.478  0.00  0.00    +0.000 C 
ATOM     53  C   UNL     1     112.640 128.389 140.915  0.00  0.00    +0.000 C 
ENDBRANCH  43  48
ENDBRANCH  36  43
ENDBRANCH  32  37
ENDBRANCH   4  32
TORSDOF 9
ENDMDL
MODEL 8
REMARK VINA RESULT:     -10.1      1.727      4.602
REMARK  Name = 44257877
REMARK  9 active torsions:
REMARK  status: ('A' for Active; 'I' for Inactive)
REMARK    1  A    between atoms: O_1  and  C_20
REMARK    2  A    between atoms: O_1  and  C_22
REMARK    3  A    between atoms: O_3  and  C_21
REMARK    4  A    between atoms: O_3  and  C_30
REMARK    5  A    between atoms: O_19  and  C_52
REMARK    6  A    between atoms: C_25  and  C_33
REMARK    7  A    between atoms: C_28  and  C_36
REMARK    8  A    between atoms: C_29  and  C_37
REMARK    9  A    between atoms: C_45  and  C_47
REMARK                            x       y       z     vdW  Elec       q    Type
REMARK                         _______ _______ _______ _____ _____    ______ ____
ROOT
ATOM      1  O   UNL     1     112.534 126.505 138.929  0.00  0.00    +0.000 OA
ATOM      2  O   UNL     1     111.880 128.231 137.280  0.00  0.00    +0.000 OA
ATOM      3  O   UNL     1     113.076 127.153 136.917  0.00  0.00    +0.000 OA
ATOM      4  C   UNL     1     111.717 127.619 138.561  0.00  0.00    +0.000 C 
ATOM      5  C   UNL     1     112.098 127.655 137.829  0.00  0.00    +0.000 C 
ATOM      6  C   UNL     1     111.936 127.044 139.111  0.00  0.00    +0.000 C 
ATOM      7  C   UNL     1     112.696 127.117 137.648  0.00  0.00    +0.000 C 
ATOM      8  C   UNL     1     112.913 126.542 138.199  0.00  0.00    +0.000 C 
ENDROOT
BRANCH   6  13
ATOM      9  O   UNL     1     112.502 127.985 140.350  0.00  0.00    +0.000 OA
ATOM     10  O   UNL     1     110.637 126.047 139.317  0.00  0.00    +0.000 OA
ATOM     11  O   UNL     1     110.416 126.899 142.036  0.00  0.00    +0.000 OA
ATOM     12  O   UNL     1     111.330 127.868 142.591  0.00  0.00    +0.000 OA
ATOM     13  C   UNL     1     111.555 127.008 139.843  0.00  0.00    +0.000 A 
ATOM     14  C   UNL     1     111.825 127.470 140.470  0.00  0.00    +0.000 A 
ATOM     15  C   UNL     1     110.906 126.509 139.946  0.00  0.00    +0.000 A 
ATOM     16  C   UNL     1     111.445 127.434 141.202  0.00  0.00    +0.000 A 
ATOM     17  C   UNL     1     110.526 126.473 140.677  0.00  0.00    +0.000 A 
ATOM     18  C   UNL     1     110.795 126.935 141.306  0.00  0.00    +0.000 A 
ATOM     19  C   UNL     1     111.715 127.910 141.863  0.00  0.00    +0.000 A 
ATOM     20  C   UNL     1     112.787 128.469 141.001  0.00  0.00    +0.000 A 
ATOM     21  C   UNL     1     112.392 128.432 141.762  0.00  0.00    +0.000 A 
BRANCH  20  22
ATOM     22  C   UNL     1     113.436 128.967 140.895  0.00  0.00    +0.000 A 
ATOM     23  C   UNL     1     113.335 129.786 140.904  0.00  0.00    +0.000 A 
ATOM     24  C   UNL     1     114.188 128.645 140.779  0.00  0.00    +0.000 A 
ATOM     25  C   UNL     1     113.985 130.283 140.798  0.00  0.00    +0.000 A 
ATOM     26  C   UNL     1     114.838 129.142 140.673  0.00  0.00    +0.000 A 
ATOM     27  C   UNL     1     114.736 129.961 140.682  0.00  0.00    +0.000 A 
BRANCH  27  28
ATOM     28  O   UNL     1     115.385 130.458 140.576  0.00  0.00    +0.000 OA
ATOM     29  C   UNL     1     115.351 131.243 140.831  0.00  0.00    +0.000 C 
ENDBRANCH  27  28
ENDBRANCH  20  22
ENDBRANCH   6  13
BRANCH   8  31
ATOM     30  O   UNL     1     114.084 125.817 138.582  0.00  0.00    +0.000 OA
ATOM     31  C   UNL     1     113.511 126.003 138.017  0.00  0.00    +0.000 C 
ENDBRANCH   8  31
BRANCH   4  32
ATOM     32  O   UNL     1     111.119 128.158 138.743  0.00  0.00    +0.000 OA
BRANCH  32  37
ATOM     33  O   UNL     1     110.184 127.720 137.755  0.00  0.00    +0.000 OA
ATOM     34  O   UNL     1     109.491 130.065 137.372  0.00  0.00    +0.000 OA
ATOM     35  O   UNL     1     108.787 128.846 136.512  0.00  0.00    +0.000 OA
ATOM     36  C   UNL     1     110.305 129.111 138.057  0.00  0.00    +0.000 C 
ATOM     37  C   UNL     1     110.536 128.329 138.185  0.00  0.00    +0.000 C 
ATOM     38  C   UNL     1     109.722 129.283 137.500  0.00  0.00    +0.000 C 
ATOM     39  C   UNL     1     109.371 128.673 137.070  0.00  0.00    +0.000 C 
ATOM     40  C   UNL     1     109.602 127.892 137.198  0.00  0.00    +0.000 C 
BRANCH  40  42
ATOM     41  O   UNL     1     108.763 126.736 137.149  0.00  0.00    +0.000 OA
ATOM     42  C   UNL     1     109.249 127.282 136.767  0.00  0.00    +0.000 C 
ENDBRANCH  40  42
BRANCH  36  43
ATOM     43  O   UNL     1     110.657 129.721 138.488  0.00  0.00    +0.000 OA
BRANCH  43  48
ATOM     44  O   UNL     1     109.610 129.700 139.459  0.00  0.00    +0.000 OA
ATOM     45  O   UNL     1     111.089 131.234 138.985  0.00  0.00    +0.000 OA
ATOM     46  O   UNL     1     110.258 131.970 140.205  0.00  0.00    +0.000 OA
ATOM     47  O   UNL     1     108.995 131.192 140.929  0.00  0.00    +0.000 OA
ATOM     48  C   UNL     1     110.242 130.089 139.098  0.00  0.00    +0.000 C 
ATOM     49  C   UNL     1     110.457 130.845 139.346  0.00  0.00    +0.000 C 
ATOM     50  C   UNL     1     110.042 131.213 139.957  0.00  0.00    +0.000 C 
ATOM     51  C   UNL     1     109.410 130.824 140.319  0.00  0.00    +0.000 C 
ATOM     52  C   UNL     1     109.195 130.067 140.070  0.00  0.00    +0.000 C 
ATOM     53  C   UNL     1     108.563 129.679 140.432  0.00  0.00    +0.000 C 
ENDBRANCH  43  48
ENDBRANCH  36  43
ENDBRANCH  32  37
ENDBRANCH   4  32
TORSDOF 9
ENDMDL
MODEL 9
REMARK VINA RESULT:     -10.0      1.600      3.057
REMARK  Name = 44257877
REMARK  9 active torsions:
REMARK  status: ('A' for Active; 'I' for Inactive)
REMARK    1  A    between atoms: O_1  and  C_20
REMARK    2  A    between atoms: O_1  and  C_22
REMARK    3  A    between atoms: O_3  and  C_21
REMARK    4  A    between atoms: O_3  and  C_30
REMARK    5  A    between atoms: O_19  and  C_52
REMARK    6  A    between atoms: C_25  and  C_33
REMARK    7  A    between atoms: C_28  and  C_36
REMARK    8  A    between atoms: C_29  and  C_37
REMARK    9  A    between atoms: C_45  and  C_47
REMARK                            x       y       z     vdW  Elec       q    Type
REMARK                         _______ _______ _______ _____ _____    ______ ____
ROOT
ATOM      1  O   UNL     1     111.556 127.678 138.263  0.00  0.00    +0.000 OA
ATOM      2  O   UNL     1     111.684 129.635 139.772  0.00  0.00    +0.000 OA
ATOM      3  O   UNL     1     112.545 128.271 140.116  0.00  0.00    +0.000 OA
ATOM      4  C   UNL     1     111.168 129.013 138.594  0.00  0.00    +0.000 C 
ATOM      5  C   UNL     1     111.642 128.983 139.270  0.00  0.00    +0.000 C 
ATOM      6  C   UNL     1     111.126 128.360 138.091  0.00  0.00    +0.000 C 
ATOM      7  C   UNL     1     112.072 128.300 139.441  0.00  0.00    +0.000 C 
ATOM      8  C   UNL     1     112.029 127.648 138.937  0.00  0.00    +0.000 C 
ENDROOT
BRANCH   6  13
ATOM      9  O   UNL     1     111.787 128.919 136.679  0.00  0.00    +0.000 OA
ATOM     10  O   UNL     1     109.552 127.870 138.164  0.00  0.00    +0.000 OA
ATOM     11  O   UNL     1     109.233 128.481 135.391  0.00  0.00    +0.000 OA
ATOM     12  O   UNL     1     110.327 129.009 134.612  0.00  0.00    +0.000 OA
ATOM     13  C   UNL     1     110.652 128.391 137.416  0.00  0.00    +0.000 A 
ATOM     14  C   UNL     1     110.966 128.666 136.704  0.00  0.00    +0.000 A 
ATOM     15  C   UNL     1     109.865 128.145 137.452  0.00  0.00    +0.000 A 
ATOM     16  C   UNL     1     110.492 128.697 136.029  0.00  0.00    +0.000 A 
ATOM     17  C   UNL     1     109.392 128.176 136.777  0.00  0.00    +0.000 A 
ATOM     18  C   UNL     1     109.705 128.451 136.065  0.00  0.00    +0.000 A 
ATOM     19  C   UNL     1     110.807 128.982 135.283  0.00  0.00    +0.000 A 
ATOM     20  C   UNL     1     112.119 129.207 135.941  0.00  0.00    +0.000 A 
ATOM     21  C   UNL     1     111.626 129.239 135.238  0.00  0.00    +0.000 A 
BRANCH  20  22
ATOM     22  C   UNL     1     112.906 129.452 135.907  0.00  0.00    +0.000 A 
ATOM     23  C   UNL     1     113.103 130.234 136.082  0.00  0.00    +0.000 A 
ATOM     24  C   UNL     1     113.497 128.915 135.699  0.00  0.00    +0.000 A 
ATOM     25  C   UNL     1     113.891 130.478 136.048  0.00  0.00    +0.000 A 
ATOM     26  C   UNL     1     114.284 129.159 135.665  0.00  0.00    +0.000 A 
ATOM     27  C   UNL     1     114.480 129.941 135.840  0.00  0.00    +0.000 A 
BRANCH  27  28
ATOM     28  O   UNL     1     115.268 130.185 135.806  0.00  0.00    +0.000 OA
ATOM     29  C   UNL     1     115.506 130.733 135.237  0.00  0.00    +0.000 C 
ENDBRANCH  27  28
ENDBRANCH  20  22
ENDBRANCH   6  13
BRANCH   8  31
ATOM     30  O   UNL     1     112.689 126.458 138.500  0.00  0.00    +0.000 OA
ATOM     31  C   UNL     1     112.460 126.966 139.109  0.00  0.00    +0.000 C 
ENDBRANCH   8  31
BRANCH   4  32
ATOM     32  O   UNL     1     110.737 129.695 138.422  0.00  0.00    +0.000 OA
BRANCH  32  37
ATOM     33  O   UNL     1     109.891 129.642 139.573  0.00  0.00    +0.000 OA
ATOM     34  O   UNL     1     109.919 132.113 139.708  0.00  0.00    +0.000 OA
ATOM     35  O   UNL     1     109.064 131.236 140.814  0.00  0.00    +0.000 OA
ATOM     36  C   UNL     1     110.328 130.904 139.065  0.00  0.00    +0.000 C 
ATOM     37  C   UNL     1     110.319 130.080 139.020  0.00  0.00    +0.000 C 
ATOM     38  C   UNL     1     109.910 131.289 139.663  0.00  0.00    +0.000 C 
ATOM     39  C   UNL     1     109.483 130.850 140.215  0.00  0.00    +0.000 C 
ATOM     40  C   UNL     1     109.474 130.026 140.170  0.00  0.00    +0.000 C 
BRANCH  40  42
ATOM     41  O   UNL     1     108.358 129.195 140.495  0.00  0.00    +0.000 OA
ATOM     42  C   UNL     1     109.046 129.588 140.724  0.00  0.00    +0.000 C 
ENDBRANCH  40  42
BRANCH  36  43
ATOM     43  O   UNL     1     110.755 131.343 138.512  0.00  0.00    +0.000 OA
BRANCH  43  48
ATOM     44  O   UNL     1     109.579 131.529 137.722  0.00  0.00    +0.000 OA
ATOM     45  O   UNL     1     111.534 132.497 137.627  0.00  0.00    +0.000 OA
ATOM     46  O   UNL     1     110.748 133.262 136.394  0.00  0.00    +0.000 OA
ATOM     47  O   UNL     1     109.183 132.871 136.046  0.00  0.00    +0.000 OA
ATOM     48  C   UNL     1     110.362 131.725 137.896  0.00  0.00    +0.000 C 
ATOM     49  C   UNL     1     110.751 132.302 137.454  0.00  0.00    +0.000 C 
ATOM     50  C   UNL     1     110.358 132.684 136.837  0.00  0.00    +0.000 C 
ATOM     51  C   UNL     1     109.576 132.489 136.663  0.00  0.00    +0.000 C 
ATOM     52  C   UNL     1     109.186 131.912 137.106  0.00  0.00    +0.000 C 
ATOM     53  C   UNL     1     108.404 131.717 136.931  0.00  0.00    +0.000 C 
ENDBRANCH  43  48
ENDBRANCH  36  43
ENDBRANCH  32  37
ENDBRANCH   4  32
TORSDOF 9
ENDMDL
MODEL 10
REMARK VINA RESULT:     -10.0      1.585      3.365
REMARK  Name = 44257877
REMARK  9 active torsions:
REMARK  status: ('A' for Active; 'I' for Inactive)
REMARK    1  A    between atoms: O_1  and  C_20
REMARK    2  A    between atoms: O_1  and  C_22
REMARK    3  A    between atoms: O_3  and  C_21
REMARK    4  A    between atoms: O_3  and  C_30
REMARK    5  A    between atoms: O_19  and  C_52
REMARK    6  A    between atoms: C_25  and  C_33
REMARK    7  A    between atoms: C_28  and  C_36
REMARK    8  A    between atoms: C_29  and  C_37
REMARK    9  A    between atoms: C_45  and  C_47
REMARK                            x       y       z     vdW  Elec       q    Type
REMARK                         _______ _______ _______ _____ _____    ______ ____
ROOT
ATOM      1  O   UNL     1     110.710 130.490 139.612  0.00  0.00    +0.000 OA
ATOM      2  O   UNL     1     108.505 130.312 138.502  0.00  0.00    +0.000 OA
ATOM      3  O   UNL     1     108.622 130.993 140.000  0.00  0.00    +0.000 OA
ATOM      4  C   UNL     1     109.917 130.090 138.492  0.00  0.00    +0.000 C 
ATOM      5  C   UNL     1     109.240 130.371 138.872  0.00  0.00    +0.000 C 
ATOM      6  C   UNL     1     110.652 130.149 138.863  0.00  0.00    +0.000 C 
ATOM      7  C   UNL     1     109.298 130.712 139.621  0.00  0.00    +0.000 C 
ATOM      8  C   UNL     1     110.034 130.771 139.991  0.00  0.00    +0.000 C 
ENDROOT
BRANCH   6  13
ATOM      9  O   UNL     1     111.103 128.574 139.103  0.00  0.00    +0.000 OA
ATOM     10  O   UNL     1     111.527 131.151 137.887  0.00  0.00    +0.000 OA
ATOM     11  O   UNL     1     113.358 129.024 137.346  0.00  0.00    +0.000 OA
ATOM     12  O   UNL     1     113.180 127.719 137.935  0.00  0.00    +0.000 OA
ATOM     13  C   UNL     1     111.329 129.868 138.483  0.00  0.00    +0.000 A 
ATOM     14  C   UNL     1     111.567 129.086 138.592  0.00  0.00    +0.000 A 
ATOM     15  C   UNL     1     111.767 130.369 137.995  0.00  0.00    +0.000 A 
ATOM     16  C   UNL     1     112.244 128.804 138.213  0.00  0.00    +0.000 A 
ATOM     17  C   UNL     1     112.442 130.087 137.616  0.00  0.00    +0.000 A 
ATOM     18  C   UNL     1     112.682 129.305 137.725  0.00  0.00    +0.000 A 
ATOM     19  C   UNL     1     112.502 127.992 138.318  0.00  0.00    +0.000 A 
ATOM     20  C   UNL     1     111.346 127.758 139.220  0.00  0.00    +0.000 A 
ATOM     21  C   UNL     1     112.050 127.465 138.825  0.00  0.00    +0.000 A 
BRANCH  20  22
ATOM     22  C   UNL     1     110.906 127.260 139.708  0.00  0.00    +0.000 A 
ATOM     23  C   UNL     1     110.283 126.818 139.395  0.00  0.00    +0.000 A 
ATOM     24  C   UNL     1     111.089 127.202 140.511  0.00  0.00    +0.000 A 
ATOM     25  C   UNL     1     109.844 126.320 139.884  0.00  0.00    +0.000 A 
ATOM     26  C   UNL     1     110.650 126.704 141.000  0.00  0.00    +0.000 A 
ATOM     27  C   UNL     1     110.027 126.263 140.686  0.00  0.00    +0.000 A 
BRANCH  27  28
ATOM     28  O   UNL     1     109.588 125.764 141.175  0.00  0.00    +0.000 OA
ATOM     29  C   UNL     1     109.042 125.239 140.846  0.00  0.00    +0.000 C 
ENDBRANCH  27  28
ENDBRANCH  20  22
ENDBRANCH   6  13
BRANCH   8  31
ATOM     30  O   UNL     1     110.611 131.741 140.868  0.00  0.00    +0.000 OA
ATOM     31  C   UNL     1     110.092 131.112 140.740  0.00  0.00    +0.000 C 
ENDBRANCH   8  31
BRANCH   4  32
ATOM     32  O   UNL     1     109.859 129.749 137.743  0.00  0.00    +0.000 OA
BRANCH  32  37
ATOM     33  O   UNL     1     109.383 130.919 137.073  0.00  0.00    +0.000 OA
ATOM     34  O   UNL     1     107.953 129.508 135.627  0.00  0.00    +0.000 OA
ATOM     35  O   UNL     1     107.954 131.148 135.440  0.00  0.00    +0.000 OA
ATOM     36  C   UNL     1     108.906 129.630 136.685  0.00  0.00    +0.000 C 
ATOM     37  C   UNL     1     109.383 130.100 137.167  0.00  0.00    +0.000 C 
ATOM     38  C   UNL     1     108.430 129.978 136.109  0.00  0.00    +0.000 C 
ATOM     39  C   UNL     1     108.431 130.798 136.016  0.00  0.00    +0.000 C 
ATOM     40  C   UNL     1     108.907 131.268 136.498  0.00  0.00    +0.000 C 
BRANCH  40  42
ATOM     41  O   UNL     1     109.578 132.469 136.109  0.00  0.00    +0.000 OA
ATOM     42  C   UNL     1     108.907 132.088 136.404  0.00  0.00    +0.000 C 
ENDBRANCH  40  42
BRANCH  36  43
ATOM     43  O   UNL     1     108.905 128.809 136.779  0.00  0.00    +0.000 OA
BRANCH  43  48
ATOM     44  O   UNL     1     109.870 128.662 135.736  0.00  0.00    +0.000 OA
ATOM     45  O   UNL     1     108.573 127.195 136.700  0.00  0.00    +0.000 OA
ATOM     46  O   UNL     1     109.371 126.240 135.618  0.00  0.00    +0.000 OA
ATOM     47  O   UNL     1     110.503 126.899 134.614  0.00  0.00    +0.000 OA
ATOM     48  C   UNL     1     109.305 128.332 136.238  0.00  0.00    +0.000 C 
ATOM     49  C   UNL     1     109.138 127.525 136.199  0.00  0.00    +0.000 C 
ATOM     50  C   UNL     1     109.538 127.048 135.657  0.00  0.00    +0.000 C 
ATOM     51  C   UNL     1     110.103 127.376 135.155  0.00  0.00    +0.000 C 
ATOM     52  C   UNL     1     110.270 128.184 135.195  0.00  0.00    +0.000 C 
ATOM     53  C   UNL     1     110.835 128.513 134.692  0.00  0.00    +0.000 C 
ENDBRANCH  43  48
ENDBRANCH  36  43
ENDBRANCH  32  37
ENDBRANCH   4  32
TORSDOF 9
ENDMDL
