MODEL 1
REMARK VINA RESULT:      -9.9      0.000      0.000
REMARK  Name = 44257032
REMARK  5 active torsions:
REMARK  status: ('A' for Active; 'I' for Inactive)
REMARK    1  A    between atoms: O_2  and  C_18
REMARK    2  A    between atoms: O_2  and  C_20
REMARK    3  A    between atoms: C_17  and  C_19
REMARK    4  A    between atoms: C_22  and  C_27
REMARK    5  A    between atoms: C_29  and  C_36
REMARK                            x       y       z     vdW  Elec       q    Type
REMARK                         _______ _______ _______ _____ _____    ______ ____
ROOT
ATOM      1  O   UNL     1     113.845 127.340 136.207  0.00  0.00    +0.000 OA
ATOM      2  O   UNL     1     112.806 129.812 137.236  0.00  0.00    +0.000 OA
ATOM      3  O   UNL     1     114.669 129.850 134.982  0.00  0.00    +0.000 OA
ATOM      4  C   UNL     1     112.934 127.337 137.308  0.00  0.00    +0.000 A 
ATOM      5  C   UNL     1     112.896 128.161 137.278  0.00  0.00    +0.000 A 
ATOM      6  C   UNL     1     113.409 126.927 136.772  0.00  0.00    +0.000 A 
ATOM      7  C   UNL     1     113.333 128.574 136.713  0.00  0.00    +0.000 A 
ATOM      8  C   UNL     1     113.808 128.163 136.177  0.00  0.00    +0.000 A 
ATOM      9  C   UNL     1     113.285 129.431 136.692  0.00  0.00    +0.000 A 
ATOM     10  C   UNL     1     112.425 128.567 137.809  0.00  0.00    +0.000 A 
ATOM     11  C   UNL     1     114.267 128.582 135.584  0.00  0.00    +0.000 A 
ATOM     12  C   UNL     1     112.380 129.384 137.789  0.00  0.00    +0.000 A 
ATOM     13  C   UNL     1     113.738 129.867 136.106  0.00  0.00    +0.000 A 
ATOM     14  C   UNL     1     114.232 129.439 135.548  0.00  0.00    +0.000 A 
ENDROOT
BRANCH   6  17
ATOM     15  O   UNL     1     114.803 124.537 137.489  0.00  0.00    +0.000 OA
ATOM     16  O   UNL     1     113.559 123.632 136.891  0.00  0.00    +0.000 OA
ATOM     17  C   UNL     1     113.447 126.103 136.802  0.00  0.00    +0.000 A 
ATOM     18  C   UNL     1     114.106 125.732 137.131  0.00  0.00    +0.000 A 
ATOM     19  C   UNL     1     112.825 125.650 136.503  0.00  0.00    +0.000 A 
ATOM     20  C   UNL     1     114.144 124.908 137.161  0.00  0.00    +0.000 A 
ATOM     21  C   UNL     1     112.862 124.827 136.533  0.00  0.00    +0.000 A 
ATOM     22  C   UNL     1     113.522 124.456 136.861  0.00  0.00    +0.000 A 
ENDBRANCH   6  17
BRANCH  12  25
ATOM     23  O   UNL     1     112.232 130.106 139.013  0.00  0.00    +0.000 OA
ATOM     24  O   UNL     1     111.091 129.852 138.190  0.00  0.00    +0.000 OA
ATOM     25  C   UNL     1     111.902 129.780 138.330  0.00  0.00    +0.000 C 
ENDBRANCH  12  25
BRANCH   4  26
ATOM     26  O   UNL     1     112.497 126.924 137.873  0.00  0.00    +0.000 OA
BRANCH  26  35
ATOM     27  O   UNL     1     113.127 126.967 139.155  0.00  0.00    +0.000 OA
ATOM     28  O   UNL     1     111.024 126.202 140.213  0.00  0.00    +0.000 OA
ATOM     29  O   UNL     1     112.354 126.499 141.142  0.00  0.00    +0.000 OA
ATOM     30  O   UNL     1     111.095 126.414 138.578  0.00  0.00    +0.000 OA
ATOM     31  C   UNL     1     111.725 126.457 139.860  0.00  0.00    +0.000 C 
ATOM     32  C   UNL     1     112.390 126.606 140.324  0.00  0.00    +0.000 C 
ATOM     33  C   UNL     1     111.761 126.563 139.042  0.00  0.00    +0.000 C 
ATOM     34  C   UNL     1     113.091 126.861 139.972  0.00  0.00    +0.000 C 
ATOM     35  C   UNL     1     112.462 126.818 138.690  0.00  0.00    +0.000 C 
BRANCH  34  37
ATOM     36  O   UNL     1     114.508 126.815 140.157  0.00  0.00    +0.000 OA
ATOM     37  C   UNL     1     113.756 127.010 140.436  0.00  0.00    +0.000 C 
ENDBRANCH  34  37
ENDBRANCH  26  35
ENDBRANCH   4  26
TORSDOF 5
ENDMDL
MODEL 2
REMARK VINA RESULT:      -9.6      2.049      3.883
REMARK  Name = 44257032
REMARK  5 active torsions:
REMARK  status: ('A' for Active; 'I' for Inactive)
REMARK    1  A    between atoms: O_2  and  C_18
REMARK    2  A    between atoms: O_2  and  C_20
REMARK    3  A    between atoms: C_17  and  C_19
REMARK    4  A    between atoms: C_22  and  C_27
REMARK    5  A    between atoms: C_29  and  C_36
REMARK                            x       y       z     vdW  Elec       q    Type
REMARK                         _______ _______ _______ _____ _____    ______ ____
ROOT
ATOM      1  O   UNL     1     113.604 126.273 138.907  0.00  0.00    +0.000 OA
ATOM      2  O   UNL     1     110.957 126.729 139.924  0.00  0.00    +0.000 OA
ATOM      3  O   UNL     1     113.278 127.457 141.547  0.00  0.00    +0.000 OA
ATOM      4  C   UNL     1     112.460 125.922 138.125  0.00  0.00    +0.000 A 
ATOM      5  C   UNL     1     111.966 126.192 138.728  0.00  0.00    +0.000 A 
ATOM      6  C   UNL     1     113.279 125.963 138.215  0.00  0.00    +0.000 A 
ATOM      7  C   UNL     1     112.290 126.503 139.420  0.00  0.00    +0.000 A 
ATOM      8  C   UNL     1     113.110 126.543 139.509  0.00  0.00    +0.000 A 
ATOM      9  C   UNL     1     111.765 126.781 140.040  0.00  0.00    +0.000 A 
ATOM     10  C   UNL     1     111.154 126.152 138.638  0.00  0.00    +0.000 A 
ATOM     11  C   UNL     1     113.460 126.864 140.225  0.00  0.00    +0.000 A 
ATOM     12  C   UNL     1     110.654 126.418 139.230  0.00  0.00    +0.000 A 
ATOM     13  C   UNL     1     112.098 127.105 140.763  0.00  0.00    +0.000 A 
ATOM     14  C   UNL     1     112.951 127.147 140.856  0.00  0.00    +0.000 A 
ENDROOT
BRANCH   6  17
ATOM     15  O   UNL     1     114.960 126.496 135.965  0.00  0.00    +0.000 OA
ATOM     16  O   UNL     1     115.256 124.881 135.804  0.00  0.00    +0.000 OA
ATOM     17  C   UNL     1     113.773 125.692 137.612  0.00  0.00    +0.000 A 
ATOM     18  C   UNL     1     114.120 126.229 137.090  0.00  0.00    +0.000 A 
ATOM     19  C   UNL     1     113.922 124.884 137.531  0.00  0.00    +0.000 A 
ATOM     20  C   UNL     1     114.614 125.959 136.487  0.00  0.00    +0.000 A 
ATOM     21  C   UNL     1     114.416 124.614 136.929  0.00  0.00    +0.000 A 
ATOM     22  C   UNL     1     114.762 125.151 136.407  0.00  0.00    +0.000 A 
ENDBRANCH   6  17
BRANCH  12  25
ATOM     23  O   UNL     1     109.436 125.675 139.314  0.00  0.00    +0.000 OA
ATOM     24  O   UNL     1     109.421 127.021 138.835  0.00  0.00    +0.000 OA
ATOM     25  C   UNL     1     109.838 126.371 139.126  0.00  0.00    +0.000 C 
ENDBRANCH  12  25
BRANCH   4  26
ATOM     26  O   UNL     1     112.135 125.612 137.433  0.00  0.00    +0.000 OA
BRANCH  26  35
ATOM     27  O   UNL     1     111.692 126.646 136.552  0.00  0.00    +0.000 OA
ATOM     28  O   UNL     1     110.378 124.989 135.267  0.00  0.00    +0.000 OA
ATOM     29  O   UNL     1     110.374 126.575 134.815  0.00  0.00    +0.000 OA
ATOM     30  O   UNL     1     111.259 124.507 136.576  0.00  0.00    +0.000 OA
ATOM     31  C   UNL     1     110.816 125.541 135.695  0.00  0.00    +0.000 C 
ATOM     32  C   UNL     1     110.814 126.335 135.469  0.00  0.00    +0.000 C 
ATOM     33  C   UNL     1     111.257 125.301 136.351  0.00  0.00    +0.000 C 
ATOM     34  C   UNL     1     111.252 126.887 135.898  0.00  0.00    +0.000 C 
ATOM     35  C   UNL     1     111.695 125.853 136.779  0.00  0.00    +0.000 C 
BRANCH  34  37
ATOM     36  O   UNL     1     111.957 128.104 135.644  0.00  0.00    +0.000 OA
ATOM     37  C   UNL     1     111.250 127.680 135.672  0.00  0.00    +0.000 C 
ENDBRANCH  34  37
ENDBRANCH  26  35
ENDBRANCH   4  26
TORSDOF 5
ENDMDL
MODEL 3
REMARK VINA RESULT:      -9.4      0.694      1.552
REMARK  Name = 44257032
REMARK  5 active torsions:
REMARK  status: ('A' for Active; 'I' for Inactive)
REMARK    1  A    between atoms: O_2  and  C_18
REMARK    2  A    between atoms: O_2  and  C_20
REMARK    3  A    between atoms: C_17  and  C_19
REMARK    4  A    between atoms: C_22  and  C_27
REMARK    5  A    between atoms: C_29  and  C_36
REMARK                            x       y       z     vdW  Elec       q    Type
REMARK                         _______ _______ _______ _____ _____    ______ ____
ROOT
ATOM      1  O   UNL     1     113.569 127.308 136.209  0.00  0.00    +0.000 OA
ATOM      2  O   UNL     1     113.234 129.810 137.580  0.00  0.00    +0.000 OA
ATOM      3  O   UNL     1     113.965 129.796 134.748  0.00  0.00    +0.000 OA
ATOM      4  C   UNL     1     113.211 127.331 137.593  0.00  0.00    +0.000 A 
ATOM      5  C   UNL     1     113.221 128.156 137.582  0.00  0.00    +0.000 A 
ATOM      6  C   UNL     1     113.385 126.908 136.907  0.00  0.00    +0.000 A 
ATOM      7  C   UNL     1     113.404 128.558 136.884  0.00  0.00    +0.000 A 
ATOM      8  C   UNL     1     113.578 128.133 136.198  0.00  0.00    +0.000 A 
ATOM      9  C   UNL     1     113.410 129.416 136.885  0.00  0.00    +0.000 A 
ATOM     10  C   UNL     1     113.048 128.576 138.262  0.00  0.00    +0.000 A 
ATOM     11  C   UNL     1     113.770 128.539 135.465  0.00  0.00    +0.000 A 
ATOM     12  C   UNL     1     113.055 129.394 138.262  0.00  0.00    +0.000 A 
ATOM     13  C   UNL     1     113.601 129.839 136.161  0.00  0.00    +0.000 A 
ATOM     14  C   UNL     1     113.782 129.398 135.447  0.00  0.00    +0.000 A 
ENDROOT
BRANCH   6  17
ATOM     15  O   UNL     1     112.089 124.438 136.283  0.00  0.00    +0.000 OA
ATOM     16  O   UNL     1     113.349 123.608 136.953  0.00  0.00    +0.000 OA
ATOM     17  C   UNL     1     113.376 126.083 136.918  0.00  0.00    +0.000 A 
ATOM     18  C   UNL     1     112.737 125.672 136.595  0.00  0.00    +0.000 A 
ATOM     19  C   UNL     1     114.006 125.668 137.254  0.00  0.00    +0.000 A 
ATOM     20  C   UNL     1     112.728 124.848 136.606  0.00  0.00    +0.000 A 
ATOM     21  C   UNL     1     113.996 124.843 137.265  0.00  0.00    +0.000 A 
ATOM     22  C   UNL     1     113.358 124.433 136.942  0.00  0.00    +0.000 A 
ENDBRANCH   6  17
BRANCH  12  25
ATOM     23  O   UNL     1     113.464 129.925 139.524  0.00  0.00    +0.000 OA
ATOM     24  O   UNL     1     112.116 130.094 139.081  0.00  0.00    +0.000 OA
ATOM     25  C   UNL     1     112.879 129.804 138.955  0.00  0.00    +0.000 C 
ENDBRANCH  12  25
BRANCH   4  26
ATOM     26  O   UNL     1     113.028 126.931 138.291  0.00  0.00    +0.000 OA
BRANCH  26  35
ATOM     27  O   UNL     1     111.620 126.904 138.532  0.00  0.00    +0.000 OA
ATOM     28  O   UNL     1     112.036 126.287 140.892  0.00  0.00    +0.000 OA
ATOM     29  O   UNL     1     110.490 126.466 140.346  0.00  0.00    +0.000 OA
ATOM     30  O   UNL     1     113.305 126.519 139.864  0.00  0.00    +0.000 OA
ATOM     31  C   UNL     1     111.897 126.492 140.105  0.00  0.00    +0.000 C 
ATOM     32  C   UNL     1     111.124 126.582 139.832  0.00  0.00    +0.000 C 
ATOM     33  C   UNL     1     112.532 126.609 139.591  0.00  0.00    +0.000 C 
ATOM     34  C   UNL     1     110.986 126.788 139.045  0.00  0.00    +0.000 C 
ATOM     35  C   UNL     1     112.394 126.815 138.804  0.00  0.00    +0.000 C 
BRANCH  34  37
ATOM     36  O   UNL     1     110.008 126.617 138.017  0.00  0.00    +0.000 OA
ATOM     37  C   UNL     1     110.213 126.877 138.773  0.00  0.00    +0.000 C 
ENDBRANCH  34  37
ENDBRANCH  26  35
ENDBRANCH   4  26
TORSDOF 5
ENDMDL
MODEL 4
REMARK VINA RESULT:      -9.4      1.336      3.686
REMARK  Name = 44257032
REMARK  5 active torsions:
REMARK  status: ('A' for Active; 'I' for Inactive)
REMARK    1  A    between atoms: O_2  and  C_18
REMARK    2  A    between atoms: O_2  and  C_20
REMARK    3  A    between atoms: C_17  and  C_19
REMARK    4  A    between atoms: C_22  and  C_27
REMARK    5  A    between atoms: C_29  and  C_36
REMARK                            x       y       z     vdW  Elec       q    Type
REMARK                         _______ _______ _______ _____ _____    ______ ____
ROOT
ATOM      1  O   UNL     1     113.125 126.773 136.400  0.00  0.00    +0.000 OA
ATOM      2  O   UNL     1     113.900 126.114 139.087  0.00  0.00    +0.000 OA
ATOM      3  O   UNL     1     115.007 124.597 136.845  0.00  0.00    +0.000 OA
ATOM      4  C   UNL     1     112.592 127.506 137.506  0.00  0.00    +0.000 A 
ATOM      5  C   UNL     1     113.030 127.039 138.026  0.00  0.00    +0.000 A 
ATOM      6  C   UNL     1     112.640 127.373 136.693  0.00  0.00    +0.000 A 
ATOM      7  C   UNL     1     113.516 126.439 137.734  0.00  0.00    +0.000 A 
ATOM      8  C   UNL     1     113.563 126.306 136.921  0.00  0.00    +0.000 A 
ATOM      9  C   UNL     1     113.966 125.960 138.286  0.00  0.00    +0.000 A 
ATOM     10  C   UNL     1     112.983 127.172 138.832  0.00  0.00    +0.000 A 
ATOM     11  C   UNL     1     114.065 125.685 136.604  0.00  0.00    +0.000 A 
ATOM     12  C   UNL     1     113.413 126.714 139.357  0.00  0.00    +0.000 A 
ATOM     13  C   UNL     1     114.474 125.334 137.987  0.00  0.00    +0.000 A 
ATOM     14  C   UNL     1     114.523 125.195 137.141  0.00  0.00    +0.000 A 
ENDROOT
BRANCH   6  17
ATOM     15  O   UNL     1     112.510 129.491 134.778  0.00  0.00    +0.000 OA
ATOM     16  O   UNL     1     110.887 129.240 134.612  0.00  0.00    +0.000 OA
ATOM     17  C   UNL     1     112.202 127.840 136.173  0.00  0.00    +0.000 A 
ATOM     18  C   UNL     1     112.575 128.432 135.735  0.00  0.00    +0.000 A 
ATOM     19  C   UNL     1     111.390 127.715 136.089  0.00  0.00    +0.000 A 
ATOM     20  C   UNL     1     112.137 128.899 135.215  0.00  0.00    +0.000 A 
ATOM     21  C   UNL     1     110.952 128.182 135.569  0.00  0.00    +0.000 A 
ATOM     22  C   UNL     1     111.325 128.773 135.132  0.00  0.00    +0.000 A 
ENDBRANCH   6  17
BRANCH  12  25
ATOM     23  O   UNL     1     112.710 126.571 140.593  0.00  0.00    +0.000 OA
ATOM     24  O   UNL     1     113.943 127.292 140.551  0.00  0.00    +0.000 OA
ATOM     25  C   UNL     1     113.355 126.859 140.167  0.00  0.00    +0.000 C 
ENDBRANCH  12  25
BRANCH   4  26
ATOM     26  O   UNL     1     112.107 128.106 137.798  0.00  0.00    +0.000 OA
BRANCH  26  35
ATOM     27  O   UNL     1     112.856 129.271 138.148  0.00  0.00    +0.000 OA
ATOM     28  O   UNL     1     110.944 130.101 139.482  0.00  0.00    +0.000 OA
ATOM     29  O   UNL     1     112.330 130.989 139.387  0.00  0.00    +0.000 OA
ATOM     30  O   UNL     1     110.832 128.659 138.687  0.00  0.00    +0.000 OA
ATOM     31  C   UNL     1     111.581 129.824 139.037  0.00  0.00    +0.000 C 
ATOM     32  C   UNL     1     112.275 130.268 138.989  0.00  0.00    +0.000 C 
ATOM     33  C   UNL     1     111.525 129.103 138.640  0.00  0.00    +0.000 C 
ATOM     34  C   UNL     1     112.913 129.991 138.545  0.00  0.00    +0.000 C 
ATOM     35  C   UNL     1     112.163 128.826 138.195  0.00  0.00    +0.000 C 
BRANCH  34  37
ATOM     36  O   UNL     1     114.051 130.434 137.803  0.00  0.00    +0.000 OA
ATOM     37  C   UNL     1     113.605 130.435 138.498  0.00  0.00    +0.000 C 
ENDBRANCH  34  37
ENDBRANCH  26  35
ENDBRANCH   4  26
TORSDOF 5
ENDMDL
MODEL 5
REMARK VINA RESULT:      -9.3      1.971      3.722
REMARK  Name = 44257032
REMARK  5 active torsions:
REMARK  status: ('A' for Active; 'I' for Inactive)
REMARK    1  A    between atoms: O_2  and  C_18
REMARK    2  A    between atoms: O_2  and  C_20
REMARK    3  A    between atoms: C_17  and  C_19
REMARK    4  A    between atoms: C_22  and  C_27
REMARK    5  A    between atoms: C_29  and  C_36
REMARK                            x       y       z     vdW  Elec       q    Type
REMARK                         _______ _______ _______ _____ _____    ______ ____
ROOT
ATOM      1  O   UNL     1     111.772 125.911 136.163  0.00  0.00    +0.000 OA
ATOM      2  O   UNL     1     110.137 128.120 135.328  0.00  0.00    +0.000 OA
ATOM      3  O   UNL     1     109.362 125.393 134.612  0.00  0.00    +0.000 OA
ATOM      4  C   UNL     1     112.138 127.250 136.505  0.00  0.00    +0.000 A 
ATOM      5  C   UNL     1     111.470 127.532 136.111  0.00  0.00    +0.000 A 
ATOM      6  C   UNL     1     112.288 126.438 136.530  0.00  0.00    +0.000 A 
ATOM      7  C   UNL     1     110.953 127.005 135.743  0.00  0.00    +0.000 A 
ATOM      8  C   UNL     1     111.104 126.194 135.769  0.00  0.00    +0.000 A 
ATOM      9  C   UNL     1     110.262 127.312 135.337  0.00  0.00    +0.000 A 
ATOM     10  C   UNL     1     111.322 128.336 136.087  0.00  0.00    +0.000 A 
ATOM     11  C   UNL     1     110.573 125.634 135.390  0.00  0.00    +0.000 A 
ATOM     12  C   UNL     1     110.662 128.628 135.699  0.00  0.00    +0.000 A 
ATOM     13  C   UNL     1     109.720 126.767 134.952  0.00  0.00    +0.000 A 
ATOM     14  C   UNL     1     109.877 125.923 134.979  0.00  0.00    +0.000 A 
ENDROOT
BRANCH   6  17
ATOM     15  O   UNL     1     114.939 125.372 136.456  0.00  0.00    +0.000 OA
ATOM     16  O   UNL     1     114.958 125.307 138.105  0.00  0.00    +0.000 OA
ATOM     17  C   UNL     1     112.956 126.155 136.924  0.00  0.00    +0.000 A 
ATOM     18  C   UNL     1     113.614 125.905 136.493  0.00  0.00    +0.000 A 
ATOM     19  C   UNL     1     112.966 126.123 137.749  0.00  0.00    +0.000 A 
ATOM     20  C   UNL     1     114.281 125.622 136.887  0.00  0.00    +0.000 A 
ATOM     21  C   UNL     1     113.633 125.840 138.142  0.00  0.00    +0.000 A 
ATOM     22  C   UNL     1     114.291 125.590 137.712  0.00  0.00    +0.000 A 
ENDBRANCH   6  17
BRANCH  12  25
ATOM     23  O   UNL     1     110.161 129.811 136.322  0.00  0.00    +0.000 OA
ATOM     24  O   UNL     1     110.750 129.883 135.023  0.00  0.00    +0.000 OA
ATOM     25  C   UNL     1     110.525 129.440 135.682  0.00  0.00    +0.000 C 
ENDBRANCH  12  25
BRANCH   4  26
ATOM     26  O   UNL     1     112.654 127.777 136.873  0.00  0.00    +0.000 OA
BRANCH  26  35
ATOM     27  O   UNL     1     113.527 128.419 135.941  0.00  0.00    +0.000 OA
ATOM     28  O   UNL     1     113.987 130.199 137.599  0.00  0.00    +0.000 OA
ATOM     29  O   UNL     1     114.706 130.247 136.116  0.00  0.00    +0.000 OA
ATOM     30  O   UNL     1     112.960 128.963 137.978  0.00  0.00    +0.000 OA
ATOM     31  C   UNL     1     113.834 129.606 137.046  0.00  0.00    +0.000 C 
ATOM     32  C   UNL     1     114.193 129.629 136.304  0.00  0.00    +0.000 C 
ATOM     33  C   UNL     1     113.320 128.987 137.236  0.00  0.00    +0.000 C 
ATOM     34  C   UNL     1     114.040 129.036 135.752  0.00  0.00    +0.000 C 
ATOM     35  C   UNL     1     113.167 128.394 136.683  0.00  0.00    +0.000 C 
BRANCH  34  37
ATOM     36  O   UNL     1     114.924 128.464 134.786  0.00  0.00    +0.000 OA
ATOM     37  C   UNL     1     114.400 129.061 135.011  0.00  0.00    +0.000 C 
ENDBRANCH  34  37
ENDBRANCH  26  35
ENDBRANCH   4  26
TORSDOF 5
ENDMDL
MODEL 6
REMARK VINA RESULT:      -9.3      1.292      4.044
REMARK  Name = 44257032
REMARK  5 active torsions:
REMARK  status: ('A' for Active; 'I' for Inactive)
REMARK    1  A    between atoms: O_2  and  C_18
REMARK    2  A    between atoms: O_2  and  C_20
REMARK    3  A    between atoms: C_17  and  C_19
REMARK    4  A    between atoms: C_22  and  C_27
REMARK    5  A    between atoms: C_29  and  C_36
REMARK                            x       y       z     vdW  Elec       q    Type
REMARK                         _______ _______ _______ _____ _____    ______ ____
ROOT
ATOM      1  O   UNL     1     112.563 126.562 136.224  0.00  0.00    +0.000 OA
ATOM      2  O   UNL     1     111.700 125.584 138.784  0.00  0.00    +0.000 OA
ATOM      3  O   UNL     1     111.668 123.802 136.466  0.00  0.00    +0.000 OA
ATOM      4  C   UNL     1     112.573 127.422 137.367  0.00  0.00    +0.000 A 
ATOM      5  C   UNL     1     112.283 126.806 137.832  0.00  0.00    +0.000 A 
ATOM      6  C   UNL     1     112.713 127.299 136.562  0.00  0.00    +0.000 A 
ATOM      7  C   UNL     1     112.132 126.068 137.494  0.00  0.00    +0.000 A 
ATOM      8  C   UNL     1     112.273 125.946 136.690  0.00  0.00    +0.000 A 
ATOM      9  C   UNL     1     111.830 125.435 137.990  0.00  0.00    +0.000 A 
ATOM     10  C   UNL     1     112.144 126.927 138.629  0.00  0.00    +0.000 A 
ATOM     11  C   UNL     1     112.120 125.183 136.326  0.00  0.00    +0.000 A 
ATOM     12  C   UNL     1     111.856 126.323 139.100  0.00  0.00    +0.000 A 
ATOM     13  C   UNL     1     111.671 124.664 137.643  0.00  0.00    +0.000 A 
ATOM     14  C   UNL     1     111.817 124.538 136.806  0.00  0.00    +0.000 A 
ENDROOT
BRANCH   6  17
ATOM     15  O   UNL     1     112.280 129.353 134.622  0.00  0.00    +0.000 OA
ATOM     16  O   UNL     1     113.876 129.763 134.700  0.00  0.00    +0.000 OA
ATOM     17  C   UNL     1     113.004 127.915 136.097  0.00  0.00    +0.000 A 
ATOM     18  C   UNL     1     112.496 128.326 135.592  0.00  0.00    +0.000 A 
ATOM     19  C   UNL     1     113.802 128.121 136.135  0.00  0.00    +0.000 A 
ATOM     20  C   UNL     1     112.787 128.942 135.126  0.00  0.00    +0.000 A 
ATOM     21  C   UNL     1     114.093 128.736 135.670  0.00  0.00    +0.000 A 
ATOM     22  C   UNL     1     113.586 129.147 135.165  0.00  0.00    +0.000 A 
ENDBRANCH   6  17
BRANCH  12  25
ATOM     23  O   UNL     1     110.968 126.674 140.163  0.00  0.00    +0.000 OA
ATOM     24  O   UNL     1     112.339 126.382 140.444  0.00  0.00    +0.000 OA
ATOM     25  C   UNL     1     111.721 126.460 139.902  0.00  0.00    +0.000 C 
ENDBRANCH  12  25
BRANCH   4  26
ATOM     26  O   UNL     1     112.723 128.159 137.704  0.00  0.00    +0.000 OA
BRANCH  26  35
ATOM     27  O   UNL     1     111.521 128.911 137.879  0.00  0.00    +0.000 OA
ATOM     28  O   UNL     1     112.704 130.446 139.418  0.00  0.00    +0.000 OA
ATOM     29  O   UNL     1     111.108 130.686 139.079  0.00  0.00    +0.000 OA
ATOM     30  O   UNL     1     113.512 129.182 138.730  0.00  0.00    +0.000 OA
ATOM     31  C   UNL     1     112.310 129.934 138.905  0.00  0.00    +0.000 C 
ATOM     32  C   UNL     1     111.511 130.054 138.735  0.00  0.00    +0.000 C 
ATOM     33  C   UNL     1     112.714 129.302 138.561  0.00  0.00    +0.000 C 
ATOM     34  C   UNL     1     111.117 129.542 138.222  0.00  0.00    +0.000 C 
ATOM     35  C   UNL     1     112.320 128.790 138.048  0.00  0.00    +0.000 C 
BRANCH  34  37
ATOM     36  O   UNL     1     110.020 129.466 137.310  0.00  0.00    +0.000 OA
ATOM     37  C   UNL     1     110.319 129.662 138.054  0.00  0.00    +0.000 C 
ENDBRANCH  34  37
ENDBRANCH  26  35
ENDBRANCH   4  26
TORSDOF 5
ENDMDL
MODEL 7
REMARK VINA RESULT:      -9.3      1.836      3.036
REMARK  Name = 44257032
REMARK  5 active torsions:
REMARK  status: ('A' for Active; 'I' for Inactive)
REMARK    1  A    between atoms: O_2  and  C_18
REMARK    2  A    between atoms: O_2  and  C_20
REMARK    3  A    between atoms: C_17  and  C_19
REMARK    4  A    between atoms: C_22  and  C_27
REMARK    5  A    between atoms: C_29  and  C_36
REMARK                            x       y       z     vdW  Elec       q    Type
REMARK                         _______ _______ _______ _____ _____    ______ ____
ROOT
ATOM      1  O   UNL     1     111.768 125.583 136.148  0.00  0.00    +0.000 OA
ATOM      2  O   UNL     1     109.482 126.876 137.311  0.00  0.00    +0.000 OA
ATOM      3  O   UNL     1     109.301 125.763 134.612  0.00  0.00    +0.000 OA
ATOM      4  C   UNL     1     111.842 126.131 137.466  0.00  0.00    +0.000 A 
ATOM      5  C   UNL     1     111.056 126.376 137.407  0.00  0.00    +0.000 A 
ATOM      6  C   UNL     1     112.197 125.734 136.836  0.00  0.00    +0.000 A 
ATOM      7  C   UNL     1     110.626 126.224 136.719  0.00  0.00    +0.000 A 
ATOM      8  C   UNL     1     110.983 125.827 136.089  0.00  0.00    +0.000 A 
ATOM      9  C   UNL     1     109.809 126.485 136.671  0.00  0.00    +0.000 A 
ATOM     10  C   UNL     1     110.704 126.769 138.032  0.00  0.00    +0.000 A 
ATOM     11  C   UNL     1     110.546 125.664 135.368  0.00  0.00    +0.000 A 
ATOM     12  C   UNL     1     109.925 127.017 137.984  0.00  0.00    +0.000 A 
ATOM     13  C   UNL     1     109.357 126.329 135.956  0.00  0.00    +0.000 A 
ATOM     14  C   UNL     1     109.728 125.916 135.301  0.00  0.00    +0.000 A 
ENDROOT
BRANCH   6  17
ATOM     15  O   UNL     1     114.955 126.080 136.166  0.00  0.00    +0.000 OA
ATOM     16  O   UNL     1     115.340 124.754 137.070  0.00  0.00    +0.000 OA
ATOM     17  C   UNL     1     112.983 125.489 136.894  0.00  0.00    +0.000 A 
ATOM     18  C   UNL     1     113.577 125.907 136.501  0.00  0.00    +0.000 A 
ATOM     19  C   UNL     1     113.176 124.826 137.346  0.00  0.00    +0.000 A 
ATOM     20  C   UNL     1     114.362 125.662 136.559  0.00  0.00    +0.000 A 
ATOM     21  C   UNL     1     113.961 124.581 137.405  0.00  0.00    +0.000 A 
ATOM     22  C   UNL     1     114.554 124.999 137.012  0.00  0.00    +0.000 A 
ENDBRANCH   6  17
BRANCH  12  25
ATOM     23  O   UNL     1     109.295 126.985 139.267  0.00  0.00    +0.000 OA
ATOM     24  O   UNL     1     109.528 128.236 138.615  0.00  0.00    +0.000 OA
ATOM     25  C   UNL     1     109.583 127.412 138.622  0.00  0.00    +0.000 C 
ENDBRANCH  12  25
BRANCH   4  26
ATOM     26  O   UNL     1     112.271 126.283 138.154  0.00  0.00    +0.000 OA
BRANCH  26  35
ATOM     27  O   UNL     1     112.731 127.635 138.204  0.00  0.00    +0.000 OA
ATOM     28  O   UNL     1     113.154 127.400 140.632  0.00  0.00    +0.000 OA
ATOM     29  O   UNL     1     113.473 128.829 139.873  0.00  0.00    +0.000 OA
ATOM     30  O   UNL     1     112.553 126.126 139.772  0.00  0.00    +0.000 OA
ATOM     31  C   UNL     1     113.013 127.478 139.822  0.00  0.00    +0.000 C 
ATOM     32  C   UNL     1     113.172 128.193 139.443  0.00  0.00    +0.000 C 
ATOM     33  C   UNL     1     112.712 126.841 139.392  0.00  0.00    +0.000 C 
ATOM     34  C   UNL     1     113.031 128.271 138.634  0.00  0.00    +0.000 C 
ATOM     35  C   UNL     1     112.571 126.919 138.583  0.00  0.00    +0.000 C 
BRANCH  34  37
ATOM     36  O   UNL     1     113.431 128.991 137.466  0.00  0.00    +0.000 OA
ATOM     37  C   UNL     1     113.191 128.986 138.255  0.00  0.00    +0.000 C 
ENDBRANCH  34  37
ENDBRANCH  26  35
ENDBRANCH   4  26
TORSDOF 5
ENDMDL
MODEL 8
REMARK VINA RESULT:      -9.2      1.638      3.978
REMARK  Name = 44257032
REMARK  5 active torsions:
REMARK  status: ('A' for Active; 'I' for Inactive)
REMARK    1  A    between atoms: O_2  and  C_18
REMARK    2  A    between atoms: O_2  and  C_20
REMARK    3  A    between atoms: C_17  and  C_19
REMARK    4  A    between atoms: C_22  and  C_27
REMARK    5  A    between atoms: C_29  and  C_36
REMARK                            x       y       z     vdW  Elec       q    Type
REMARK                         _______ _______ _______ _____ _____    ______ ____
ROOT
ATOM      1  O   UNL     1     113.708 126.110 138.725  0.00  0.00    +0.000 OA
ATOM      2  O   UNL     1     112.546 125.339 136.213  0.00  0.00    +0.000 OA
ATOM      3  O   UNL     1     115.264 124.485 136.876  0.00  0.00    +0.000 OA
ATOM      4  C   UNL     1     112.381 126.520 138.387  0.00  0.00    +0.000 A 
ATOM      5  C   UNL     1     112.443 126.125 137.665  0.00  0.00    +0.000 A 
ATOM      6  C   UNL     1     113.014 126.512 138.917  0.00  0.00    +0.000 A 
ATOM      7  C   UNL     1     113.137 125.722 137.473  0.00  0.00    +0.000 A 
ATOM      8  C   UNL     1     113.770 125.715 138.003  0.00  0.00    +0.000 A 
ATOM      9  C   UNL     1     113.189 125.315 136.719  0.00  0.00    +0.000 A 
ATOM     10  C   UNL     1     111.816 126.133 137.141  0.00  0.00    +0.000 A 
ATOM     11  C   UNL     1     114.498 125.299 137.815  0.00  0.00    +0.000 A 
ATOM     12  C   UNL     1     111.866 125.744 136.422  0.00  0.00    +0.000 A 
ATOM     13  C   UNL     1     113.910 124.894 136.513  0.00  0.00    +0.000 A 
ATOM     14  C   UNL     1     114.569 124.886 137.065  0.00  0.00    +0.000 A 
ENDROOT
BRANCH   6  17
ATOM     15  O   UNL     1     113.659 128.745 140.580  0.00  0.00    +0.000 OA
ATOM     16  O   UNL     1     112.765 128.092 141.803  0.00  0.00    +0.000 OA
ATOM     17  C   UNL     1     112.952 126.907 139.638  0.00  0.00    +0.000 A 
ATOM     18  C   UNL     1     113.337 127.629 139.748  0.00  0.00    +0.000 A 
ATOM     19  C   UNL     1     112.505 126.580 140.250  0.00  0.00    +0.000 A 
ATOM     20  C   UNL     1     113.275 128.024 140.470  0.00  0.00    +0.000 A 
ATOM     21  C   UNL     1     112.443 126.975 140.972  0.00  0.00    +0.000 A 
ATOM     22  C   UNL     1     112.827 127.697 141.082  0.00  0.00    +0.000 A 
ENDBRANCH   6  17
BRANCH  12  25
ATOM     23  O   UNL     1     111.201 126.318 135.295  0.00  0.00    +0.000 OA
ATOM     24  O   UNL     1     110.610 125.219 135.991  0.00  0.00    +0.000 OA
ATOM     25  C   UNL     1     111.226 125.760 135.903  0.00  0.00    +0.000 C 
ENDBRANCH  12  25
BRANCH   4  26
ATOM     26  O   UNL     1     111.687 126.922 138.579  0.00  0.00    +0.000 OA
BRANCH  26  35
ATOM     27  O   UNL     1     111.616 128.193 137.928  0.00  0.00    +0.000 OA
ATOM     28  O   UNL     1     109.191 128.305 138.412  0.00  0.00    +0.000 OA
ATOM     29  O   UNL     1     109.928 129.537 137.601  0.00  0.00    +0.000 OA
ATOM     30  O   UNL     1     110.070 126.997 138.901  0.00  0.00    +0.000 OA
ATOM     31  C   UNL     1     109.999 128.267 138.251  0.00  0.00    +0.000 C 
ATOM     32  C   UNL     1     110.369 128.883 137.845  0.00  0.00    +0.000 C 
ATOM     33  C   UNL     1     110.439 127.613 138.495  0.00  0.00    +0.000 C 
ATOM     34  C   UNL     1     111.177 128.846 137.684  0.00  0.00    +0.000 C 
ATOM     35  C   UNL     1     111.248 127.576 138.334  0.00  0.00    +0.000 C 
BRANCH  34  37
ATOM     36  O   UNL     1     112.326 129.663 137.453  0.00  0.00    +0.000 OA
ATOM     37  C   UNL     1     111.545 129.462 137.279  0.00  0.00    +0.000 C 
ENDBRANCH  34  37
ENDBRANCH  26  35
ENDBRANCH   4  26
TORSDOF 5
ENDMDL
MODEL 9
REMARK VINA RESULT:      -9.1      1.452      2.311
REMARK  Name = 44257032
REMARK  5 active torsions:
REMARK  status: ('A' for Active; 'I' for Inactive)
REMARK    1  A    between atoms: O_2  and  C_18
REMARK    2  A    between atoms: O_2  and  C_20
REMARK    3  A    between atoms: C_17  and  C_19
REMARK    4  A    between atoms: C_22  and  C_27
REMARK    5  A    between atoms: C_29  and  C_36
REMARK                            x       y       z     vdW  Elec       q    Type
REMARK                         _______ _______ _______ _____ _____    ______ ____
ROOT
ATOM      1  O   UNL     1     113.549 127.803 135.951  0.00  0.00    +0.000 OA
ATOM      2  O   UNL     1     113.692 130.412 137.145  0.00  0.00    +0.000 OA
ATOM      3  O   UNL     1     115.193 129.855 134.698  0.00  0.00    +0.000 OA
ATOM      4  C   UNL     1     112.821 128.091 137.147  0.00  0.00    +0.000 A 
ATOM      5  C   UNL     1     113.115 128.862 137.140  0.00  0.00    +0.000 A 
ATOM      6  C   UNL     1     113.039 127.562 136.552  0.00  0.00    +0.000 A 
ATOM      7  C   UNL     1     113.626 129.104 136.539  0.00  0.00    +0.000 A 
ATOM      8  C   UNL     1     113.843 128.574 135.944  0.00  0.00    +0.000 A 
ATOM      9  C   UNL     1     113.924 129.909 136.543  0.00  0.00    +0.000 A 
ATOM     10  C   UNL     1     112.899 129.385 137.730  0.00  0.00    +0.000 A 
ATOM     11  C   UNL     1     114.374 128.814 135.312  0.00  0.00    +0.000 A 
ATOM     12  C   UNL     1     113.185 130.153 137.733  0.00  0.00    +0.000 A 
ATOM     13  C   UNL     1     114.456 130.167 135.919  0.00  0.00    +0.000 A 
ATOM     14  C   UNL     1     114.682 129.616 135.300  0.00  0.00    +0.000 A 
ENDROOT
BRANCH   6  17
ATOM     15  O   UNL     1     111.213 125.599 135.559  0.00  0.00    +0.000 OA
ATOM     16  O   UNL     1     111.865 124.478 136.580  0.00  0.00    +0.000 OA
ATOM     17  C   UNL     1     112.745 126.791 136.559  0.00  0.00    +0.000 A 
ATOM     18  C   UNL     1     112.126 126.580 136.055  0.00  0.00    +0.000 A 
ATOM     19  C   UNL     1     113.071 126.230 137.069  0.00  0.00    +0.000 A 
ATOM     20  C   UNL     1     111.832 125.809 136.062  0.00  0.00    +0.000 A 
ATOM     21  C   UNL     1     112.777 125.459 137.076  0.00  0.00    +0.000 A 
ATOM     22  C   UNL     1     112.158 125.248 136.573  0.00  0.00    +0.000 A 
ENDBRANCH   6  17
BRANCH  12  25
ATOM     23  O   UNL     1     112.328 131.189 138.217  0.00  0.00    +0.000 OA
ATOM     24  O   UNL     1     113.364 130.669 139.053  0.00  0.00    +0.000 OA
ATOM     25  C   UNL     1     112.959 130.670 138.334  0.00  0.00    +0.000 C 
ENDBRANCH  12  25
BRANCH   4  26
ATOM     26  O   UNL     1     112.311 127.849 137.748  0.00  0.00    +0.000 OA
BRANCH  26  35
ATOM     27  O   UNL     1     110.978 128.317 137.530  0.00  0.00    +0.000 OA
ATOM     28  O   UNL     1     110.423 127.837 139.894  0.00  0.00    +0.000 OA
ATOM     29  O   UNL     1     109.276 128.465 138.888  0.00  0.00    +0.000 OA
ATOM     30  O   UNL     1     111.940 127.529 139.324  0.00  0.00    +0.000 OA
ATOM     31  C   UNL     1     110.608 127.997 139.106  0.00  0.00    +0.000 C 
ATOM     32  C   UNL     1     110.035 128.311 138.602  0.00  0.00    +0.000 C 
ATOM     33  C   UNL     1     111.367 127.843 138.820  0.00  0.00    +0.000 C 
ATOM     34  C   UNL     1     110.220 128.471 137.814  0.00  0.00    +0.000 C 
ATOM     35  C   UNL     1     111.553 128.003 138.033  0.00  0.00    +0.000 C 
BRANCH  34  37
ATOM     36  O   UNL     1     109.606 128.537 136.526  0.00  0.00    +0.000 OA
ATOM     37  C   UNL     1     109.647 128.785 137.312  0.00  0.00    +0.000 C 
ENDBRANCH  34  37
ENDBRANCH  26  35
ENDBRANCH   4  26
TORSDOF 5
ENDMDL
MODEL 10
REMARK VINA RESULT:      -9.1      1.320      3.538
REMARK  Name = 44257032
REMARK  5 active torsions:
REMARK  status: ('A' for Active; 'I' for Inactive)
REMARK    1  A    between atoms: O_2  and  C_18
REMARK    2  A    between atoms: O_2  and  C_20
REMARK    3  A    between atoms: C_17  and  C_19
REMARK    4  A    between atoms: C_22  and  C_27
REMARK    5  A    between atoms: C_29  and  C_36
REMARK                            x       y       z     vdW  Elec       q    Type
REMARK                         _______ _______ _______ _____ _____    ______ ____
ROOT
ATOM      1  O   UNL     1     113.172 126.486 138.991  0.00  0.00    +0.000 OA
ATOM      2  O   UNL     1     113.538 129.212 139.817  0.00  0.00    +0.000 OA
ATOM      3  O   UNL     1     114.683 127.047 141.416  0.00  0.00    +0.000 OA
ATOM      4  C   UNL     1     112.618 127.555 138.220  0.00  0.00    +0.000 A 
ATOM      5  C   UNL     1     112.927 128.101 138.755  0.00  0.00    +0.000 A 
ATOM      6  C   UNL     1     112.741 126.747 138.338  0.00  0.00    +0.000 A 
ATOM      7  C   UNL     1     113.359 127.840 139.409  0.00  0.00    +0.000 A 
ATOM      8  C   UNL     1     113.481 127.032 139.526  0.00  0.00    +0.000 A 
ATOM      9  C   UNL     1     113.675 128.418 139.959  0.00  0.00    +0.000 A 
ATOM     10  C   UNL     1     112.805 128.901 138.638  0.00  0.00    +0.000 A 
ATOM     11  C   UNL     1     113.928 126.748 140.203  0.00  0.00    +0.000 A 
ATOM     12  C   UNL     1     113.107 129.451 139.164  0.00  0.00    +0.000 A 
ATOM     13  C   UNL     1     114.125 128.152 140.642  0.00  0.00    +0.000 A 
ATOM     14  C   UNL     1     114.252 127.311 140.764  0.00  0.00    +0.000 A 
ENDROOT
BRANCH   6  17
ATOM     15  O   UNL     1     113.116 124.920 136.172  0.00  0.00    +0.000 OA
ATOM     16  O   UNL     1     111.505 124.563 136.195  0.00  0.00    +0.000 OA
ATOM     17  C   UNL     1     112.432 126.201 137.802  0.00  0.00    +0.000 A 
ATOM     18  C   UNL     1     112.928 125.833 137.254  0.00  0.00    +0.000 A 
ATOM     19  C   UNL     1     111.626 126.022 137.813  0.00  0.00    +0.000 A 
ATOM     20  C   UNL     1     112.620 125.287 136.719  0.00  0.00    +0.000 A 
ATOM     21  C   UNL     1     111.318 125.476 137.278  0.00  0.00    +0.000 A 
ATOM     22  C   UNL     1     111.814 125.109 136.731  0.00  0.00    +0.000 A 
ENDBRANCH   6  17
BRANCH  12  25
ATOM     23  O   UNL     1     112.264 130.600 139.263  0.00  0.00    +0.000 OA
ATOM     24  O   UNL     1     113.559 130.714 138.671  0.00  0.00    +0.000 OA
ATOM     25  C   UNL     1     112.976 130.255 139.033  0.00  0.00    +0.000 C 
ENDBRANCH  12  25
BRANCH   4  26
ATOM     26  O   UNL     1     112.187 127.816 137.567  0.00  0.00    +0.000 OA
BRANCH  26  35
ATOM     27  O   UNL     1     113.046 128.292 136.528  0.00  0.00    +0.000 OA
ATOM     28  O   UNL     1     111.116 129.394 135.438  0.00  0.00    +0.000 OA
ATOM     29  O   UNL     1     112.618 129.502 134.764  0.00  0.00    +0.000 OA
ATOM     30  O   UNL     1     110.901 128.551 136.840  0.00  0.00    +0.000 OA
ATOM     31  C   UNL     1     111.760 129.026 135.801  0.00  0.00    +0.000 C 
ATOM     32  C   UNL     1     112.511 129.080 135.465  0.00  0.00    +0.000 C 
ATOM     33  C   UNL     1     111.652 128.604 136.503  0.00  0.00    +0.000 C 
ATOM     34  C   UNL     1     113.154 128.713 135.828  0.00  0.00    +0.000 C 
ATOM     35  C   UNL     1     112.295 128.237 136.866  0.00  0.00    +0.000 C 
BRANCH  34  37
ATOM     36  O   UNL     1     114.445 128.152 135.586  0.00  0.00    +0.000 OA
ATOM     37  C   UNL     1     113.904 128.767 135.491  0.00  0.00    +0.000 C 
ENDBRANCH  34  37
ENDBRANCH  26  35
ENDBRANCH   4  26
TORSDOF 5
ENDMDL
