MODEL 1
REMARK VINA RESULT:      -8.3      0.000      0.000
REMARK  Name = null
REMARK  2 active torsions:
REMARK  status: ('A' for Active; 'I' for Inactive)
REMARK    1  A    between atoms: C_4  and  O_19
REMARK    2  A    between atoms: C_11  and  C_13
REMARK                            x       y       z     vdW  Elec       q    Type
REMARK                         _______ _______ _______ _____ _____    ______ ____
ROOT
ATOM      1  C   UNL     1     109.935 125.738 134.980  0.00  0.00    +0.000 C 
ATOM      2  C   UNL     1     110.500 126.319 135.135  0.00  0.00    +0.000 A 
ATOM      3  C   UNL     1     110.383 127.091 134.866  0.00  0.00    +0.000 A 
ATOM      4  C   UNL     1     110.948 127.672 135.022  0.00  0.00    +0.000 A 
ATOM      5  C   UNL     1     111.630 127.481 135.446  0.00  0.00    +0.000 A 
ATOM      6  C   UNL     1     111.747 126.710 135.715  0.00  0.00    +0.000 A 
ATOM      7  C   UNL     1     111.182 126.128 135.559  0.00  0.00    +0.000 A 
ATOM      8  C   UNL     1     111.298 125.358 135.828  0.00  0.00    +0.000 A 
ATOM      9  O   UNL     1     110.733 124.777 135.673  0.00  0.00    +0.000 OA
ATOM     10  C   UNL     1     111.979 125.167 136.252  0.00  0.00    +0.000 A 
ATOM     11  C   UNL     1     112.545 125.749 136.407  0.00  0.00    +0.000 A 
ATOM     12  O   UNL     1     112.428 126.519 136.139  0.00  0.00    +0.000 OA
ENDROOT
BRANCH  11  13
ATOM     13  C   UNL     1     113.226 125.557 136.831  0.00  0.00    +0.000 A 
ATOM     14  C   UNL     1     113.284 125.754 137.630  0.00  0.00    +0.000 A 
ATOM     15  C   UNL     1     113.966 125.562 138.054  0.00  0.00    +0.000 A 
ATOM     16  C   UNL     1     114.590 125.175 137.679  0.00  0.00    +0.000 A 
ATOM     17  C   UNL     1     114.532 124.978 136.879  0.00  0.00    +0.000 A 
ATOM     18  C   UNL     1     113.850 125.170 136.456  0.00  0.00    +0.000 A 
ENDBRANCH  11  13
BRANCH   4  19
ATOM     19  O   UNL     1     110.832 128.443 134.753  0.00  0.00    +0.000 OA
ATOM     20  C   UNL     1     110.665 129.046 135.291  0.00  0.00    +0.000 C 
ENDBRANCH   4  19
TORSDOF 2
ENDMDL
MODEL 2
REMARK VINA RESULT:      -8.2     13.020     13.650
REMARK  Name = null
REMARK  2 active torsions:
REMARK  status: ('A' for Active; 'I' for Inactive)
REMARK    1  A    between atoms: C_4  and  O_19
REMARK    2  A    between atoms: C_11  and  C_13
REMARK                            x       y       z     vdW  Elec       q    Type
REMARK                         _______ _______ _______ _____ _____    ______ ____
ROOT
ATOM      1  C   UNL     1     102.810 125.047 147.756  0.00  0.00    +0.000 C 
ATOM      2  C   UNL     1     103.373 124.671 147.284  0.00  0.00    +0.000 A 
ATOM      3  C   UNL     1     103.138 124.278 146.597  0.00  0.00    +0.000 A 
ATOM      4  C   UNL     1     103.701 123.902 146.124  0.00  0.00    +0.000 A 
ATOM      5  C   UNL     1     104.498 123.920 146.339  0.00  0.00    +0.000 A 
ATOM      6  C   UNL     1     104.733 124.313 147.026  0.00  0.00    +0.000 A 
ATOM      7  C   UNL     1     104.169 124.689 147.499  0.00  0.00    +0.000 A 
ATOM      8  C   UNL     1     104.403 125.082 148.184  0.00  0.00    +0.000 A 
ATOM      9  O   UNL     1     103.841 125.458 148.657  0.00  0.00    +0.000 OA
ATOM     10  C   UNL     1     105.199 125.099 148.399  0.00  0.00    +0.000 A 
ATOM     11  C   UNL     1     105.762 124.723 147.926  0.00  0.00    +0.000 A 
ATOM     12  O   UNL     1     105.528 124.330 147.240  0.00  0.00    +0.000 OA
ENDROOT
BRANCH  11  13
ATOM     13  C   UNL     1     106.559 124.741 148.141  0.00  0.00    +0.000 A 
ATOM     14  C   UNL     1     107.109 125.120 147.657  0.00  0.00    +0.000 A 
ATOM     15  C   UNL     1     107.905 125.137 147.872  0.00  0.00    +0.000 A 
ATOM     16  C   UNL     1     108.151 124.776 148.572  0.00  0.00    +0.000 A 
ATOM     17  C   UNL     1     107.601 124.397 149.056  0.00  0.00    +0.000 A 
ATOM     18  C   UNL     1     106.805 124.379 148.840  0.00  0.00    +0.000 A 
ENDBRANCH  11  13
BRANCH   4  19
ATOM     19  O   UNL     1     103.467 123.509 145.438  0.00  0.00    +0.000 OA
ATOM     20  C   UNL     1     103.174 122.739 145.484  0.00  0.00    +0.000 C 
ENDBRANCH   4  19
TORSDOF 2
ENDMDL
MODEL 3
REMARK VINA RESULT:      -8.1      1.452      3.880
REMARK  Name = null
REMARK  2 active torsions:
REMARK  status: ('A' for Active; 'I' for Inactive)
REMARK    1  A    between atoms: C_4  and  O_19
REMARK    2  A    between atoms: C_11  and  C_13
REMARK                            x       y       z     vdW  Elec       q    Type
REMARK                         _______ _______ _______ _____ _____    ______ ____
ROOT
ATOM      1  C   UNL     1     113.203 123.421 137.339  0.00  0.00    +0.000 C 
ATOM      2  C   UNL     1     113.286 124.164 136.990  0.00  0.00    +0.000 A 
ATOM      3  C   UNL     1     114.028 124.523 136.956  0.00  0.00    +0.000 A 
ATOM      4  C   UNL     1     114.110 125.267 136.606  0.00  0.00    +0.000 A 
ATOM      5  C   UNL     1     113.451 125.649 136.291  0.00  0.00    +0.000 A 
ATOM      6  C   UNL     1     112.708 125.290 136.325  0.00  0.00    +0.000 A 
ATOM      7  C   UNL     1     112.626 124.546 136.675  0.00  0.00    +0.000 A 
ATOM      8  C   UNL     1     111.885 124.187 136.709  0.00  0.00    +0.000 A 
ATOM      9  O   UNL     1     111.802 123.444 137.058  0.00  0.00    +0.000 OA
ATOM     10  C   UNL     1     111.226 124.570 136.394  0.00  0.00    +0.000 A 
ATOM     11  C   UNL     1     111.309 125.314 136.044  0.00  0.00    +0.000 A 
ATOM     12  O   UNL     1     112.050 125.673 136.010  0.00  0.00    +0.000 OA
ENDROOT
BRANCH  11  13
ATOM     13  C   UNL     1     110.649 125.697 135.729  0.00  0.00    +0.000 A 
ATOM     14  C   UNL     1     110.447 125.587 134.938  0.00  0.00    +0.000 A 
ATOM     15  C   UNL     1     109.787 125.970 134.623  0.00  0.00    +0.000 A 
ATOM     16  C   UNL     1     109.329 126.463 135.101  0.00  0.00    +0.000 A 
ATOM     17  C   UNL     1     109.532 126.573 135.894  0.00  0.00    +0.000 A 
ATOM     18  C   UNL     1     110.191 126.189 136.207  0.00  0.00    +0.000 A 
ENDBRANCH  11  13
BRANCH   4  19
ATOM     19  O   UNL     1     114.852 125.626 136.572  0.00  0.00    +0.000 OA
ATOM     20  C   UNL     1     115.331 125.521 135.909  0.00  0.00    +0.000 C 
ENDBRANCH   4  19
TORSDOF 2
ENDMDL
MODEL 4
REMARK VINA RESULT:      -8.0      1.228      3.860
REMARK  Name = null
REMARK  2 active torsions:
REMARK  status: ('A' for Active; 'I' for Inactive)
REMARK    1  A    between atoms: C_4  and  O_19
REMARK    2  A    between atoms: C_11  and  C_13
REMARK                            x       y       z     vdW  Elec       q    Type
REMARK                         _______ _______ _______ _____ _____    ______ ____
ROOT
ATOM      1  C   UNL     1     114.553 124.968 137.529  0.00  0.00    +0.000 C 
ATOM      2  C   UNL     1     113.953 125.491 137.745  0.00  0.00    +0.000 A 
ATOM      3  C   UNL     1     114.004 125.905 138.457  0.00  0.00    +0.000 A 
ATOM      4  C   UNL     1     113.404 126.429 138.673  0.00  0.00    +0.000 A 
ATOM      5  C   UNL     1     112.753 126.538 138.178  0.00  0.00    +0.000 A 
ATOM      6  C   UNL     1     112.702 126.124 137.466  0.00  0.00    +0.000 A 
ATOM      7  C   UNL     1     113.302 125.600 137.249  0.00  0.00    +0.000 A 
ATOM      8  C   UNL     1     113.251 125.185 136.538  0.00  0.00    +0.000 A 
ATOM      9  O   UNL     1     113.851 124.662 136.322  0.00  0.00    +0.000 OA
ATOM     10  C   UNL     1     112.601 125.294 136.043  0.00  0.00    +0.000 A 
ATOM     11  C   UNL     1     112.001 125.818 136.260  0.00  0.00    +0.000 A 
ATOM     12  O   UNL     1     112.052 126.232 136.971  0.00  0.00    +0.000 OA
ENDROOT
BRANCH  11  13
ATOM     13  C   UNL     1     111.350 125.927 135.764  0.00  0.00    +0.000 A 
ATOM     14  C   UNL     1     111.272 126.624 135.331  0.00  0.00    +0.000 A 
ATOM     15  C   UNL     1     110.622 126.732 134.835  0.00  0.00    +0.000 A 
ATOM     16  C   UNL     1     110.049 126.142 134.773  0.00  0.00    +0.000 A 
ATOM     17  C   UNL     1     110.126 125.444 135.206  0.00  0.00    +0.000 A 
ATOM     18  C   UNL     1     110.777 125.336 135.701  0.00  0.00    +0.000 A 
ENDBRANCH  11  13
BRANCH   4  19
ATOM     19  O   UNL     1     113.455 126.843 139.384  0.00  0.00    +0.000 OA
ATOM     20  C   UNL     1     112.934 126.671 140.000  0.00  0.00    +0.000 C 
ENDBRANCH   4  19
TORSDOF 2
ENDMDL
MODEL 5
REMARK VINA RESULT:      -7.8      2.024      2.592
REMARK  Name = null
REMARK  2 active torsions:
REMARK  status: ('A' for Active; 'I' for Inactive)
REMARK    1  A    between atoms: C_4  and  O_19
REMARK    2  A    between atoms: C_11  and  C_13
REMARK                            x       y       z     vdW  Elec       q    Type
REMARK                         _______ _______ _______ _____ _____    ______ ____
ROOT
ATOM      1  C   UNL     1     111.752 128.949 135.458  0.00  0.00    +0.000 C 
ATOM      2  C   UNL     1     112.572 128.902 135.535  0.00  0.00    +0.000 A 
ATOM      3  C   UNL     1     113.045 129.532 135.290  0.00  0.00    +0.000 A 
ATOM      4  C   UNL     1     113.866 129.484 135.366  0.00  0.00    +0.000 A 
ATOM      5  C   UNL     1     114.212 128.807 135.687  0.00  0.00    +0.000 A 
ATOM      6  C   UNL     1     113.738 128.177 135.931  0.00  0.00    +0.000 A 
ATOM      7  C   UNL     1     112.917 128.224 135.855  0.00  0.00    +0.000 A 
ATOM      8  C   UNL     1     112.444 127.595 136.099  0.00  0.00    +0.000 A 
ATOM      9  O   UNL     1     111.624 127.643 136.023  0.00  0.00    +0.000 OA
ATOM     10  C   UNL     1     112.789 126.919 136.419  0.00  0.00    +0.000 A 
ATOM     11  C   UNL     1     113.610 126.871 136.496  0.00  0.00    +0.000 A 
ATOM     12  O   UNL     1     114.084 127.500 136.251  0.00  0.00    +0.000 OA
ENDROOT
BRANCH  11  13
ATOM     13  C   UNL     1     113.956 126.194 136.816  0.00  0.00    +0.000 A 
ATOM     14  C   UNL     1     113.941 126.069 137.631  0.00  0.00    +0.000 A 
ATOM     15  C   UNL     1     114.287 125.391 137.951  0.00  0.00    +0.000 A 
ATOM     16  C   UNL     1     114.647 124.839 137.456  0.00  0.00    +0.000 A 
ATOM     17  C   UNL     1     114.662 124.964 136.640  0.00  0.00    +0.000 A 
ATOM     18  C   UNL     1     114.317 125.642 136.321  0.00  0.00    +0.000 A 
ENDBRANCH  11  13
BRANCH   4  19
ATOM     19  O   UNL     1     114.340 130.113 135.122  0.00  0.00    +0.000 OA
ATOM     20  C   UNL     1     114.763 130.551 135.679  0.00  0.00    +0.000 C 
ENDBRANCH   4  19
TORSDOF 2
ENDMDL
MODEL 6
REMARK VINA RESULT:      -7.7      1.556      1.859
REMARK  Name = null
REMARK  2 active torsions:
REMARK  status: ('A' for Active; 'I' for Inactive)
REMARK    1  A    between atoms: C_4  and  O_19
REMARK    2  A    between atoms: C_11  and  C_13
REMARK                            x       y       z     vdW  Elec       q    Type
REMARK                         _______ _______ _______ _____ _____    ______ ____
ROOT
ATOM      1  C   UNL     1     108.992 126.504 134.961  0.00  0.00    +0.000 C 
ATOM      2  C   UNL     1     109.374 126.628 135.681  0.00  0.00    +0.000 A 
ATOM      3  C   UNL     1     109.102 127.212 136.197  0.00  0.00    +0.000 A 
ATOM      4  C   UNL     1     109.486 127.337 136.918  0.00  0.00    +0.000 A 
ATOM      5  C   UNL     1     110.140 126.877 137.122  0.00  0.00    +0.000 A 
ATOM      6  C   UNL     1     110.412 126.293 136.606  0.00  0.00    +0.000 A 
ATOM      7  C   UNL     1     110.029 126.169 135.885  0.00  0.00    +0.000 A 
ATOM      8  C   UNL     1     110.300 125.586 135.369  0.00  0.00    +0.000 A 
ATOM      9  O   UNL     1     109.918 125.461 134.649  0.00  0.00    +0.000 OA
ATOM     10  C   UNL     1     110.954 125.127 135.573  0.00  0.00    +0.000 A 
ATOM     11  C   UNL     1     111.338 125.251 136.294  0.00  0.00    +0.000 A 
ATOM     12  O   UNL     1     111.066 125.834 136.810  0.00  0.00    +0.000 OA
ENDROOT
BRANCH  11  13
ATOM     13  C   UNL     1     111.992 124.792 136.497  0.00  0.00    +0.000 A 
ATOM     14  C   UNL     1     111.885 124.044 136.827  0.00  0.00    +0.000 A 
ATOM     15  C   UNL     1     112.540 123.584 137.030  0.00  0.00    +0.000 A 
ATOM     16  C   UNL     1     113.302 123.874 136.904  0.00  0.00    +0.000 A 
ATOM     17  C   UNL     1     113.409 124.623 136.574  0.00  0.00    +0.000 A 
ATOM     18  C   UNL     1     112.754 125.081 136.371  0.00  0.00    +0.000 A 
ENDBRANCH  11  13
BRANCH   4  19
ATOM     19  O   UNL     1     109.214 127.920 137.434  0.00  0.00    +0.000 OA
ATOM     20  C   UNL     1     109.646 128.616 137.533  0.00  0.00    +0.000 C 
ENDBRANCH   4  19
TORSDOF 2
ENDMDL
MODEL 7
REMARK VINA RESULT:      -7.7      1.931      3.557
REMARK  Name = null
REMARK  2 active torsions:
REMARK  status: ('A' for Active; 'I' for Inactive)
REMARK    1  A    between atoms: C_4  and  O_19
REMARK    2  A    between atoms: C_11  and  C_13
REMARK                            x       y       z     vdW  Elec       q    Type
REMARK                         _______ _______ _______ _____ _____    ______ ____
ROOT
ATOM      1  C   UNL     1     114.012 124.405 136.673  0.00  0.00    +0.000 C 
ATOM      2  C   UNL     1     113.310 124.750 136.937  0.00  0.00    +0.000 A 
ATOM      3  C   UNL     1     112.595 124.557 136.574  0.00  0.00    +0.000 A 
ATOM      4  C   UNL     1     111.892 124.902 136.838  0.00  0.00    +0.000 A 
ATOM      5  C   UNL     1     111.907 125.439 137.464  0.00  0.00    +0.000 A 
ATOM      6  C   UNL     1     112.623 125.633 137.827  0.00  0.00    +0.000 A 
ATOM      7  C   UNL     1     113.325 125.287 137.563  0.00  0.00    +0.000 A 
ATOM      8  C   UNL     1     114.040 125.480 137.925  0.00  0.00    +0.000 A 
ATOM      9  O   UNL     1     114.742 125.136 137.661  0.00  0.00    +0.000 OA
ATOM     10  C   UNL     1     114.055 126.017 138.550  0.00  0.00    +0.000 A 
ATOM     11  C   UNL     1     113.352 126.362 138.814  0.00  0.00    +0.000 A 
ATOM     12  O   UNL     1     112.637 126.170 138.452  0.00  0.00    +0.000 OA
ENDROOT
BRANCH  11  13
ATOM     13  C   UNL     1     113.367 126.900 139.440  0.00  0.00    +0.000 A 
ATOM     14  C   UNL     1     113.427 126.628 140.216  0.00  0.00    +0.000 A 
ATOM     15  C   UNL     1     113.442 127.166 140.842  0.00  0.00    +0.000 A 
ATOM     16  C   UNL     1     113.396 127.976 140.691  0.00  0.00    +0.000 A 
ATOM     17  C   UNL     1     113.336 128.248 139.913  0.00  0.00    +0.000 A 
ATOM     18  C   UNL     1     113.321 127.710 139.289  0.00  0.00    +0.000 A 
ENDBRANCH  11  13
BRANCH   4  19
ATOM     19  O   UNL     1     111.177 124.709 136.476  0.00  0.00    +0.000 OA
ATOM     20  C   UNL     1     110.850 125.215 135.913  0.00  0.00    +0.000 C 
ENDBRANCH   4  19
TORSDOF 2
ENDMDL
MODEL 8
REMARK VINA RESULT:      -7.7      1.655      2.889
REMARK  Name = null
REMARK  2 active torsions:
REMARK  status: ('A' for Active; 'I' for Inactive)
REMARK    1  A    between atoms: C_4  and  O_19
REMARK    2  A    between atoms: C_11  and  C_13
REMARK                            x       y       z     vdW  Elec       q    Type
REMARK                         _______ _______ _______ _____ _____    ______ ____
ROOT
ATOM      1  C   UNL     1     112.540 124.357 136.667  0.00  0.00    +0.000 C 
ATOM      2  C   UNL     1     112.100 124.981 136.355  0.00  0.00    +0.000 A 
ATOM      3  C   UNL     1     111.353 124.838 136.034  0.00  0.00    +0.000 A 
ATOM      4  C   UNL     1     110.912 125.463 135.721  0.00  0.00    +0.000 A 
ATOM      5  C   UNL     1     111.219 126.229 135.730  0.00  0.00    +0.000 A 
ATOM      6  C   UNL     1     111.966 126.372 136.051  0.00  0.00    +0.000 A 
ATOM      7  C   UNL     1     112.407 125.747 136.363  0.00  0.00    +0.000 A 
ATOM      8  C   UNL     1     113.153 125.889 136.684  0.00  0.00    +0.000 A 
ATOM      9  O   UNL     1     113.593 125.266 136.996  0.00  0.00    +0.000 OA
ATOM     10  C   UNL     1     113.459 126.655 136.692  0.00  0.00    +0.000 A 
ATOM     11  C   UNL     1     113.018 127.279 136.379  0.00  0.00    +0.000 A 
ATOM     12  O   UNL     1     112.272 127.137 136.059  0.00  0.00    +0.000 OA
ENDROOT
BRANCH  11  13
ATOM     13  C   UNL     1     113.325 128.045 136.388  0.00  0.00    +0.000 A 
ATOM     14  C   UNL     1     113.795 128.309 135.764  0.00  0.00    +0.000 A 
ATOM     15  C   UNL     1     114.102 129.075 135.773  0.00  0.00    +0.000 A 
ATOM     16  C   UNL     1     113.938 129.577 136.407  0.00  0.00    +0.000 A 
ATOM     17  C   UNL     1     113.467 129.313 137.032  0.00  0.00    +0.000 A 
ATOM     18  C   UNL     1     113.161 128.548 137.022  0.00  0.00    +0.000 A 
ENDBRANCH  11  13
BRANCH   4  19
ATOM     19  O   UNL     1     110.166 125.320 135.401  0.00  0.00    +0.000 OA
ATOM     20  C   UNL     1     109.917 125.738 134.735  0.00  0.00    +0.000 C 
ENDBRANCH   4  19
TORSDOF 2
ENDMDL
MODEL 9
REMARK VINA RESULT:      -7.6     11.401     12.073
REMARK  Name = null
REMARK  2 active torsions:
REMARK  status: ('A' for Active; 'I' for Inactive)
REMARK    1  A    between atoms: C_4  and  O_19
REMARK    2  A    between atoms: C_11  and  C_13
REMARK                            x       y       z     vdW  Elec       q    Type
REMARK                         _______ _______ _______ _____ _____    ______ ____
ROOT
ATOM      1  C   UNL     1     106.204 127.380 145.239  0.00  0.00    +0.000 C 
ATOM      2  C   UNL     1     106.136 126.561 145.308  0.00  0.00    +0.000 A 
ATOM      3  C   UNL     1     105.810 126.121 144.691  0.00  0.00    +0.000 A 
ATOM      4  C   UNL     1     105.743 125.300 144.760  0.00  0.00    +0.000 A 
ATOM      5  C   UNL     1     106.001 124.922 145.446  0.00  0.00    +0.000 A 
ATOM      6  C   UNL     1     106.327 125.362 146.063  0.00  0.00    +0.000 A 
ATOM      7  C   UNL     1     106.395 126.182 145.994  0.00  0.00    +0.000 A 
ATOM      8  C   UNL     1     106.720 126.622 146.611  0.00  0.00    +0.000 A 
ATOM      9  O   UNL     1     106.788 127.441 146.542  0.00  0.00    +0.000 OA
ATOM     10  C   UNL     1     106.978 126.244 147.296  0.00  0.00    +0.000 A 
ATOM     11  C   UNL     1     106.911 125.423 147.365  0.00  0.00    +0.000 A 
ATOM     12  O   UNL     1     106.585 124.983 146.749  0.00  0.00    +0.000 OA
ENDROOT
BRANCH  11  13
ATOM     13  C   UNL     1     107.169 125.045 148.051  0.00  0.00    +0.000 A 
ATOM     14  C   UNL     1     106.624 124.799 148.618  0.00  0.00    +0.000 A 
ATOM     15  C   UNL     1     106.882 124.421 149.304  0.00  0.00    +0.000 A 
ATOM     16  C   UNL     1     107.688 124.289 149.423  0.00  0.00    +0.000 A 
ATOM     17  C   UNL     1     108.235 124.535 148.856  0.00  0.00    +0.000 A 
ATOM     18  C   UNL     1     107.975 124.913 148.170  0.00  0.00    +0.000 A 
ENDBRANCH  11  13
BRANCH   4  19
ATOM     19  O   UNL     1     105.417 124.860 144.143  0.00  0.00    +0.000 OA
ATOM     20  C   UNL     1     105.874 124.677 143.481  0.00  0.00    +0.000 C 
ENDBRANCH   4  19
TORSDOF 2
ENDMDL
MODEL 10
REMARK VINA RESULT:      -7.6     10.603     12.183
REMARK  Name = null
REMARK  2 active torsions:
REMARK  status: ('A' for Active; 'I' for Inactive)
REMARK    1  A    between atoms: C_4  and  O_19
REMARK    2  A    between atoms: C_11  and  C_13
REMARK                            x       y       z     vdW  Elec       q    Type
REMARK                         _______ _______ _______ _____ _____    ______ ____
ROOT
ATOM      1  C   UNL     1     104.076 128.422 141.198  0.00  0.00    +0.000 C 
ATOM      2  C   UNL     1     104.020 128.891 141.874  0.00  0.00    +0.000 A 
ATOM      3  C   UNL     1     104.464 128.701 142.544  0.00  0.00    +0.000 A 
ATOM      4  C   UNL     1     104.408 129.170 143.222  0.00  0.00    +0.000 A 
ATOM      5  C   UNL     1     103.909 129.827 143.228  0.00  0.00    +0.000 A 
ATOM      6  C   UNL     1     103.466 130.017 142.559  0.00  0.00    +0.000 A 
ATOM      7  C   UNL     1     103.521 129.548 141.881  0.00  0.00    +0.000 A 
ATOM      8  C   UNL     1     103.079 129.737 141.212  0.00  0.00    +0.000 A 
ATOM      9  O   UNL     1     103.134 129.268 140.535  0.00  0.00    +0.000 OA
ATOM     10  C   UNL     1     102.580 130.393 141.219  0.00  0.00    +0.000 A 
ATOM     11  C   UNL     1     102.525 130.862 141.897  0.00  0.00    +0.000 A 
ATOM     12  O   UNL     1     102.967 130.673 142.566  0.00  0.00    +0.000 OA
ENDROOT
BRANCH  11  13
ATOM     13  C   UNL     1     102.026 131.519 141.903  0.00  0.00    +0.000 A 
ATOM     14  C   UNL     1     101.237 131.437 142.128  0.00  0.00    +0.000 A 
ATOM     15  C   UNL     1     100.738 132.094 142.135  0.00  0.00    +0.000 A 
ATOM     16  C   UNL     1     101.029 132.834 141.916  0.00  0.00    +0.000 A 
ATOM     17  C   UNL     1     101.819 132.917 141.690  0.00  0.00    +0.000 A 
ATOM     18  C   UNL     1     102.317 132.260 141.684  0.00  0.00    +0.000 A 
ENDBRANCH  11  13
BRANCH   4  19
ATOM     19  O   UNL     1     104.851 128.981 143.891  0.00  0.00    +0.000 OA
ATOM     20  C   UNL     1     105.540 129.402 144.062  0.00  0.00    +0.000 C 
ENDBRANCH   4  19
TORSDOF 2
ENDMDL
