MODEL 1
REMARK VINA RESULT:     -10.0      0.000      0.000
REMARK  Name = 44259223
REMARK  3 active torsions:
REMARK  status: ('A' for Active; 'I' for Inactive)
REMARK    1  A    between atoms: O_2  and  C_15
REMARK    2  A    between atoms: O_2  and  C_17
REMARK    3  A    between atoms: C_24  and  C_26
REMARK                            x       y       z     vdW  Elec       q    Type
REMARK                         _______ _______ _______ _____ _____    ______ ____
ROOT
ATOM      1  O   UNL     1     112.087 126.567 136.160  0.00  0.00    +0.000 OA
ATOM      2  O   UNL     1     109.807 125.427 134.800  0.00  0.00    +0.000 OA
ATOM      3  O   UNL     1     112.032 124.416 136.532  0.00  0.00    +0.000 OA
ATOM      4  O   UNL     1     110.700 124.602 135.575  0.00  0.00    +0.000 OA
ATOM      5  C   UNL     1     110.528 127.546 134.894  0.00  0.00    +0.000 A 
ATOM      6  C   UNL     1     111.220 127.443 135.392  0.00  0.00    +0.000 A 
ATOM      7  C   UNL     1     111.422 126.659 135.682  0.00  0.00    +0.000 A 
ATOM      8  C   UNL     1     110.046 126.863 134.691  0.00  0.00    +0.000 A 
ATOM      9  C   UNL     1     110.959 126.004 135.487  0.00  0.00    +0.000 A 
ATOM     10  C   UNL     1     110.263 126.087 134.989  0.00  0.00    +0.000 A 
ATOM     11  C   UNL     1     111.162 125.257 135.770  0.00  0.00    +0.000 A 
ATOM     12  C   UNL     1     112.291 125.819 136.443  0.00  0.00    +0.000 A 
ATOM     13  C   UNL     1     111.829 125.164 136.249  0.00  0.00    +0.000 A 
ENDROOT
BRANCH  12  16
ATOM     14  O   UNL     1     113.580 126.121 138.976  0.00  0.00    +0.000 OA
ATOM     15  O   UNL     1     114.954 125.448 138.357  0.00  0.00    +0.000 OA
ATOM     16  C   UNL     1     112.956 125.726 136.921  0.00  0.00    +0.000 A 
ATOM     17  C   UNL     1     112.935 125.970 137.709  0.00  0.00    +0.000 A 
ATOM     18  C   UNL     1     113.644 125.390 136.612  0.00  0.00    +0.000 A 
ATOM     19  C   UNL     1     113.601 125.877 138.188  0.00  0.00    +0.000 A 
ATOM     20  C   UNL     1     114.309 125.298 137.090  0.00  0.00    +0.000 A 
ATOM     21  C   UNL     1     114.288 125.541 137.878  0.00  0.00    +0.000 A 
ENDBRANCH  12  16
BRANCH   5  22
ATOM     22  O   UNL     1     110.326 128.294 134.612  0.00  0.00    +0.000 OA
BRANCH  22  30
ATOM     23  O   UNL     1     109.223 128.461 135.505  0.00  0.00    +0.000 OA
ATOM     24  O   UNL     1     109.592 130.909 135.504  0.00  0.00    +0.000 OA
ATOM     25  O   UNL     1     110.572 129.926 134.612  0.00  0.00    +0.000 OA
ATOM     26  O   UNL     1     108.366 130.259 136.397  0.00  0.00    +0.000 OA
ATOM     27  C   UNL     1     109.469 130.093 135.504  0.00  0.00    +0.000 C 
ATOM     28  C   UNL     1     109.959 129.601 135.058  0.00  0.00    +0.000 C 
ATOM     29  C   UNL     1     108.856 129.768 135.951  0.00  0.00    +0.000 C 
ATOM     30  C   UNL     1     109.836 128.786 135.059  0.00  0.00    +0.000 C 
ATOM     31  C   UNL     1     108.734 128.952 135.951  0.00  0.00    +0.000 C 
ENDBRANCH  22  30
ENDBRANCH   5  22
TORSDOF 3
ENDMDL
MODEL 2
REMARK VINA RESULT:      -9.7      7.660      8.602
REMARK  Name = 44259223
REMARK  3 active torsions:
REMARK  status: ('A' for Active; 'I' for Inactive)
REMARK    1  A    between atoms: O_2  and  C_15
REMARK    2  A    between atoms: O_2  and  C_17
REMARK    3  A    between atoms: C_24  and  C_26
REMARK                            x       y       z     vdW  Elec       q    Type
REMARK                         _______ _______ _______ _____ _____    ______ ____
ROOT
ATOM      1  O   UNL     1     105.607 125.615 140.612  0.00  0.00    +0.000 OA
ATOM      2  O   UNL     1     105.881 122.739 140.616  0.00  0.00    +0.000 OA
ATOM      3  O   UNL     1     106.562 124.989 142.472  0.00  0.00    +0.000 OA
ATOM      4  O   UNL     1     106.342 123.532 141.729  0.00  0.00    +0.000 OA
ATOM      5  C   UNL     1     105.009 124.109 139.074  0.00  0.00    +0.000 A 
ATOM      6  C   UNL     1     105.126 124.864 139.465  0.00  0.00    +0.000 A 
ATOM      7  C   UNL     1     105.497 124.887 140.241  0.00  0.00    +0.000 A 
ATOM      8  C   UNL     1     105.264 123.385 139.462  0.00  0.00    +0.000 A 
ATOM      9  C   UNL     1     105.742 124.193 140.613  0.00  0.00    +0.000 A 
ATOM     10  C   UNL     1     105.633 123.427 140.237  0.00  0.00    +0.000 A 
ATOM     11  C   UNL     1     106.097 124.226 141.357  0.00  0.00    +0.000 A 
ATOM     12  C   UNL     1     105.962 125.650 141.356  0.00  0.00    +0.000 A 
ATOM     13  C   UNL     1     106.207 124.955 141.728  0.00  0.00    +0.000 A 
ENDROOT
BRANCH  12  16
ATOM     14  O   UNL     1     104.908 127.862 142.826  0.00  0.00    +0.000 OA
ATOM     15  O   UNL     1     106.402 128.563 142.843  0.00  0.00    +0.000 OA
ATOM     16  C   UNL     1     106.072 126.377 141.727  0.00  0.00    +0.000 A 
ATOM     17  C   UNL     1     105.435 126.755 142.091  0.00  0.00    +0.000 A 
ATOM     18  C   UNL     1     106.819 126.728 141.736  0.00  0.00    +0.000 A 
ATOM     19  C   UNL     1     105.545 127.484 142.463  0.00  0.00    +0.000 A 
ATOM     20  C   UNL     1     106.929 127.456 142.108  0.00  0.00    +0.000 A 
ATOM     21  C   UNL     1     106.292 127.834 142.471  0.00  0.00    +0.000 A 
ENDBRANCH  12  16
BRANCH   5  22
ATOM     22  O   UNL     1     104.653 124.078 138.330  0.00  0.00    +0.000 OA
BRANCH  22  30
ATOM     23  O   UNL     1     103.336 124.087 138.883  0.00  0.00    +0.000 OA
ATOM     24  O   UNL     1     102.466 123.019 136.826  0.00  0.00    +0.000 OA
ATOM     25  O   UNL     1     104.073 123.366 136.959  0.00  0.00    +0.000 OA
ATOM     26  O   UNL     1     101.438 123.384 138.064  0.00  0.00    +0.000 OA
ATOM     27  C   UNL     1     102.756 123.375 137.511  0.00  0.00    +0.000 C 
ATOM     28  C   UNL     1     103.559 123.549 137.578  0.00  0.00    +0.000 C 
ATOM     29  C   UNL     1     102.242 123.557 138.130  0.00  0.00    +0.000 C 
ATOM     30  C   UNL     1     103.849 123.904 138.264  0.00  0.00    +0.000 C 
ATOM     31  C   UNL     1     102.532 123.913 138.816  0.00  0.00    +0.000 C 
ENDBRANCH  22  30
ENDBRANCH   5  22
TORSDOF 3
ENDMDL
MODEL 3
REMARK VINA RESULT:      -9.6      1.985      3.627
REMARK  Name = 44259223
REMARK  3 active torsions:
REMARK  status: ('A' for Active; 'I' for Inactive)
REMARK    1  A    between atoms: O_2  and  C_15
REMARK    2  A    between atoms: O_2  and  C_17
REMARK    3  A    between atoms: C_24  and  C_26
REMARK                            x       y       z     vdW  Elec       q    Type
REMARK                         _______ _______ _______ _____ _____    ______ ____
ROOT
ATOM      1  O   UNL     1     110.244 128.103 136.166  0.00  0.00    +0.000 OA
ATOM      2  O   UNL     1     107.829 129.665 135.896  0.00  0.00    +0.000 OA
ATOM      3  O   UNL     1     108.579 126.772 135.695  0.00  0.00    +0.000 OA
ATOM      4  O   UNL     1     107.812 128.233 135.723  0.00  0.00    +0.000 OA
ATOM      5  C   UNL     1     109.923 130.305 136.366  0.00  0.00    +0.000 A 
ATOM      6  C   UNL     1     110.317 129.542 136.350  0.00  0.00    +0.000 A 
ATOM      7  C   UNL     1     109.861 128.833 136.180  0.00  0.00    +0.000 A 
ATOM      8  C   UNL     1     109.079 130.350 136.212  0.00  0.00    +0.000 A 
ATOM      9  C   UNL     1     109.051 128.876 136.033  0.00  0.00    +0.000 A 
ATOM     10  C   UNL     1     108.639 129.632 136.044  0.00  0.00    +0.000 A 
ATOM     11  C   UNL     1     108.623 128.190 135.871  0.00  0.00    +0.000 A 
ATOM     12  C   UNL     1     109.817 127.415 136.004  0.00  0.00    +0.000 A 
ATOM     13  C   UNL     1     109.007 127.459 135.857  0.00  0.00    +0.000 A 
ENDROOT
BRANCH  12  16
ATOM     14  O   UNL     1     110.907 125.165 137.389  0.00  0.00    +0.000 OA
ATOM     15  O   UNL     1     111.349 124.493 135.948  0.00  0.00    +0.000 OA
ATOM     16  C   UNL     1     110.200 126.685 135.990  0.00  0.00    +0.000 A 
ATOM     17  C   UNL     1     110.361 126.291 136.696  0.00  0.00    +0.000 A 
ATOM     18  C   UNL     1     110.422 126.349 135.270  0.00  0.00    +0.000 A 
ATOM     19  C   UNL     1     110.745 125.560 136.682  0.00  0.00    +0.000 A 
ATOM     20  C   UNL     1     110.804 125.619 135.256  0.00  0.00    +0.000 A 
ATOM     21  C   UNL     1     110.966 125.224 135.962  0.00  0.00    +0.000 A 
ENDBRANCH  12  16
BRANCH   5  22
ATOM     22  O   UNL     1     110.353 130.990 136.528  0.00  0.00    +0.000 OA
BRANCH  22  30
ATOM     23  O   UNL     1     110.242 130.871 137.948  0.00  0.00    +0.000 OA
ATOM     24  O   UNL     1     110.283 133.337 138.158  0.00  0.00    +0.000 OA
ATOM     25  O   UNL     1     110.380 132.634 136.669  0.00  0.00    +0.000 OA
ATOM     26  O   UNL     1     110.158 132.395 139.507  0.00  0.00    +0.000 OA
ATOM     27  C   UNL     1     110.269 132.515 138.088  0.00  0.00    +0.000 C 
ATOM     28  C   UNL     1     110.318 132.163 137.343  0.00  0.00    +0.000 C 
ATOM     29  C   UNL     1     110.207 132.044 138.762  0.00  0.00    +0.000 C 
ATOM     30  C   UNL     1     110.304 131.341 137.273  0.00  0.00    +0.000 C 
ATOM     31  C   UNL     1     110.193 131.222 138.692  0.00  0.00    +0.000 C 
ENDBRANCH  22  30
ENDBRANCH   5  22
TORSDOF 3
ENDMDL
MODEL 4
REMARK VINA RESULT:      -9.4      1.542      2.424
REMARK  Name = 44259223
REMARK  3 active torsions:
REMARK  status: ('A' for Active; 'I' for Inactive)
REMARK    1  A    between atoms: O_2  and  C_15
REMARK    2  A    between atoms: O_2  and  C_17
REMARK    3  A    between atoms: C_24  and  C_26
REMARK                            x       y       z     vdW  Elec       q    Type
REMARK                         _______ _______ _______ _____ _____    ______ ____
ROOT
ATOM      1  O   UNL     1     111.490 127.057 136.183  0.00  0.00    +0.000 OA
ATOM      2  O   UNL     1     113.258 129.305 135.775  0.00  0.00    +0.000 OA
ATOM      3  O   UNL     1     113.524 126.476 136.720  0.00  0.00    +0.000 OA
ATOM      4  O   UNL     1     113.758 128.044 136.262  0.00  0.00    +0.000 OA
ATOM      5  C   UNL     1     111.049 129.122 135.451  0.00  0.00    +0.000 A 
ATOM      6  C   UNL     1     110.933 128.305 135.690  0.00  0.00    +0.000 A 
ATOM      7  C   UNL     1     111.607 127.841 135.954  0.00  0.00    +0.000 A 
ATOM      8  C   UNL     1     111.837 129.464 135.478  0.00  0.00    +0.000 A 
ATOM      9  C   UNL     1     112.363 128.170 135.981  0.00  0.00    +0.000 A 
ATOM     10  C   UNL     1     112.499 128.986 135.745  0.00  0.00    +0.000 A 
ATOM     11  C   UNL     1     113.002 127.715 136.236  0.00  0.00    +0.000 A 
ATOM     12  C   UNL     1     112.129 126.602 136.438  0.00  0.00    +0.000 A 
ATOM     13  C   UNL     1     112.885 126.930 136.465  0.00  0.00    +0.000 A 
ENDROOT
BRANCH  12  16
ATOM     14  O   UNL     1     111.305 124.693 138.399  0.00  0.00    +0.000 OA
ATOM     15  O   UNL     1     111.660 123.466 137.355  0.00  0.00    +0.000 OA
ATOM     16  C   UNL     1     112.012 125.818 136.667  0.00  0.00    +0.000 A 
ATOM     17  C   UNL     1     111.717 125.648 137.419  0.00  0.00    +0.000 A 
ATOM     18  C   UNL     1     112.189 125.204 136.145  0.00  0.00    +0.000 A 
ATOM     19  C   UNL     1     111.600 124.863 137.648  0.00  0.00    +0.000 A 
ATOM     20  C   UNL     1     112.072 124.421 136.374  0.00  0.00    +0.000 A 
ATOM     21  C   UNL     1     111.777 124.250 137.125  0.00  0.00    +0.000 A 
ENDBRANCH  12  16
BRANCH   5  22
ATOM     22  O   UNL     1     110.408 129.575 135.196  0.00  0.00    +0.000 OA
BRANCH  22  30
ATOM     23  O   UNL     1     110.176 130.194 136.463  0.00  0.00    +0.000 OA
ATOM     24  O   UNL     1     107.752 130.293 135.971  0.00  0.00    +0.000 OA
ATOM     25  O   UNL     1     108.792 129.641 134.868  0.00  0.00    +0.000 OA
ATOM     26  O   UNL     1     108.328 130.879 137.401  0.00  0.00    +0.000 OA
ATOM     27  C   UNL     1     108.560 130.260 136.134  0.00  0.00    +0.000 C 
ATOM     28  C   UNL     1     109.080 129.934 135.584  0.00  0.00    +0.000 C 
ATOM     29  C   UNL     1     108.848 130.553 136.850  0.00  0.00    +0.000 C 
ATOM     30  C   UNL     1     109.888 129.901 135.748  0.00  0.00    +0.000 C 
ATOM     31  C   UNL     1     109.656 130.520 137.014  0.00  0.00    +0.000 C 
ENDBRANCH  22  30
ENDBRANCH   5  22
TORSDOF 3
ENDMDL
MODEL 5
REMARK VINA RESULT:      -9.3      9.362     12.060
REMARK  Name = 44259223
REMARK  3 active torsions:
REMARK  status: ('A' for Active; 'I' for Inactive)
REMARK    1  A    between atoms: O_2  and  C_15
REMARK    2  A    between atoms: O_2  and  C_17
REMARK    3  A    between atoms: C_24  and  C_26
REMARK                            x       y       z     vdW  Elec       q    Type
REMARK                         _______ _______ _______ _____ _____    ______ ____
ROOT
ATOM      1  O   UNL     1     103.030 132.948 141.009  0.00  0.00    +0.000 OA
ATOM      2  O   UNL     1     100.711 131.993 142.442  0.00  0.00    +0.000 OA
ATOM      3  O   UNL     1     102.009 134.643 141.931  0.00  0.00    +0.000 OA
ATOM      4  O   UNL     1     101.041 133.397 142.413  0.00  0.00    +0.000 OA
ATOM      5  C   UNL     1     102.242 130.872 141.254  0.00  0.00    +0.000 A 
ATOM      6  C   UNL     1     102.743 131.525 141.006  0.00  0.00    +0.000 A 
ATOM      7  C   UNL     1     102.546 132.326 141.249  0.00  0.00    +0.000 A 
ATOM      8  C   UNL     1     101.551 131.028 141.741  0.00  0.00    +0.000 A 
ATOM      9  C   UNL     1     101.883 132.475 141.717  0.00  0.00    +0.000 A 
ATOM     10  C   UNL     1     101.370 131.834 141.975  0.00  0.00    +0.000 A 
ATOM     11  C   UNL     1     101.704 133.247 141.945  0.00  0.00    +0.000 A 
ATOM     12  C   UNL     1     102.851 133.722 141.236  0.00  0.00    +0.000 A 
ATOM     13  C   UNL     1     102.189 133.871 141.704  0.00  0.00    +0.000 A 
ENDROOT
BRANCH  12  16
ATOM     14  O   UNL     1     105.164 135.354 141.630  0.00  0.00    +0.000 OA
ATOM     15  O   UNL     1     104.788 136.215 140.274  0.00  0.00    +0.000 OA
ATOM     16  C   UNL     1     103.335 134.344 140.995  0.00  0.00    +0.000 A 
ATOM     17  C   UNL     1     104.007 134.537 141.433  0.00  0.00    +0.000 A 
ATOM     18  C   UNL     1     103.147 134.775 140.317  0.00  0.00    +0.000 A 
ATOM     19  C   UNL     1     104.492 135.161 141.193  0.00  0.00    +0.000 A 
ATOM     20  C   UNL     1     103.631 135.398 140.077  0.00  0.00    +0.000 A 
ATOM     21  C   UNL     1     104.303 135.591 140.515  0.00  0.00    +0.000 A 
ENDBRANCH  12  16
BRANCH   5  22
ATOM     22  O   UNL     1     102.423 130.100 141.025  0.00  0.00    +0.000 OA
BRANCH  22  30
ATOM     23  O   UNL     1     103.199 129.859 142.201  0.00  0.00    +0.000 OA
ATOM     24  O   UNL     1     104.448 128.083 141.012  0.00  0.00    +0.000 OA
ATOM     25  O   UNL     1     103.256 128.916 140.233  0.00  0.00    +0.000 OA
ATOM     26  O   UNL     1     104.807 128.433 142.583  0.00  0.00    +0.000 OA
ATOM     27  C   UNL     1     104.031 128.675 141.408  0.00  0.00    +0.000 C 
ATOM     28  C   UNL     1     103.436 129.091 141.019  0.00  0.00    +0.000 C 
ATOM     29  C   UNL     1     104.211 128.850 142.193  0.00  0.00    +0.000 C 
ATOM     30  C   UNL     1     103.019 129.683 141.415  0.00  0.00    +0.000 C 
ATOM     31  C   UNL     1     103.795 129.442 142.590  0.00  0.00    +0.000 C 
ENDBRANCH  22  30
ENDBRANCH   5  22
TORSDOF 3
ENDMDL
MODEL 6
REMARK VINA RESULT:      -9.3      1.985      5.484
REMARK  Name = 44259223
REMARK  3 active torsions:
REMARK  status: ('A' for Active; 'I' for Inactive)
REMARK    1  A    between atoms: O_2  and  C_15
REMARK    2  A    between atoms: O_2  and  C_17
REMARK    3  A    between atoms: C_24  and  C_26
REMARK                            x       y       z     vdW  Elec       q    Type
REMARK                         _______ _______ _______ _____ _____    ______ ____
ROOT
ATOM      1  O   UNL     1     110.093 129.998 136.813  0.00  0.00    +0.000 OA
ATOM      2  O   UNL     1     108.093 128.252 135.674  0.00  0.00    +0.000 OA
ATOM      3  O   UNL     1     108.193 131.066 136.696  0.00  0.00    +0.000 OA
ATOM      4  O   UNL     1     107.767 129.601 136.067  0.00  0.00    +0.000 OA
ATOM      5  C   UNL     1     110.260 127.884 136.109  0.00  0.00    +0.000 A 
ATOM      6  C   UNL     1     110.476 128.649 136.435  0.00  0.00    +0.000 A 
ATOM      7  C   UNL     1     109.881 129.266 136.499  0.00  0.00    +0.000 A 
ATOM      8  C   UNL     1     109.451 127.746 135.849  0.00  0.00    +0.000 A 
ATOM      9  C   UNL     1     109.105 129.134 136.250  0.00  0.00    +0.000 A 
ATOM     10  C   UNL     1     108.870 128.375 135.920  0.00  0.00    +0.000 A 
ATOM     11  C   UNL     1     108.543 129.733 136.316  0.00  0.00    +0.000 A 
ATOM     12  C   UNL     1     109.532 130.598 136.880  0.00  0.00    +0.000 A 
ATOM     13  C   UNL     1     108.756 130.466 136.631  0.00  0.00    +0.000 A 
ENDROOT
BRANCH  12  16
ATOM     14  O   UNL     1     110.049 132.262 139.145  0.00  0.00    +0.000 OA
ATOM     15  O   UNL     1     110.383 133.527 138.139  0.00  0.00    +0.000 OA
ATOM     16  C   UNL     1     109.744 131.330 137.194  0.00  0.00    +0.000 A 
ATOM     17  C   UNL     1     109.790 131.430 138.012  0.00  0.00    +0.000 A 
ATOM     18  C   UNL     1     109.911 131.963 136.692  0.00  0.00    +0.000 A 
ATOM     19  C   UNL     1     110.003 132.163 138.327  0.00  0.00    +0.000 A 
ATOM     20  C   UNL     1     110.124 132.695 137.006  0.00  0.00    +0.000 A 
ATOM     21  C   UNL     1     110.170 132.795 137.824  0.00  0.00    +0.000 A 
ENDBRANCH  12  16
BRANCH   5  22
ATOM     22  O   UNL     1     110.824 127.286 136.044  0.00  0.00    +0.000 OA
BRANCH  22  30
ATOM     23  O   UNL     1     110.751 126.909 137.420  0.00  0.00    +0.000 OA
ATOM     24  O   UNL     1     111.327 124.580 136.814  0.00  0.00    +0.000 OA
ATOM     25  O   UNL     1     111.208 125.733 135.640  0.00  0.00    +0.000 OA
ATOM     26  O   UNL     1     111.061 124.980 138.392  0.00  0.00    +0.000 OA
ATOM     27  C   UNL     1     111.135 125.356 137.016  0.00  0.00    +0.000 C 
ATOM     28  C   UNL     1     111.075 125.933 136.429  0.00  0.00    +0.000 C 
ATOM     29  C   UNL     1     111.002 125.556 137.805  0.00  0.00    +0.000 C 
ATOM     30  C   UNL     1     110.883 126.709 136.631  0.00  0.00    +0.000 C 
ATOM     31  C   UNL     1     110.810 126.333 138.007  0.00  0.00    +0.000 C 
ENDBRANCH  22  30
ENDBRANCH   5  22
TORSDOF 3
ENDMDL
MODEL 7
REMARK VINA RESULT:      -9.3      2.364      3.075
REMARK  Name = 44259223
REMARK  3 active torsions:
REMARK  status: ('A' for Active; 'I' for Inactive)
REMARK    1  A    between atoms: O_2  and  C_15
REMARK    2  A    between atoms: O_2  and  C_17
REMARK    3  A    between atoms: C_24  and  C_26
REMARK                            x       y       z     vdW  Elec       q    Type
REMARK                         _______ _______ _______ _____ _____    ______ ____
ROOT
ATOM      1  O   UNL     1     111.985 126.677 136.165  0.00  0.00    +0.000 OA
ATOM      2  O   UNL     1     110.336 128.470 134.612  0.00  0.00    +0.000 OA
ATOM      3  O   UNL     1     110.211 125.606 135.480  0.00  0.00    +0.000 OA
ATOM      4  O   UNL     1     109.943 127.100 134.833  0.00  0.00    +0.000 OA
ATOM      5  C   UNL     1     112.294 128.827 135.640  0.00  0.00    +0.000 A 
ATOM      6  C   UNL     1     112.428 128.047 135.974  0.00  0.00    +0.000 A 
ATOM      7  C   UNL     1     111.851 127.424 135.842  0.00  0.00    +0.000 A 
ATOM      8  C   UNL     1     111.584 128.974 135.176  0.00  0.00    +0.000 A 
ATOM      9  C   UNL     1     111.170 127.564 135.398  0.00  0.00    +0.000 A 
ATOM     10  C   UNL     1     111.019 128.339 135.054  0.00  0.00    +0.000 A 
ATOM     11  C   UNL     1     110.623 126.959 135.277  0.00  0.00    +0.000 A 
ATOM     12  C   UNL     1     111.439 126.071 136.045  0.00  0.00    +0.000 A 
ATOM     13  C   UNL     1     110.758 126.211 135.601  0.00  0.00    +0.000 A 
ENDROOT
BRANCH  12  16
ATOM     14  O   UNL     1     111.292 124.271 138.261  0.00  0.00    +0.000 OA
ATOM     15  O   UNL     1     111.974 123.083 137.341  0.00  0.00    +0.000 OA
ATOM     16  C   UNL     1     111.572 125.324 136.369  0.00  0.00    +0.000 A 
ATOM     17  C   UNL     1     111.365 125.172 137.153  0.00  0.00    +0.000 A 
ATOM     18  C   UNL     1     111.914 124.730 135.909  0.00  0.00    +0.000 A 
ATOM     19  C   UNL     1     111.499 124.424 137.477  0.00  0.00    +0.000 A 
ATOM     20  C   UNL     1     112.047 123.984 136.233  0.00  0.00    +0.000 A 
ATOM     21  C   UNL     1     111.840 123.831 137.017  0.00  0.00    +0.000 A 
ENDBRANCH  12  16
BRANCH   5  22
ATOM     22  O   UNL     1     112.842 129.431 135.762  0.00  0.00    +0.000 OA
BRANCH  22  30
ATOM     23  O   UNL     1     112.160 130.002 136.880  0.00  0.00    +0.000 OA
ATOM     24  O   UNL     1     114.331 130.681 137.856  0.00  0.00    +0.000 OA
ATOM     25  O   UNL     1     114.289 129.884 136.413  0.00  0.00    +0.000 OA
ATOM     26  O   UNL     1     112.926 131.025 138.650  0.00  0.00    +0.000 OA
ATOM     27  C   UNL     1     113.608 130.454 137.531  0.00  0.00    +0.000 C 
ATOM     28  C   UNL     1     113.586 130.056 136.809  0.00  0.00    +0.000 C 
ATOM     29  C   UNL     1     112.905 130.627 137.928  0.00  0.00    +0.000 C 
ATOM     30  C   UNL     1     112.863 129.830 136.484  0.00  0.00    +0.000 C 
ATOM     31  C   UNL     1     112.182 130.400 137.602  0.00  0.00    +0.000 C 
ENDBRANCH  22  30
ENDBRANCH   5  22
TORSDOF 3
ENDMDL
MODEL 8
REMARK VINA RESULT:      -9.3      3.509      5.146
REMARK  Name = 44259223
REMARK  3 active torsions:
REMARK  status: ('A' for Active; 'I' for Inactive)
REMARK    1  A    between atoms: O_2  and  C_15
REMARK    2  A    between atoms: O_2  and  C_17
REMARK    3  A    between atoms: C_24  and  C_26
REMARK                            x       y       z     vdW  Elec       q    Type
REMARK                         _______ _______ _______ _____ _____    ______ ____
ROOT
ATOM      1  O   UNL     1     113.161 127.349 138.323  0.00  0.00    +0.000 OA
ATOM      2  O   UNL     1     112.483 130.018 137.453  0.00  0.00    +0.000 OA
ATOM      3  O   UNL     1     112.775 127.325 136.174  0.00  0.00    +0.000 OA
ATOM      4  O   UNL     1     112.527 128.920 136.519  0.00  0.00    +0.000 OA
ATOM      5  C   UNL     1     113.003 129.247 139.490  0.00  0.00    +0.000 A 
ATOM      6  C   UNL     1     113.131 128.418 139.305  0.00  0.00    +0.000 A 
ATOM      7  C   UNL     1     113.037 128.145 138.495  0.00  0.00    +0.000 A 
ATOM      8  C   UNL     1     112.783 129.793 138.863  0.00  0.00    +0.000 A 
ATOM      9  C   UNL     1     112.826 128.669 137.894  0.00  0.00    +0.000 A 
ATOM     10  C   UNL     1     112.694 129.503 138.060  0.00  0.00    +0.000 A 
ATOM     11  C   UNL     1     112.738 128.396 137.120  0.00  0.00    +0.000 A 
ATOM     12  C   UNL     1     113.073 127.074 137.549  0.00  0.00    +0.000 A 
ATOM     13  C   UNL     1     112.862 127.598 136.948  0.00  0.00    +0.000 A 
ENDROOT
BRANCH  12  16
ATOM     14  O   UNL     1     112.086 124.398 137.374  0.00  0.00    +0.000 OA
ATOM     15  O   UNL     1     113.568 123.885 136.860  0.00  0.00    +0.000 OA
ATOM     16  C   UNL     1     113.197 126.278 137.377  0.00  0.00    +0.000 A 
ATOM     17  C   UNL     1     112.580 125.737 137.462  0.00  0.00    +0.000 A 
ATOM     18  C   UNL     1     113.938 126.021 137.120  0.00  0.00    +0.000 A 
ATOM     19  C   UNL     1     112.704 124.939 137.289  0.00  0.00    +0.000 A 
ATOM     20  C   UNL     1     114.062 125.224 136.948  0.00  0.00    +0.000 A 
ATOM     21  C   UNL     1     113.445 124.683 137.033  0.00  0.00    +0.000 A 
ENDBRANCH  12  16
BRANCH   5  22
ATOM     22  O   UNL     1     113.091 129.518 140.264  0.00  0.00    +0.000 OA
BRANCH  22  30
ATOM     23  O   UNL     1     114.479 129.827 140.121  0.00  0.00    +0.000 OA
ATOM     24  O   UNL     1     114.244 131.650 141.780  0.00  0.00    +0.000 OA
ATOM     25  O   UNL     1     112.935 130.733 141.370  0.00  0.00    +0.000 OA
ATOM     26  O   UNL     1     115.710 131.351 141.084  0.00  0.00    +0.000 OA
ATOM     27  C   UNL     1     114.322 131.042 141.227  0.00  0.00    +0.000 C 
ATOM     28  C   UNL     1     113.668 130.584 141.022  0.00  0.00    +0.000 C 
ATOM     29  C   UNL     1     115.055 130.893 140.879  0.00  0.00    +0.000 C 
ATOM     30  C   UNL     1     113.746 129.976 140.469  0.00  0.00    +0.000 C 
ATOM     31  C   UNL     1     115.133 130.285 140.327  0.00  0.00    +0.000 C 
ENDBRANCH  22  30
ENDBRANCH   5  22
TORSDOF 3
ENDMDL
MODEL 9
REMARK VINA RESULT:      -9.3      2.963      6.606
REMARK  Name = 44259223
REMARK  3 active torsions:
REMARK  status: ('A' for Active; 'I' for Inactive)
REMARK    1  A    between atoms: O_2  and  C_15
REMARK    2  A    between atoms: O_2  and  C_17
REMARK    3  A    between atoms: C_24  and  C_26
REMARK                            x       y       z     vdW  Elec       q    Type
REMARK                         _______ _______ _______ _____ _____    ______ ____
ROOT
ATOM      1  O   UNL     1     109.952 130.814 136.060  0.00  0.00    +0.000 OA
ATOM      2  O   UNL     1     111.965 131.496 138.016  0.00  0.00    +0.000 OA
ATOM      3  O   UNL     1     109.461 132.745 136.949  0.00  0.00    +0.000 OA
ATOM      4  O   UNL     1     110.853 132.376 137.755  0.00  0.00    +0.000 OA
ATOM      5  C   UNL     1     111.776 129.693 136.700  0.00  0.00    +0.000 A 
ATOM      6  C   UNL     1     111.051 129.891 136.284  0.00  0.00    +0.000 A 
ATOM      7  C   UNL     1     110.648 130.629 136.462  0.00  0.00    +0.000 A 
ATOM      8  C   UNL     1     112.089 130.236 137.289  0.00  0.00    +0.000 A 
ATOM      9  C   UNL     1     110.948 131.150 137.027  0.00  0.00    +0.000 A 
ATOM     10  C   UNL     1     111.673 130.969 137.454  0.00  0.00    +0.000 A 
ATOM     11  C   UNL     1     110.553 131.855 137.190  0.00  0.00    +0.000 A 
ATOM     12  C   UNL     1     109.556 131.519 136.222  0.00  0.00    +0.000 A 
ATOM     13  C   UNL     1     109.856 132.040 136.787  0.00  0.00    +0.000 A 
ENDROOT
BRANCH  12  16
ATOM     14  O   UNL     1     106.710 131.379 136.008  0.00  0.00    +0.000 OA
ATOM     15  O   UNL     1     106.771 132.258 134.612  0.00  0.00    +0.000 OA
ATOM     16  C   UNL     1     108.861 131.704 135.820  0.00  0.00    +0.000 A 
ATOM     17  C   UNL     1     108.133 131.449 136.115  0.00  0.00    +0.000 A 
ATOM     18  C   UNL     1     108.891 132.143 135.122  0.00  0.00    +0.000 A 
ATOM     19  C   UNL     1     107.437 131.634 135.713  0.00  0.00    +0.000 A 
ATOM     20  C   UNL     1     108.195 132.327 134.719  0.00  0.00    +0.000 A 
ATOM     21  C   UNL     1     107.468 132.073 135.015  0.00  0.00    +0.000 A 
ENDBRANCH  12  16
BRANCH   5  22
ATOM     22  O   UNL     1     112.170 128.987 136.536  0.00  0.00    +0.000 OA
BRANCH  22  30
ATOM     23  O   UNL     1     112.958 129.592 135.508  0.00  0.00    +0.000 OA
ATOM     24  O   UNL     1     114.656 127.808 135.761  0.00  0.00    +0.000 OA
ATOM     25  O   UNL     1     113.302 127.799 136.704  0.00  0.00    +0.000 OA
ATOM     26  O   UNL     1     114.878 129.007 134.650  0.00  0.00    +0.000 OA
ATOM     27  C   UNL     1     114.090 128.402 135.677  0.00  0.00    +0.000 C 
ATOM     28  C   UNL     1     113.413 128.398 136.148  0.00  0.00    +0.000 C 
ATOM     29  C   UNL     1     114.201 129.002 135.121  0.00  0.00    +0.000 C 
ATOM     30  C   UNL     1     112.847 128.992 136.064  0.00  0.00    +0.000 C 
ATOM     31  C   UNL     1     113.635 129.596 135.037  0.00  0.00    +0.000 C 
ENDBRANCH  22  30
ENDBRANCH   5  22
TORSDOF 3
ENDMDL
MODEL 10
REMARK VINA RESULT:      -9.2      7.799      9.140
REMARK  Name = 44259223
REMARK  3 active torsions:
REMARK  status: ('A' for Active; 'I' for Inactive)
REMARK    1  A    between atoms: O_2  and  C_15
REMARK    2  A    between atoms: O_2  and  C_17
REMARK    3  A    between atoms: C_24  and  C_26
REMARK                            x       y       z     vdW  Elec       q    Type
REMARK                         _______ _______ _______ _____ _____    ______ ____
ROOT
ATOM      1  O   UNL     1     104.988 124.737 140.250  0.00  0.00    +0.000 OA
ATOM      2  O   UNL     1     107.489 123.786 141.339  0.00  0.00    +0.000 OA
ATOM      3  O   UNL     1     105.395 122.739 139.471  0.00  0.00    +0.000 OA
ATOM      4  O   UNL     1     106.717 122.975 140.430  0.00  0.00    +0.000 OA
ATOM      5  C   UNL     1     106.412 125.723 141.662  0.00  0.00    +0.000 A 
ATOM      6  C   UNL     1     105.726 125.594 141.161  0.00  0.00    +0.000 A 
ATOM      7  C   UNL     1     105.649 124.855 140.729  0.00  0.00    +0.000 A 
ATOM      8  C   UNL     1     107.012 125.110 141.725  0.00  0.00    +0.000 A 
ATOM      9  C   UNL     1     106.225 124.268 140.789  0.00  0.00    +0.000 A 
ATOM     10  C   UNL     1     106.919 124.378 141.285  0.00  0.00    +0.000 A 
ATOM     11  C   UNL     1     106.141 123.562 140.370  0.00  0.00    +0.000 A 
ATOM     12  C   UNL     1     104.903 124.032 139.830  0.00  0.00    +0.000 A 
ATOM     13  C   UNL     1     105.479 123.444 139.890  0.00  0.00    +0.000 A 
ENDROOT
BRANCH  12  16
ATOM     14  O   UNL     1     102.202 123.154 139.511  0.00  0.00    +0.000 OA
ATOM     15  O   UNL     1     102.259 123.559 137.913  0.00  0.00    +0.000 OA
ATOM     16  C   UNL     1     104.242 123.914 139.351  0.00  0.00    +0.000 A 
ATOM     17  C   UNL     1     103.553 123.593 139.671  0.00  0.00    +0.000 A 
ATOM     18  C   UNL     1     104.270 124.117 138.551  0.00  0.00    +0.000 A 
ATOM     19  C   UNL     1     102.891 123.475 139.191  0.00  0.00    +0.000 A 
ATOM     20  C   UNL     1     103.610 123.999 138.072  0.00  0.00    +0.000 A 
ATOM     21  C   UNL     1     102.920 123.678 138.392  0.00  0.00    +0.000 A 
ENDBRANCH  12  16
BRANCH   5  22
ATOM     22  O   UNL     1     106.494 126.429 142.081  0.00  0.00    +0.000 OA
BRANCH  22  30
ATOM     23  O   UNL     1     106.309 125.843 143.371  0.00  0.00    +0.000 OA
ATOM     24  O   UNL     1     105.225 127.924 144.160  0.00  0.00    +0.000 OA
ATOM     25  O   UNL     1     105.771 127.816 142.607  0.00  0.00    +0.000 OA
ATOM     26  O   UNL     1     105.401 126.644 145.187  0.00  0.00    +0.000 OA
ATOM     27  C   UNL     1     105.586 127.230 143.897  0.00  0.00    +0.000 C 
ATOM     28  C   UNL     1     105.859 127.176 143.120  0.00  0.00    +0.000 C 
ATOM     29  C   UNL     1     105.674 126.590 144.410  0.00  0.00    +0.000 C 
ATOM     30  C   UNL     1     106.221 126.482 142.857  0.00  0.00    +0.000 C 
ATOM     31  C   UNL     1     106.035 125.897 144.147  0.00  0.00    +0.000 C 
ENDBRANCH  22  30
ENDBRANCH   5  22
TORSDOF 3
ENDMDL
