MODEL 1
REMARK VINA RESULT:      -8.8      0.000      0.000
REMARK  Name = 44259887
REMARK  8 active torsions:
REMARK  status: ('A' for Active; 'I' for Inactive)
REMARK    1  A    between atoms: O_2  and  C_19
REMARK    2  A    between atoms: O_2  and  C_21
REMARK    3  A    between atoms: O_7  and  C_23
REMARK    4  A    between atoms: O_10  and  C_28
REMARK    5  A    between atoms: O_12  and  C_34
REMARK    6  A    between atoms: O_14  and  C_35
REMARK    7  A    between atoms: C_18  and  C_20
REMARK    8  A    between atoms: C_24  and  C_27
REMARK                            x       y       z     vdW  Elec       q    Type
REMARK                         _______ _______ _______ _____ _____    ______ ____
ROOT
ATOM      1  O   UNL     1     114.608 128.349 135.113  0.00  0.00    +0.000 OA
ATOM      2  C   UNL     1     113.675 130.242 136.407  0.00  0.00    +0.000 A 
ATOM      3  C   UNL     1     113.331 129.493 136.464  0.00  0.00    +0.000 A 
ATOM      4  C   UNL     1     114.329 130.358 135.919  0.00  0.00    +0.000 A 
ATOM      5  C   UNL     1     113.642 128.862 136.033  0.00  0.00    +0.000 A 
ATOM      6  C   UNL     1     114.640 129.727 135.487  0.00  0.00    +0.000 A 
ATOM      7  C   UNL     1     114.297 128.980 135.545  0.00  0.00    +0.000 A 
ENDROOT
BRANCH   5  11
ATOM      8  O   UNL     1     113.685 127.514 136.503  0.00  0.00    +0.000 OA
ATOM      9  O   UNL     1     111.496 127.072 135.436  0.00  0.00    +0.000 OA
ATOM     10  O   UNL     1     111.514 125.705 135.899  0.00  0.00    +0.000 OA
ATOM     11  C   UNL     1     113.299 128.115 136.090  0.00  0.00    +0.000 A 
ATOM     12  C   UNL     1     112.569 127.967 135.735  0.00  0.00    +0.000 A 
ATOM     13  C   UNL     1     112.612 126.619 136.205  0.00  0.00    +0.000 A 
ATOM     14  C   UNL     1     113.342 126.766 136.560  0.00  0.00    +0.000 A 
ATOM     15  C   UNL     1     112.226 127.220 135.792  0.00  0.00    +0.000 A 
ATOM     16  C   UNL     1     112.244 125.844 136.258  0.00  0.00    +0.000 A 
ATOM     17  C   UNL     1     113.754 126.149 136.993  0.00  0.00    +0.000 A 
ATOM     18  C   UNL     1     112.641 125.214 136.686  0.00  0.00    +0.000 A 
ATOM     19  C   UNL     1     113.402 125.367 137.057  0.00  0.00    +0.000 A 
BRANCH  12  20
ATOM     20  O   UNL     1     112.183 128.568 135.322  0.00  0.00    +0.000 OA
ATOM     21  C   UNL     1     111.411 128.454 135.053  0.00  0.00    +0.000 C 
ENDBRANCH  12  20
BRANCH  18  22
ATOM     22  O   UNL     1     112.295 124.467 136.742  0.00  0.00    +0.000 OA
ATOM     23  C   UNL     1     111.700 124.328 137.296  0.00  0.00    +0.000 C 
ENDBRANCH  18  22
BRANCH  19  24
ATOM     24  O   UNL     1     113.791 124.768 137.470  0.00  0.00    +0.000 OA
ATOM     25  C   UNL     1     114.610 124.797 137.563  0.00  0.00    +0.000 C 
ENDBRANCH  19  24
ENDBRANCH   5  11
BRANCH   4  26
ATOM     26  O   UNL     1     114.673 131.107 135.862  0.00  0.00    +0.000 OA
ATOM     27  C   UNL     1     115.237 131.258 135.279  0.00  0.00    +0.000 C 
ENDBRANCH   4  26
BRANCH   2  28
ATOM     28  O   UNL     1     113.364 130.872 136.838  0.00  0.00    +0.000 OA
BRANCH  28  37
ATOM     29  O   UNL     1     113.737 130.505 138.168  0.00  0.00    +0.000 OA
ATOM     30  O   UNL     1     111.441 131.002 138.949  0.00  0.00    +0.000 OA
ATOM     31  O   UNL     1     112.579 130.470 140.017  0.00  0.00    +0.000 OA
ATOM     32  O   UNL     1     111.833 131.203 137.359  0.00  0.00    +0.000 OA
ATOM     33  C   UNL     1     112.207 130.837 138.689  0.00  0.00    +0.000 C 
ATOM     34  C   UNL     1     112.776 130.570 139.223  0.00  0.00    +0.000 C 
ATOM     35  C   UNL     1     112.403 130.937 137.893  0.00  0.00    +0.000 C 
ATOM     36  C   UNL     1     113.541 130.405 138.962  0.00  0.00    +0.000 C 
ATOM     37  C   UNL     1     113.168 130.772 137.633  0.00  0.00    +0.000 C 
BRANCH  36  39
ATOM     38  O   UNL     1     114.845 130.511 139.537  0.00  0.00    +0.000 OA
ATOM     39  C   UNL     1     114.110 130.139 139.497  0.00  0.00    +0.000 C 
ENDBRANCH  36  39
ENDBRANCH  28  37
ENDBRANCH   2  28
TORSDOF 8
ENDMDL
MODEL 2
REMARK VINA RESULT:      -8.5     10.822     12.947
REMARK  Name = 44259887
REMARK  8 active torsions:
REMARK  status: ('A' for Active; 'I' for Inactive)
REMARK    1  A    between atoms: O_2  and  C_19
REMARK    2  A    between atoms: O_2  and  C_21
REMARK    3  A    between atoms: O_7  and  C_23
REMARK    4  A    between atoms: O_10  and  C_28
REMARK    5  A    between atoms: O_12  and  C_34
REMARK    6  A    between atoms: O_14  and  C_35
REMARK    7  A    between atoms: C_18  and  C_20
REMARK    8  A    between atoms: C_24  and  C_27
REMARK                            x       y       z     vdW  Elec       q    Type
REMARK                         _______ _______ _______ _____ _____    ______ ____
ROOT
ATOM      1  O   UNL     1     107.312 125.785 146.154  0.00  0.00    +0.000 OA
ATOM      2  C   UNL     1     105.286 124.881 147.250  0.00  0.00    +0.000 A 
ATOM      3  C   UNL     1     105.214 125.366 146.586  0.00  0.00    +0.000 A 
ATOM      4  C   UNL     1     106.033 124.699 147.548  0.00  0.00    +0.000 A 
ATOM      5  C   UNL     1     105.890 125.668 146.221  0.00  0.00    +0.000 A 
ATOM      6  C   UNL     1     106.708 125.000 147.183  0.00  0.00    +0.000 A 
ATOM      7  C   UNL     1     106.637 125.484 146.520  0.00  0.00    +0.000 A 
ENDROOT
BRANCH   5  11
ATOM      8  O   UNL     1     105.930 125.837 144.803  0.00  0.00    +0.000 OA
ATOM      9  O   UNL     1     105.380 128.235 145.073  0.00  0.00    +0.000 OA
ATOM     10  O   UNL     1     105.414 128.434 143.645  0.00  0.00    +0.000 OA
ATOM     11  C   UNL     1     105.818 126.152 145.557  0.00  0.00    +0.000 A 
ATOM     12  C   UNL     1     105.635 126.951 145.647  0.00  0.00    +0.000 A 
ATOM     13  C   UNL     1     105.675 127.121 144.229  0.00  0.00    +0.000 A 
ATOM     14  C   UNL     1     105.858 126.322 144.138  0.00  0.00    +0.000 A 
ATOM     15  C   UNL     1     105.564 127.436 144.984  0.00  0.00    +0.000 A 
ATOM     16  C   UNL     1     105.598 127.636 143.545  0.00  0.00    +0.000 A 
ATOM     17  C   UNL     1     105.977 125.981 143.359  0.00  0.00    +0.000 A 
ATOM     18  C   UNL     1     105.713 127.314 142.757  0.00  0.00    +0.000 A 
ATOM     19  C   UNL     1     105.904 126.480 142.663  0.00  0.00    +0.000 A 
BRANCH  12  20
ATOM     20  O   UNL     1     105.524 127.266 146.401  0.00  0.00    +0.000 OA
ATOM     21  C   UNL     1     105.076 127.952 146.501  0.00  0.00    +0.000 C 
ENDBRANCH  12  20
BRANCH  18  22
ATOM     22  O   UNL     1     105.641 127.801 142.094  0.00  0.00    +0.000 OA
ATOM     23  C   UNL     1     104.894 127.978 141.792  0.00  0.00    +0.000 C 
ENDBRANCH  18  22
BRANCH  19  24
ATOM     24  O   UNL     1     106.016 126.163 141.909  0.00  0.00    +0.000 OA
ATOM     25  C   UNL     1     106.333 125.406 141.825  0.00  0.00    +0.000 C 
ENDBRANCH  19  24
ENDBRANCH   5  11
BRANCH   4  26
ATOM     26  O   UNL     1     106.104 124.214 148.213  0.00  0.00    +0.000 OA
ATOM     27  C   UNL     1     106.755 124.293 148.713  0.00  0.00    +0.000 C 
ENDBRANCH   4  26
BRANCH   2  28
ATOM     28  O   UNL     1     104.610 124.580 147.616  0.00  0.00    +0.000 OA
BRANCH  28  37
ATOM     29  O   UNL     1     104.114 123.714 146.593  0.00  0.00    +0.000 OA
ATOM     30  O   UNL     1     101.841 124.639 146.913  0.00  0.00    +0.000 OA
ATOM     31  O   UNL     1     102.102 123.465 145.784  0.00  0.00    +0.000 OA
ATOM     32  O   UNL     1     103.095 125.197 147.829  0.00  0.00    +0.000 OA
ATOM     33  C   UNL     1     102.598 124.331 146.806  0.00  0.00    +0.000 C 
ATOM     34  C   UNL     1     102.730 123.744 146.242  0.00  0.00    +0.000 C 
ATOM     35  C   UNL     1     103.226 124.610 147.265  0.00  0.00    +0.000 C 
ATOM     36  C   UNL     1     103.487 123.435 146.136  0.00  0.00    +0.000 C 
ATOM     37  C   UNL     1     103.984 124.301 147.158  0.00  0.00    +0.000 C 
BRANCH  36  39
ATOM     38  O   UNL     1     104.353 122.786 145.202  0.00  0.00    +0.000 OA
ATOM     39  C   UNL     1     103.618 122.848 145.571  0.00  0.00    +0.000 C 
ENDBRANCH  36  39
ENDBRANCH  28  37
ENDBRANCH   2  28
TORSDOF 8
ENDMDL
MODEL 3
REMARK VINA RESULT:      -8.4     11.634     13.456
REMARK  Name = 44259887
REMARK  8 active torsions:
REMARK  status: ('A' for Active; 'I' for Inactive)
REMARK    1  A    between atoms: O_2  and  C_19
REMARK    2  A    between atoms: O_2  and  C_21
REMARK    3  A    between atoms: O_7  and  C_23
REMARK    4  A    between atoms: O_10  and  C_28
REMARK    5  A    between atoms: O_12  and  C_34
REMARK    6  A    between atoms: O_14  and  C_35
REMARK    7  A    between atoms: C_18  and  C_20
REMARK    8  A    between atoms: C_24  and  C_27
REMARK                            x       y       z     vdW  Elec       q    Type
REMARK                         _______ _______ _______ _____ _____    ______ ____
ROOT
ATOM      1  O   UNL     1     105.625 124.094 148.095  0.00  0.00    +0.000 OA
ATOM      2  C   UNL     1     106.675 125.606 146.440  0.00  0.00    +0.000 A 
ATOM      3  C   UNL     1     105.886 125.380 146.351  0.00  0.00    +0.000 A 
ATOM      4  C   UNL     1     107.113 125.328 147.081  0.00  0.00    +0.000 A 
ATOM      5  C   UNL     1     105.536 124.876 146.902  0.00  0.00    +0.000 A 
ATOM      6  C   UNL     1     106.763 124.824 147.633  0.00  0.00    +0.000 A 
ATOM      7  C   UNL     1     105.975 124.598 147.543  0.00  0.00    +0.000 A 
ENDROOT
BRANCH   5  11
ATOM      8  O   UNL     1     104.171 124.958 147.316  0.00  0.00    +0.000 OA
ATOM      9  O   UNL     1     103.535 123.359 145.537  0.00  0.00    +0.000 OA
ATOM     10  O   UNL     1     102.150 123.422 145.934  0.00  0.00    +0.000 OA
ATOM     11  C   UNL     1     104.748 124.650 146.813  0.00  0.00    +0.000 A 
ATOM     12  C   UNL     1     104.536 124.117 146.220  0.00  0.00    +0.000 A 
ATOM     13  C   UNL     1     103.171 124.199 146.633  0.00  0.00    +0.000 A 
ATOM     14  C   UNL     1     103.382 124.732 147.227  0.00  0.00    +0.000 A 
ATOM     15  C   UNL     1     103.748 123.892 146.130  0.00  0.00    +0.000 A 
ATOM     16  C   UNL     1     102.352 123.956 146.530  0.00  0.00    +0.000 A 
ATOM     17  C   UNL     1     102.791 125.059 147.758  0.00  0.00    +0.000 A 
ATOM     18  C   UNL     1     101.747 124.272 147.051  0.00  0.00    +0.000 A 
ATOM     19  C   UNL     1     101.968 124.828 147.670  0.00  0.00    +0.000 A 
BRANCH  12  20
ATOM     20  O   UNL     1     105.112 123.810 145.716  0.00  0.00    +0.000 OA
ATOM     21  C   UNL     1     104.897 123.494 144.985  0.00  0.00    +0.000 C 
ENDBRANCH  12  20
BRANCH  18  22
ATOM     22  O   UNL     1     100.959 124.045 146.960  0.00  0.00    +0.000 OA
ATOM     23  C   UNL     1     100.712 123.300 147.214  0.00  0.00    +0.000 C 
ENDBRANCH  18  22
BRANCH  19  24
ATOM     24  O   UNL     1     101.393 125.137 148.175  0.00  0.00    +0.000 OA
ATOM     25  C   UNL     1     101.612 125.645 148.786  0.00  0.00    +0.000 C 
ENDBRANCH  19  24
ENDBRANCH   5  11
BRANCH   4  26
ATOM     26  O   UNL     1     107.902 125.554 147.171  0.00  0.00    +0.000 OA
ATOM     27  C   UNL     1     108.358 125.225 147.774  0.00  0.00    +0.000 C 
ENDBRANCH   4  26
BRANCH   2  28
ATOM     28  O   UNL     1     107.024 126.110 145.889  0.00  0.00    +0.000 OA
BRANCH  28  37
ATOM     29  O   UNL     1     106.282 127.305 146.140  0.00  0.00    +0.000 OA
ATOM     30  O   UNL     1     106.024 127.657 143.704  0.00  0.00    +0.000 OA
ATOM     31  O   UNL     1     105.367 128.733 144.767  0.00  0.00    +0.000 OA
ATOM     32  O   UNL     1     106.852 126.345 144.264  0.00  0.00    +0.000 OA
ATOM     33  C   UNL     1     106.110 127.539 144.516  0.00  0.00    +0.000 C 
ATOM     34  C   UNL     1     105.782 128.078 145.048  0.00  0.00    +0.000 C 
ATOM     35  C   UNL     1     106.524 126.883 144.796  0.00  0.00    +0.000 C 
ATOM     36  C   UNL     1     105.868 127.960 145.860  0.00  0.00    +0.000 C 
ATOM     37  C   UNL     1     106.610 126.766 145.609  0.00  0.00    +0.000 C 
BRANCH  36  39
ATOM     38  O   UNL     1     106.007 128.834 146.982  0.00  0.00    +0.000 OA
ATOM     39  C   UNL     1     105.539 128.499 146.391  0.00  0.00    +0.000 C 
ENDBRANCH  36  39
ENDBRANCH  28  37
ENDBRANCH   2  28
TORSDOF 8
ENDMDL
MODEL 4
REMARK VINA RESULT:      -8.3      1.384      2.685
REMARK  Name = 44259887
REMARK  8 active torsions:
REMARK  status: ('A' for Active; 'I' for Inactive)
REMARK    1  A    between atoms: O_2  and  C_19
REMARK    2  A    between atoms: O_2  and  C_21
REMARK    3  A    between atoms: O_7  and  C_23
REMARK    4  A    between atoms: O_10  and  C_28
REMARK    5  A    between atoms: O_12  and  C_34
REMARK    6  A    between atoms: O_14  and  C_35
REMARK    7  A    between atoms: C_18  and  C_20
REMARK    8  A    between atoms: C_24  and  C_27
REMARK                            x       y       z     vdW  Elec       q    Type
REMARK                         _______ _______ _______ _____ _____    ______ ____
ROOT
ATOM      1  O   UNL     1     111.286 128.095 134.780  0.00  0.00    +0.000 OA
ATOM      2  C   UNL     1     111.128 129.935 136.428  0.00  0.00    +0.000 A 
ATOM      3  C   UNL     1     111.663 129.318 136.548  0.00  0.00    +0.000 A 
ATOM      4  C   UNL     1     110.646 129.938 135.759  0.00  0.00    +0.000 A 
ATOM      5  C   UNL     1     111.716 128.704 135.999  0.00  0.00    +0.000 A 
ATOM      6  C   UNL     1     110.699 129.324 135.209  0.00  0.00    +0.000 A 
ATOM      7  C   UNL     1     111.234 128.708 135.330  0.00  0.00    +0.000 A 
ENDROOT
BRANCH   5  11
ATOM      8  O   UNL     1     111.986 127.363 136.410  0.00  0.00    +0.000 OA
ATOM      9  O   UNL     1     114.385 127.688 135.898  0.00  0.00    +0.000 OA
ATOM     10  O   UNL     1     114.685 126.338 136.307  0.00  0.00    +0.000 OA
ATOM     11  C   UNL     1     112.251 128.088 136.119  0.00  0.00    +0.000 A 
ATOM     12  C   UNL     1     113.051 128.196 135.949  0.00  0.00    +0.000 A 
ATOM     13  C   UNL     1     113.320 126.855 136.360  0.00  0.00    +0.000 A 
ATOM     14  C   UNL     1     112.521 126.746 136.531  0.00  0.00    +0.000 A 
ATOM     15  C   UNL     1     113.585 127.580 136.069  0.00  0.00    +0.000 A 
ATOM     16  C   UNL     1     113.887 126.220 136.481  0.00  0.00    +0.000 A 
ATOM     17  C   UNL     1     112.232 125.996 136.834  0.00  0.00    +0.000 A 
ATOM     18  C   UNL     1     113.618 125.463 136.784  0.00  0.00    +0.000 A 
ATOM     19  C   UNL     1     112.784 125.350 136.962  0.00  0.00    +0.000 A 
BRANCH  12  20
ATOM     20  O   UNL     1     113.316 128.921 135.658  0.00  0.00    +0.000 OA
ATOM     21  C   UNL     1     114.122 129.097 135.658  0.00  0.00    +0.000 C 
ENDBRANCH  12  20
BRANCH  18  22
ATOM     22  O   UNL     1     114.155 124.848 136.903  0.00  0.00    +0.000 OA
ATOM     23  C   UNL     1     114.647 124.853 137.565  0.00  0.00    +0.000 C 
ENDBRANCH  18  22
BRANCH  19  24
ATOM     24  O   UNL     1     112.516 124.626 137.253  0.00  0.00    +0.000 OA
ATOM     25  C   UNL     1     111.709 124.454 137.250  0.00  0.00    +0.000 C 
ENDBRANCH  19  24
ENDBRANCH   5  11
BRANCH   4  26
ATOM     26  O   UNL     1     110.111 130.555 135.639  0.00  0.00    +0.000 OA
ATOM     27  C   UNL     1     109.676 130.592 134.939  0.00  0.00    +0.000 C 
ENDBRANCH   4  26
BRANCH   2  28
ATOM     28  O   UNL     1     111.075 130.548 136.978  0.00  0.00    +0.000 OA
BRANCH  28  37
ATOM     29  O   UNL     1     110.429 129.859 138.050  0.00  0.00    +0.000 OA
ATOM     30  O   UNL     1     111.995 130.898 139.661  0.00  0.00    +0.000 OA
ATOM     31  O   UNL     1     110.827 129.863 140.196  0.00  0.00    +0.000 OA
ATOM     32  O   UNL     1     112.119 131.240 138.052  0.00  0.00    +0.000 OA
ATOM     33  C   UNL     1     111.473 130.551 139.124  0.00  0.00    +0.000 C 
ATOM     34  C   UNL     1     110.889 130.034 139.391  0.00  0.00    +0.000 C 
ATOM     35  C   UNL     1     111.535 130.723 138.319  0.00  0.00    +0.000 C 
ATOM     36  C   UNL     1     110.367 129.687 138.854  0.00  0.00    +0.000 C 
ATOM     37  C   UNL     1     111.013 130.376 137.782  0.00  0.00    +0.000 C 
BRANCH  36  39
ATOM     38  O   UNL     1     109.017 129.219 138.819  0.00  0.00    +0.000 OA
ATOM     39  C   UNL     1     109.784 129.170 139.122  0.00  0.00    +0.000 C 
ENDBRANCH  36  39
ENDBRANCH  28  37
ENDBRANCH   2  28
TORSDOF 8
ENDMDL
MODEL 5
REMARK VINA RESULT:      -8.2      1.820      5.114
REMARK  Name = 44259887
REMARK  8 active torsions:
REMARK  status: ('A' for Active; 'I' for Inactive)
REMARK    1  A    between atoms: O_2  and  C_19
REMARK    2  A    between atoms: O_2  and  C_21
REMARK    3  A    between atoms: O_7  and  C_23
REMARK    4  A    between atoms: O_10  and  C_28
REMARK    5  A    between atoms: O_12  and  C_34
REMARK    6  A    between atoms: O_14  and  C_35
REMARK    7  A    between atoms: C_18  and  C_20
REMARK    8  A    between atoms: C_24  and  C_27
REMARK                            x       y       z     vdW  Elec       q    Type
REMARK                         _______ _______ _______ _____ _____    ______ ____
ROOT
ATOM      1  O   UNL     1     112.042 128.859 138.807  0.00  0.00    +0.000 OA
ATOM      2  C   UNL     1     113.341 126.796 138.379  0.00  0.00    +0.000 A 
ATOM      3  C   UNL     1     112.960 127.181 137.755  0.00  0.00    +0.000 A 
ATOM      4  C   UNL     1     113.288 127.100 139.144  0.00  0.00    +0.000 A 
ATOM      5  C   UNL     1     112.527 127.869 137.898  0.00  0.00    +0.000 A 
ATOM      6  C   UNL     1     112.855 127.787 139.286  0.00  0.00    +0.000 A 
ATOM      7  C   UNL     1     112.475 128.171 138.664  0.00  0.00    +0.000 A 
ENDROOT
BRANCH   5  11
ATOM      8  O   UNL     1     111.342 128.131 137.146  0.00  0.00    +0.000 OA
ATOM      9  O   UNL     1     112.616 129.650 135.665  0.00  0.00    +0.000 OA
ATOM     10  O   UNL     1     111.434 129.933 134.888  0.00  0.00    +0.000 OA
ATOM     11  C   UNL     1     112.147 128.253 137.275  0.00  0.00    +0.000 A 
ATOM     12  C   UNL     1     112.572 128.760 136.781  0.00  0.00    +0.000 A 
ATOM     13  C   UNL     1     111.386 129.022 136.029  0.00  0.00    +0.000 A 
ATOM     14  C   UNL     1     110.961 128.516 136.522  0.00  0.00    +0.000 A 
ATOM     15  C   UNL     1     112.192 129.144 136.159  0.00  0.00    +0.000 A 
ATOM     16  C   UNL     1     111.000 129.428 135.377  0.00  0.00    +0.000 A 
ATOM     17  C   UNL     1     110.121 128.380 136.399  0.00  0.00    +0.000 A 
ATOM     18  C   UNL     1     110.162 129.305 135.237  0.00  0.00    +0.000 A 
ATOM     19  C   UNL     1     109.719 128.777 135.751  0.00  0.00    +0.000 A 
BRANCH  12  20
ATOM     20  O   UNL     1     113.377 128.882 136.911  0.00  0.00    +0.000 OA
ATOM     21  C   UNL     1     113.848 129.201 136.313  0.00  0.00    +0.000 C 
ENDBRANCH  12  20
BRANCH  18  22
ATOM     22  O   UNL     1     109.784 129.691 134.613  0.00  0.00    +0.000 OA
ATOM     23  C   UNL     1     109.517 130.466 134.708  0.00  0.00    +0.000 C 
ENDBRANCH  18  22
BRANCH  19  24
ATOM     24  O   UNL     1     108.913 128.653 135.624  0.00  0.00    +0.000 OA
ATOM     25  C   UNL     1     108.564 127.944 135.858  0.00  0.00    +0.000 C 
ENDBRANCH  19  24
ENDBRANCH   5  11
BRANCH   4  26
ATOM     26  O   UNL     1     113.669 126.715 139.767  0.00  0.00    +0.000 OA
ATOM     27  C   UNL     1     113.812 127.117 140.473  0.00  0.00    +0.000 C 
ENDBRANCH   4  26
BRANCH   2  28
ATOM     28  O   UNL     1     113.774 126.109 138.236  0.00  0.00    +0.000 OA
BRANCH  28  37
ATOM     29  O   UNL     1     112.697 125.236 137.888  0.00  0.00    +0.000 OA
ATOM     30  O   UNL     1     114.051 124.301 136.040  0.00  0.00    +0.000 OA
ATOM     31  O   UNL     1     112.523 123.741 136.308  0.00  0.00    +0.000 OA
ATOM     32  O   UNL     1     114.677 125.485 137.003  0.00  0.00    +0.000 OA
ATOM     33  C   UNL     1     113.600 124.613 136.656  0.00  0.00    +0.000 C 
ATOM     34  C   UNL     1     112.835 124.333 136.791  0.00  0.00    +0.000 C 
ATOM     35  C   UNL     1     113.913 125.205 137.138  0.00  0.00    +0.000 C 
ATOM     36  C   UNL     1     112.384 124.645 137.407  0.00  0.00    +0.000 C 
ATOM     37  C   UNL     1     113.461 125.517 137.755  0.00  0.00    +0.000 C 
BRANCH  36  39
ATOM     38  O   UNL     1     111.248 124.510 138.263  0.00  0.00    +0.000 OA
ATOM     39  C   UNL     1     111.620 124.365 137.541  0.00  0.00    +0.000 C 
ENDBRANCH  36  39
ENDBRANCH  28  37
ENDBRANCH   2  28
TORSDOF 8
ENDMDL
MODEL 6
REMARK VINA RESULT:      -8.2      1.932      4.971
REMARK  Name = 44259887
REMARK  8 active torsions:
REMARK  status: ('A' for Active; 'I' for Inactive)
REMARK    1  A    between atoms: O_2  and  C_19
REMARK    2  A    between atoms: O_2  and  C_21
REMARK    3  A    between atoms: O_7  and  C_23
REMARK    4  A    between atoms: O_10  and  C_28
REMARK    5  A    between atoms: O_12  and  C_34
REMARK    6  A    between atoms: O_14  and  C_35
REMARK    7  A    between atoms: C_18  and  C_20
REMARK    8  A    between atoms: C_24  and  C_27
REMARK                            x       y       z     vdW  Elec       q    Type
REMARK                         _______ _______ _______ _____ _____    ______ ____
ROOT
ATOM      1  O   UNL     1     114.225 126.194 139.469  0.00  0.00    +0.000 OA
ATOM      2  C   UNL     1     113.030 126.488 137.322  0.00  0.00    +0.000 A 
ATOM      3  C   UNL     1     112.858 126.981 137.961  0.00  0.00    +0.000 A 
ATOM      4  C   UNL     1     113.601 125.897 137.399  0.00  0.00    +0.000 A 
ATOM      5  C   UNL     1     113.257 126.883 138.677  0.00  0.00    +0.000 A 
ATOM      6  C   UNL     1     113.999 125.799 138.115  0.00  0.00    +0.000 A 
ATOM      7  C   UNL     1     113.827 126.292 138.753  0.00  0.00    +0.000 A 
ENDROOT
BRANCH   5  11
ATOM      8  O   UNL     1     113.561 128.031 139.471  0.00  0.00    +0.000 OA
ATOM      9  O   UNL     1     111.614 127.546 140.920  0.00  0.00    +0.000 OA
ATOM     10  O   UNL     1     111.899 128.700 141.738  0.00  0.00    +0.000 OA
ATOM     11  C   UNL     1     113.084 127.376 139.315  0.00  0.00    +0.000 A 
ATOM     12  C   UNL     1     112.435 127.215 139.798  0.00  0.00    +0.000 A 
ATOM     13  C   UNL     1     112.740 128.362 140.592  0.00  0.00    +0.000 A 
ATOM     14  C   UNL     1     113.389 128.525 140.110  0.00  0.00    +0.000 A 
ATOM     15  C   UNL     1     112.263 127.708 140.436  0.00  0.00    +0.000 A 
ATOM     16  C   UNL     1     112.551 128.869 141.260  0.00  0.00    +0.000 A 
ATOM     17  C   UNL     1     113.894 129.203 140.261  0.00  0.00    +0.000 A 
ATOM     18  C   UNL     1     113.044 129.553 141.428  0.00  0.00    +0.000 A 
ATOM     19  C   UNL     1     113.720 129.721 140.925  0.00  0.00    +0.000 A 
BRANCH  12  20
ATOM     20  O   UNL     1     111.958 126.560 139.642  0.00  0.00    +0.000 OA
ATOM     21  C   UNL     1     111.168 126.560 139.877  0.00  0.00    +0.000 C 
ENDBRANCH  12  20
BRANCH  18  22
ATOM     22  O   UNL     1     112.869 130.044 142.067  0.00  0.00    +0.000 OA
ATOM     23  C   UNL     1     112.288 130.626 141.994  0.00  0.00    +0.000 C 
ENDBRANCH  18  22
BRANCH  19  24
ATOM     24  O   UNL     1     114.199 130.375 141.078  0.00  0.00    +0.000 OA
ATOM     25  C   UNL     1     114.897 130.483 140.653  0.00  0.00    +0.000 C 
ENDBRANCH  19  24
ENDBRANCH   5  11
BRANCH   4  26
ATOM     26  O   UNL     1     113.773 125.404 136.760  0.00  0.00    +0.000 OA
ATOM     27  C   UNL     1     114.154 124.684 136.887  0.00  0.00    +0.000 C 
ENDBRANCH   4  26
BRANCH   2  28
ATOM     28  O   UNL     1     112.632 126.586 136.606  0.00  0.00    +0.000 OA
BRANCH  28  37
ATOM     29  O   UNL     1     113.283 127.768 136.135  0.00  0.00    +0.000 OA
ATOM     30  O   UNL     1     111.096 128.694 135.437  0.00  0.00    +0.000 OA
ATOM     31  O   UNL     1     112.475 129.567 135.200  0.00  0.00    +0.000 OA
ATOM     32  O   UNL     1     111.174 127.203 136.140  0.00  0.00    +0.000 OA
ATOM     33  C   UNL     1     111.825 128.385 135.670  0.00  0.00    +0.000 C 
ATOM     34  C   UNL     1     112.515 128.822 135.551  0.00  0.00    +0.000 C 
ATOM     35  C   UNL     1     111.864 127.639 136.022  0.00  0.00    +0.000 C 
ATOM     36  C   UNL     1     113.244 128.513 135.784  0.00  0.00    +0.000 C 
ATOM     37  C   UNL     1     112.593 127.331 136.254  0.00  0.00    +0.000 C 
BRANCH  36  39
ATOM     38  O   UNL     1     114.616 128.577 135.389  0.00  0.00    +0.000 OA
ATOM     39  C   UNL     1     113.933 128.950 135.665  0.00  0.00    +0.000 C 
ENDBRANCH  36  39
ENDBRANCH  28  37
ENDBRANCH   2  28
TORSDOF 8
ENDMDL
MODEL 7
REMARK VINA RESULT:      -8.2     11.128     13.022
REMARK  Name = 44259887
REMARK  8 active torsions:
REMARK  status: ('A' for Active; 'I' for Inactive)
REMARK    1  A    between atoms: O_2  and  C_19
REMARK    2  A    between atoms: O_2  and  C_21
REMARK    3  A    between atoms: O_7  and  C_23
REMARK    4  A    between atoms: O_10  and  C_28
REMARK    5  A    between atoms: O_12  and  C_34
REMARK    6  A    between atoms: O_14  and  C_35
REMARK    7  A    between atoms: C_18  and  C_20
REMARK    8  A    between atoms: C_24  and  C_27
REMARK                            x       y       z     vdW  Elec       q    Type
REMARK                         _______ _______ _______ _____ _____    ______ ____
ROOT
ATOM      1  O   UNL     1     107.616 125.181 146.554  0.00  0.00    +0.000 OA
ATOM      2  C   UNL     1     105.598 125.048 147.980  0.00  0.00    +0.000 A 
ATOM      3  C   UNL     1     105.534 125.302 147.197  0.00  0.00    +0.000 A 
ATOM      4  C   UNL     1     106.334 124.839 148.286  0.00  0.00    +0.000 A 
ATOM      5  C   UNL     1     106.206 125.346 146.721  0.00  0.00    +0.000 A 
ATOM      6  C   UNL     1     107.007 124.884 147.811  0.00  0.00    +0.000 A 
ATOM      7  C   UNL     1     106.943 125.137 147.029  0.00  0.00    +0.000 A 
ENDROOT
BRANCH   5  11
ATOM      8  O   UNL     1     106.380 126.361 145.732  0.00  0.00    +0.000 OA
ATOM      9  O   UNL     1     105.473 124.836 144.006  0.00  0.00    +0.000 OA
ATOM     10  O   UNL     1     105.639 125.844 142.987  0.00  0.00    +0.000 OA
ATOM     11  C   UNL     1     106.142 125.599 145.940  0.00  0.00    +0.000 A 
ATOM     12  C   UNL     1     105.840 125.091 145.364  0.00  0.00    +0.000 A 
ATOM     13  C   UNL     1     106.014 126.107 144.375  0.00  0.00    +0.000 A 
ATOM     14  C   UNL     1     106.316 126.615 144.949  0.00  0.00    +0.000 A 
ATOM     15  C   UNL     1     105.776 125.344 144.582  0.00  0.00    +0.000 A 
ATOM     16  C   UNL     1     105.942 126.360 143.556  0.00  0.00    +0.000 A 
ATOM     17  C   UNL     1     106.568 127.411 144.746  0.00  0.00    +0.000 A 
ATOM     18  C   UNL     1     106.188 127.152 143.333  0.00  0.00    +0.000 A 
ATOM     19  C   UNL     1     106.504 127.682 143.933  0.00  0.00    +0.000 A 
BRANCH  12  20
ATOM     20  O   UNL     1     105.602 124.329 145.571  0.00  0.00    +0.000 OA
ATOM     21  C   UNL     1     105.034 123.937 145.120  0.00  0.00    +0.000 C 
ENDBRANCH  12  20
BRANCH  18  22
ATOM     22  O   UNL     1     106.123 127.403 142.550  0.00  0.00    +0.000 OA
ATOM     23  C   UNL     1     106.704 127.197 142.001  0.00  0.00    +0.000 C 
ENDBRANCH  18  22
BRANCH  19  24
ATOM     24  O   UNL     1     106.743 128.445 143.728  0.00  0.00    +0.000 OA
ATOM     25  C   UNL     1     106.880 129.005 144.318  0.00  0.00    +0.000 C 
ENDBRANCH  19  24
ENDBRANCH   5  11
BRANCH   4  26
ATOM     26  O   UNL     1     106.398 124.585 149.070  0.00  0.00    +0.000 OA
ATOM     27  C   UNL     1     107.108 124.265 149.342  0.00  0.00    +0.000 C 
ENDBRANCH   4  26
BRANCH   2  28
ATOM     28  O   UNL     1     104.925 125.003 148.456  0.00  0.00    +0.000 OA
BRANCH  28  37
ATOM     29  O   UNL     1     104.670 126.397 148.640  0.00  0.00    +0.000 OA
ATOM     30  O   UNL     1     102.258 126.010 148.243  0.00  0.00    +0.000 OA
ATOM     31  O   UNL     1     102.808 127.532 148.560  0.00  0.00    +0.000 OA
ATOM     32  O   UNL     1     103.317 124.745 148.191  0.00  0.00    +0.000 OA
ATOM     33  C   UNL     1     103.062 126.139 148.375  0.00  0.00    +0.000 C 
ATOM     34  C   UNL     1     103.338 126.900 148.534  0.00  0.00    +0.000 C 
ATOM     35  C   UNL     1     103.592 125.506 148.349  0.00  0.00    +0.000 C 
ATOM     36  C   UNL     1     104.142 127.029 148.666  0.00  0.00    +0.000 C 
ATOM     37  C   UNL     1     104.396 125.635 148.482  0.00  0.00    +0.000 C 
BRANCH  36  39
ATOM     38  O   UNL     1     104.960 127.916 149.432  0.00  0.00    +0.000 OA
ATOM     39  C   UNL     1     104.416 127.791 148.824  0.00  0.00    +0.000 C 
ENDBRANCH  36  39
ENDBRANCH  28  37
ENDBRANCH   2  28
TORSDOF 8
ENDMDL
MODEL 8
REMARK VINA RESULT:      -8.2      1.705      2.844
REMARK  Name = 44259887
REMARK  8 active torsions:
REMARK  status: ('A' for Active; 'I' for Inactive)
REMARK    1  A    between atoms: O_2  and  C_19
REMARK    2  A    between atoms: O_2  and  C_21
REMARK    3  A    between atoms: O_7  and  C_23
REMARK    4  A    between atoms: O_10  and  C_28
REMARK    5  A    between atoms: O_12  and  C_34
REMARK    6  A    between atoms: O_14  and  C_35
REMARK    7  A    between atoms: C_18  and  C_20
REMARK    8  A    between atoms: C_24  and  C_27
REMARK                            x       y       z     vdW  Elec       q    Type
REMARK                         _______ _______ _______ _____ _____    ______ ____
ROOT
ATOM      1  O   UNL     1     113.708 128.344 136.366  0.00  0.00    +0.000 OA
ATOM      2  C   UNL     1     112.329 129.968 137.626  0.00  0.00    +0.000 A 
ATOM      3  C   UNL     1     112.187 129.158 137.703  0.00  0.00    +0.000 A 
ATOM      4  C   UNL     1     112.930 130.235 137.129  0.00  0.00    +0.000 A 
ATOM      5  C   UNL     1     112.647 128.617 137.283  0.00  0.00    +0.000 A 
ATOM      6  C   UNL     1     113.390 129.694 136.709  0.00  0.00    +0.000 A 
ATOM      7  C   UNL     1     113.248 128.885 136.786  0.00  0.00    +0.000 A 
ENDROOT
BRANCH   5  11
ATOM      8  O   UNL     1     112.069 127.410 136.785  0.00  0.00    +0.000 OA
ATOM      9  O   UNL     1     112.951 126.178 138.742  0.00  0.00    +0.000 OA
ATOM     10  O   UNL     1     112.378 124.945 138.262  0.00  0.00    +0.000 OA
ATOM     11  C   UNL     1     112.505 127.808 137.360  0.00  0.00    +0.000 A 
ATOM     12  C   UNL     1     112.799 127.398 138.013  0.00  0.00    +0.000 A 
ATOM     13  C   UNL     1     112.221 126.190 137.514  0.00  0.00    +0.000 A 
ATOM     14  C   UNL     1     111.926 126.600 136.862  0.00  0.00    +0.000 A 
ATOM     15  C   UNL     1     112.657 126.589 138.090  0.00  0.00    +0.000 A 
ATOM     16  C   UNL     1     112.079 125.347 137.606  0.00  0.00    +0.000 A 
ATOM     17  C   UNL     1     111.471 126.196 136.255  0.00  0.00    +0.000 A 
ATOM     18  C   UNL     1     111.626 124.926 137.010  0.00  0.00    +0.000 A 
ATOM     19  C   UNL     1     111.319 125.353 136.330  0.00  0.00    +0.000 A 
BRANCH  12  20
ATOM     20  O   UNL     1     113.235 127.796 138.588  0.00  0.00    +0.000 OA
ATOM     21  C   UNL     1     113.267 127.504 139.359  0.00  0.00    +0.000 C 
ENDBRANCH  12  20
BRANCH  18  22
ATOM     22  O   UNL     1     111.485 124.117 137.089  0.00  0.00    +0.000 OA
ATOM     23  C   UNL     1     112.070 123.574 136.880  0.00  0.00    +0.000 C 
ENDBRANCH  18  22
BRANCH  19  24
ATOM     24  O   UNL     1     110.883 124.957 135.753  0.00  0.00    +0.000 OA
ATOM     25  C   UNL     1     110.397 125.382 135.239  0.00  0.00    +0.000 C 
ENDBRANCH  19  24
ENDBRANCH   5  11
BRANCH   4  26
ATOM     26  O   UNL     1     113.072 131.045 137.052  0.00  0.00    +0.000 OA
ATOM     27  C   UNL     1     113.794 131.310 136.755  0.00  0.00    +0.000 C 
ENDBRANCH   4  26
BRANCH   2  28
ATOM     28  O   UNL     1     111.869 130.509 138.046  0.00  0.00    +0.000 OA
BRANCH  28  37
ATOM     29  O   UNL     1     110.641 130.410 137.322  0.00  0.00    +0.000 OA
ATOM     30  O   UNL     1     109.391 130.315 139.456  0.00  0.00    +0.000 OA
ATOM     31  O   UNL     1     108.580 130.248 138.022  0.00  0.00    +0.000 OA
ATOM     32  O   UNL     1     111.035 130.445 139.469  0.00  0.00    +0.000 OA
ATOM     33  C   UNL     1     109.807 130.347 138.745  0.00  0.00    +0.000 C 
ATOM     34  C   UNL     1     109.402 130.313 138.027  0.00  0.00    +0.000 C 
ATOM     35  C   UNL     1     110.630 130.412 138.751  0.00  0.00    +0.000 C 
ATOM     36  C   UNL     1     109.819 130.345 137.316  0.00  0.00    +0.000 C 
ATOM     37  C   UNL     1     111.047 130.444 138.040  0.00  0.00    +0.000 C 
BRANCH  36  39
ATOM     38  O   UNL     1     109.651 130.786 135.967  0.00  0.00    +0.000 OA
ATOM     39  C   UNL     1     109.413 130.312 136.599  0.00  0.00    +0.000 C 
ENDBRANCH  36  39
ENDBRANCH  28  37
ENDBRANCH   2  28
TORSDOF 8
ENDMDL
MODEL 9
REMARK VINA RESULT:      -8.1      1.420      2.495
REMARK  Name = 44259887
REMARK  8 active torsions:
REMARK  status: ('A' for Active; 'I' for Inactive)
REMARK    1  A    between atoms: O_2  and  C_19
REMARK    2  A    between atoms: O_2  and  C_21
REMARK    3  A    between atoms: O_7  and  C_23
REMARK    4  A    between atoms: O_10  and  C_28
REMARK    5  A    between atoms: O_12  and  C_34
REMARK    6  A    between atoms: O_14  and  C_35
REMARK    7  A    between atoms: C_18  and  C_20
REMARK    8  A    between atoms: C_24  and  C_27
REMARK                            x       y       z     vdW  Elec       q    Type
REMARK                         _______ _______ _______ _____ _____    ______ ____
ROOT
ATOM      1  O   UNL     1     110.943 129.170 136.591  0.00  0.00    +0.000 OA
ATOM      2  C   UNL     1     112.577 130.455 137.934  0.00  0.00    +0.000 A 
ATOM      3  C   UNL     1     112.651 129.635 137.868  0.00  0.00    +0.000 A 
ATOM      4  C   UNL     1     111.958 130.845 137.552  0.00  0.00    +0.000 A 
ATOM      5  C   UNL     1     112.106 129.207 137.420  0.00  0.00    +0.000 A 
ATOM      6  C   UNL     1     111.414 130.416 137.105  0.00  0.00    +0.000 A 
ATOM      7  C   UNL     1     111.488 129.598 137.039  0.00  0.00    +0.000 A 
ENDROOT
BRANCH   5  11
ATOM      8  O   UNL     1     111.723 127.893 137.830  0.00  0.00    +0.000 OA
ATOM      9  O   UNL     1     113.317 126.921 136.204  0.00  0.00    +0.000 OA
ATOM     10  O   UNL     1     112.949 125.583 136.599  0.00  0.00    +0.000 OA
ATOM     11  C   UNL     1     112.180 128.389 137.354  0.00  0.00    +0.000 A 
ATOM     12  C   UNL     1     112.712 128.064 136.812  0.00  0.00    +0.000 A 
ATOM     13  C   UNL     1     112.329 126.751 137.222  0.00  0.00    +0.000 A 
ATOM     14  C   UNL     1     111.797 127.074 137.764  0.00  0.00    +0.000 A 
ATOM     15  C   UNL     1     112.786 127.246 136.746  0.00  0.00    +0.000 A 
ATOM     16  C   UNL     1     112.415 125.898 137.144  0.00  0.00    +0.000 A 
ATOM     17  C   UNL     1     111.316 126.569 138.265  0.00  0.00    +0.000 A 
ATOM     18  C   UNL     1     111.942 125.377 137.636  0.00  0.00    +0.000 A 
ATOM     19  C   UNL     1     111.388 125.715 138.201  0.00  0.00    +0.000 A 
BRANCH  12  20
ATOM     20  O   UNL     1     113.169 128.559 136.336  0.00  0.00    +0.000 OA
ATOM     21  C   UNL     1     113.864 128.277 135.993  0.00  0.00    +0.000 C 
ENDBRANCH  12  20
BRANCH  18  22
ATOM     22  O   UNL     1     112.018 124.558 137.568  0.00  0.00    +0.000 OA
ATOM     23  C   UNL     1     111.682 124.165 136.926  0.00  0.00    +0.000 C 
ENDBRANCH  18  22
BRANCH  19  24
ATOM     24  O   UNL     1     110.930 125.222 138.679  0.00  0.00    +0.000 OA
ATOM     25  C   UNL     1     110.426 125.549 139.244  0.00  0.00    +0.000 C 
ENDBRANCH  19  24
ENDBRANCH   5  11
BRANCH   4  26
ATOM     26  O   UNL     1     111.884 131.665 137.619  0.00  0.00    +0.000 OA
ATOM     27  C   UNL     1     111.356 132.071 137.133  0.00  0.00    +0.000 C 
ENDBRANCH   4  26
BRANCH   2  28
ATOM     28  O   UNL     1     113.121 130.884 138.382  0.00  0.00    +0.000 OA
BRANCH  28  37
ATOM     29  O   UNL     1     112.688 130.553 139.703  0.00  0.00    +0.000 OA
ATOM     30  O   UNL     1     115.036 130.141 140.369  0.00  0.00    +0.000 OA
ATOM     31  O   UNL     1     113.820 129.947 141.467  0.00  0.00    +0.000 OA
ATOM     32  O   UNL     1     114.686 130.609 138.826  0.00  0.00    +0.000 OA
ATOM     33  C   UNL     1     114.253 130.278 140.147  0.00  0.00    +0.000 C 
ATOM     34  C   UNL     1     113.645 130.181 140.696  0.00  0.00    +0.000 C 
ATOM     35  C   UNL     1     114.078 130.512 139.375  0.00  0.00    +0.000 C 
ATOM     36  C   UNL     1     112.863 130.319 140.474  0.00  0.00    +0.000 C 
ATOM     37  C   UNL     1     113.296 130.650 139.153  0.00  0.00    +0.000 C 
BRANCH  36  39
ATOM     38  O   UNL     1     111.658 130.788 141.083  0.00  0.00    +0.000 OA
ATOM     39  C   UNL     1     112.255 130.222 141.023  0.00  0.00    +0.000 C 
ENDBRANCH  36  39
ENDBRANCH  28  37
ENDBRANCH   2  28
TORSDOF 8
ENDMDL
MODEL 10
REMARK VINA RESULT:      -8.1      1.953      5.038
REMARK  Name = 44259887
REMARK  8 active torsions:
REMARK  status: ('A' for Active; 'I' for Inactive)
REMARK    1  A    between atoms: O_2  and  C_19
REMARK    2  A    between atoms: O_2  and  C_21
REMARK    3  A    between atoms: O_7  and  C_23
REMARK    4  A    between atoms: O_10  and  C_28
REMARK    5  A    between atoms: O_12  and  C_34
REMARK    6  A    between atoms: O_14  and  C_35
REMARK    7  A    between atoms: C_18  and  C_20
REMARK    8  A    between atoms: C_24  and  C_27
REMARK                            x       y       z     vdW  Elec       q    Type
REMARK                         _______ _______ _______ _____ _____    ______ ____
ROOT
ATOM      1  O   UNL     1     113.410 128.923 135.644  0.00  0.00    +0.000 OA
ATOM      2  C   UNL     1     113.167 127.223 137.427  0.00  0.00    +0.000 A 
ATOM      3  C   UNL     1     112.788 127.953 137.498  0.00  0.00    +0.000 A 
ATOM      4  C   UNL     1     113.627 127.061 136.761  0.00  0.00    +0.000 A 
ATOM      5  C   UNL     1     112.869 128.519 136.904  0.00  0.00    +0.000 A 
ATOM      6  C   UNL     1     113.708 127.627 136.167  0.00  0.00    +0.000 A 
ATOM      7  C   UNL     1     113.329 128.356 136.238  0.00  0.00    +0.000 A 
ENDROOT
BRANCH   5  11
ATOM      8  O   UNL     1     111.794 129.394 136.556  0.00  0.00    +0.000 OA
ATOM      9  O   UNL     1     112.743 131.144 138.027  0.00  0.00    +0.000 OA
ATOM     10  O   UNL     1     111.669 132.048 137.693  0.00  0.00    +0.000 OA
ATOM     11  C   UNL     1     112.490 129.248 136.975  0.00  0.00    +0.000 A 
ATOM     12  C   UNL     1     112.806 129.832 137.465  0.00  0.00    +0.000 A 
ATOM     13  C   UNL     1     111.731 130.706 137.118  0.00  0.00    +0.000 A 
ATOM     14  C   UNL     1     111.414 130.123 136.627  0.00  0.00    +0.000 A 
ATOM     15  C   UNL     1     112.427 130.561 137.536  0.00  0.00    +0.000 A 
ATOM     16  C   UNL     1     111.345 131.470 137.200  0.00  0.00    +0.000 A 
ATOM     17  C   UNL     1     110.691 130.262 136.186  0.00  0.00    +0.000 A 
ATOM     18  C   UNL     1     110.620 131.628 136.766  0.00  0.00    +0.000 A 
ATOM     19  C   UNL     1     110.290 131.020 136.255  0.00  0.00    +0.000 A 
BRANCH  12  20
ATOM     20  O   UNL     1     113.501 129.686 137.884  0.00  0.00    +0.000 OA
ATOM     21  C   UNL     1     113.714 130.174 138.514  0.00  0.00    +0.000 C 
ENDBRANCH  12  20
BRANCH  18  22
ATOM     22  O   UNL     1     110.243 132.358 136.840  0.00  0.00    +0.000 OA
ATOM     23  C   UNL     1     109.771 132.515 137.498  0.00  0.00    +0.000 C 
ENDBRANCH  18  22
BRANCH  19  24
ATOM     24  O   UNL     1     109.595 131.163 135.835  0.00  0.00    +0.000 OA
ATOM     25  C   UNL     1     109.390 130.678 135.201  0.00  0.00    +0.000 C 
ENDBRANCH  19  24
ENDBRANCH   5  11
BRANCH   4  26
ATOM     26  O   UNL     1     114.006 126.331 136.690  0.00  0.00    +0.000 OA
ATOM     27  C   UNL     1     114.628 126.240 136.155  0.00  0.00    +0.000 C 
ENDBRANCH   4  26
BRANCH   2  28
ATOM     28  O   UNL     1     113.087 126.656 138.021  0.00  0.00    +0.000 OA
BRANCH  28  37
ATOM     29  O   UNL     1     111.746 126.249 137.739  0.00  0.00    +0.000 OA
ATOM     30  O   UNL     1     111.261 126.166 140.164  0.00  0.00    +0.000 OA
ATOM     31  O   UNL     1     110.083 125.787 139.074  0.00  0.00    +0.000 OA
ATOM     32  O   UNL     1     112.763 126.601 139.638  0.00  0.00    +0.000 OA
ATOM     33  C   UNL     1     111.423 126.194 139.356  0.00  0.00    +0.000 C 
ATOM     34  C   UNL     1     110.834 126.004 138.810  0.00  0.00    +0.000 C 
ATOM     35  C   UNL     1     112.174 126.411 139.092  0.00  0.00    +0.000 C 
ATOM     36  C   UNL     1     110.996 126.032 138.002  0.00  0.00    +0.000 C 
ATOM     37  C   UNL     1     112.336 126.439 138.284  0.00  0.00    +0.000 C 
BRANCH  36  39
ATOM     38  O   UNL     1     110.591 125.399 136.786  0.00  0.00    +0.000 OA
ATOM     39  C   UNL     1     110.407 125.842 137.457  0.00  0.00    +0.000 C 
ENDBRANCH  36  39
ENDBRANCH  28  37
ENDBRANCH   2  28
TORSDOF 8
ENDMDL
