MODEL 1
REMARK VINA RESULT:     -11.7      0.000      0.000
REMARK  Name = 44257947
REMARK  3 active torsions:
REMARK  status: ('A' for Active; 'I' for Inactive)
REMARK    1  A    between atoms: C_15  and  C_20
REMARK    2  A    between atoms: C_16  and  C_22
REMARK    3  A    between atoms: C_32  and  C_34
REMARK                            x       y       z     vdW  Elec       q    Type
REMARK                         _______ _______ _______ _____ _____    ______ ____
ROOT
ATOM      1  O   UNL     1     110.591 127.394 136.276  0.00  0.00    +0.000 OA
ATOM      2  O   UNL     1     110.493 130.259 135.980  0.00  0.00    +0.000 OA
ATOM      3  O   UNL     1     108.075 128.746 135.807  0.00  0.00    +0.000 OA
ATOM      4  O   UNL     1     108.081 127.310 135.950  0.00  0.00    +0.000 OA
ATOM      5  C   UNL     1     110.527 128.837 136.125  0.00  0.00    +0.000 A 
ATOM      6  C   UNL     1     109.285 129.502 135.894  0.00  0.00    +0.000 A 
ATOM      7  C   UNL     1     110.102 129.532 136.000  0.00  0.00    +0.000 A 
ATOM      8  C   UNL     1     110.136 128.111 136.145  0.00  0.00    +0.000 A 
ATOM      9  C   UNL     1     108.892 128.777 135.913  0.00  0.00    +0.000 A 
ATOM     10  C   UNL     1     109.319 128.081 136.039  0.00  0.00    +0.000 A 
ATOM     11  C   UNL     1     108.899 127.331 136.057  0.00  0.00    +0.000 A 
ATOM     12  C   UNL     1     110.188 126.635 136.298  0.00  0.00    +0.000 A 
ATOM     13  C   UNL     1     109.337 126.603 136.187  0.00  0.00    +0.000 A 
ENDROOT
BRANCH   5  18
ATOM     14  O   UNL     1     111.662 128.883 136.993  0.00  0.00    +0.000 OA
ATOM     15  O   UNL     1     111.529 128.868 134.814  0.00  0.00    +0.000 OA
ATOM     16  O   UNL     1     113.164 128.929 135.026  0.00  0.00    +0.000 OA
ATOM     17  O   UNL     1     113.798 128.959 136.549  0.00  0.00    +0.000 OA
ATOM     18  C   UNL     1     111.345 128.868 136.231  0.00  0.00    +0.000 C 
ATOM     19  C   UNL     1     111.846 128.883 135.576  0.00  0.00    +0.000 C 
ATOM     20  C   UNL     1     112.664 128.913 135.682  0.00  0.00    +0.000 C 
ATOM     21  C   UNL     1     112.980 128.929 136.443  0.00  0.00    +0.000 C 
ATOM     22  C   UNL     1     112.480 128.913 137.099  0.00  0.00    +0.000 C 
ENDBRANCH   5  18
BRANCH   6  27
ATOM     23  O   UNL     1     108.759 130.487 135.002  0.00  0.00    +0.000 OA
ATOM     24  O   UNL     1     108.632 130.312 137.174  0.00  0.00    +0.000 OA
ATOM     25  O   UNL     1     107.780 131.703 136.923  0.00  0.00    +0.000 OA
ATOM     26  O   UNL     1     107.581 132.283 135.391  0.00  0.00    +0.000 OA
ATOM     27  C   UNL     1     108.858 130.198 135.768  0.00  0.00    +0.000 C 
ATOM     28  C   UNL     1     108.532 130.603 136.408  0.00  0.00    +0.000 C 
ATOM     29  C   UNL     1     108.106 131.298 136.282  0.00  0.00    +0.000 C 
ATOM     30  C   UNL     1     108.007 131.588 135.517  0.00  0.00    +0.000 C 
ATOM     31  C   UNL     1     108.333 131.182 134.877  0.00  0.00    +0.000 C 
ENDBRANCH   6  27
BRANCH  12  34
ATOM     32  O   UNL     1     111.359 124.740 138.087  0.00  0.00    +0.000 OA
ATOM     33  O   UNL     1     111.901 123.860 136.802  0.00  0.00    +0.000 OA
ATOM     34  C   UNL     1     110.617 125.941 136.423  0.00  0.00    +0.000 A 
ATOM     35  C   UNL     1     110.774 125.687 137.192  0.00  0.00    +0.000 A 
ATOM     36  C   UNL     1     110.888 125.501 135.780  0.00  0.00    +0.000 A 
ATOM     37  C   UNL     1     111.202 124.994 137.318  0.00  0.00    +0.000 A 
ATOM     38  C   UNL     1     111.316 124.807 135.907  0.00  0.00    +0.000 A 
ATOM     39  C   UNL     1     111.473 124.553 136.676  0.00  0.00    +0.000 A 
ENDBRANCH  12  34
TORSDOF 3
ENDMDL
MODEL 2
REMARK VINA RESULT:     -11.1      3.164      5.151
REMARK  Name = 44257947
REMARK  3 active torsions:
REMARK  status: ('A' for Active; 'I' for Inactive)
REMARK    1  A    between atoms: C_15  and  C_20
REMARK    2  A    between atoms: C_16  and  C_22
REMARK    3  A    between atoms: C_32  and  C_34
REMARK                            x       y       z     vdW  Elec       q    Type
REMARK                         _______ _______ _______ _____ _____    ______ ____
ROOT
ATOM      1  O   UNL     1     113.294 127.311 138.425  0.00  0.00    +0.000 OA
ATOM      2  O   UNL     1     112.913 130.084 139.109  0.00  0.00    +0.000 OA
ATOM      3  O   UNL     1     113.872 128.266 141.096  0.00  0.00    +0.000 OA
ATOM      4  O   UNL     1     114.076 126.870 140.792  0.00  0.00    +0.000 OA
ATOM      5  C   UNL     1     113.107 128.706 138.783  0.00  0.00    +0.000 A 
ATOM      6  C   UNL     1     113.393 129.175 140.102  0.00  0.00    +0.000 A 
ATOM      7  C   UNL     1     113.137 129.321 139.331  0.00  0.00    +0.000 A 
ATOM      8  C   UNL     1     113.331 127.943 139.005  0.00  0.00    +0.000 A 
ATOM      9  C   UNL     1     113.617 128.413 140.325  0.00  0.00    +0.000 A 
ATOM     10  C   UNL     1     113.586 127.797 139.776  0.00  0.00    +0.000 A 
ATOM     11  C   UNL     1     113.822 127.008 140.020  0.00  0.00    +0.000 A 
ATOM     12  C   UNL     1     113.527 126.515 138.650  0.00  0.00    +0.000 A 
ATOM     13  C   UNL     1     113.792 126.362 139.453  0.00  0.00    +0.000 A 
ENDROOT
BRANCH   5  18
ATOM     14  O   UNL     1     113.403 128.992 137.414  0.00  0.00    +0.000 OA
ATOM     15  O   UNL     1     111.494 128.720 138.437  0.00  0.00    +0.000 OA
ATOM     16  O   UNL     1     110.983 129.013 136.895  0.00  0.00    +0.000 OA
ATOM     17  O   UNL     1     112.086 129.292 135.700  0.00  0.00    +0.000 OA
ATOM     18  C   UNL     1     112.852 128.853 138.013  0.00  0.00    +0.000 C 
ATOM     19  C   UNL     1     112.045 128.860 137.839  0.00  0.00    +0.000 C 
ATOM     20  C   UNL     1     111.790 129.006 137.068  0.00  0.00    +0.000 C 
ATOM     21  C   UNL     1     112.341 129.146 136.471  0.00  0.00    +0.000 C 
ATOM     22  C   UNL     1     113.148 129.139 136.644  0.00  0.00    +0.000 C 
ENDBRANCH   5  18
BRANCH   6  27
ATOM     23  O   UNL     1     112.779 129.934 141.145  0.00  0.00    +0.000 OA
ATOM     24  O   UNL     1     114.743 130.117 140.210  0.00  0.00    +0.000 OA
ATOM     25  O   UNL     1     114.804 131.348 141.307  0.00  0.00    +0.000 OA
ATOM     26  O   UNL     1     113.515 131.636 142.296  0.00  0.00    +0.000 OA
ATOM     27  C   UNL     1     113.423 129.791 140.651  0.00  0.00    +0.000 C 
ATOM     28  C   UNL     1     114.099 130.262 140.705  0.00  0.00    +0.000 C 
ATOM     29  C   UNL     1     114.129 130.877 141.253  0.00  0.00    +0.000 C 
ATOM     30  C   UNL     1     113.485 131.021 141.747  0.00  0.00    +0.000 C 
ATOM     31  C   UNL     1     112.810 130.550 141.693  0.00  0.00    +0.000 C 
ENDBRANCH   6  27
BRANCH  12  34
ATOM     32  O   UNL     1     112.036 124.510 137.264  0.00  0.00    +0.000 OA
ATOM     33  O   UNL     1     113.398 124.060 136.449  0.00  0.00    +0.000 OA
ATOM     34  C   UNL     1     113.495 125.901 138.100  0.00  0.00    +0.000 A 
ATOM     35  C   UNL     1     112.782 125.512 137.957  0.00  0.00    +0.000 A 
ATOM     36  C   UNL     1     114.177 125.676 137.693  0.00  0.00    +0.000 A 
ATOM     37  C   UNL     1     112.749 124.899 137.407  0.00  0.00    +0.000 A 
ATOM     38  C   UNL     1     114.144 125.062 137.142  0.00  0.00    +0.000 A 
ATOM     39  C   UNL     1     113.431 124.673 136.999  0.00  0.00    +0.000 A 
ENDBRANCH  12  34
TORSDOF 3
ENDMDL
MODEL 3
REMARK VINA RESULT:     -11.0      2.887      6.084
REMARK  Name = 44257947
REMARK  3 active torsions:
REMARK  status: ('A' for Active; 'I' for Inactive)
REMARK    1  A    between atoms: C_15  and  C_20
REMARK    2  A    between atoms: C_16  and  C_22
REMARK    3  A    between atoms: C_32  and  C_34
REMARK                            x       y       z     vdW  Elec       q    Type
REMARK                         _______ _______ _______ _____ _____    ______ ____
ROOT
ATOM      1  O   UNL     1     113.467 128.827 139.388  0.00  0.00    +0.000 OA
ATOM      2  O   UNL     1     112.296 127.362 137.201  0.00  0.00    +0.000 OA
ATOM      3  O   UNL     1     113.031 125.973 139.589  0.00  0.00    +0.000 OA
ATOM      4  O   UNL     1     113.620 126.671 140.706  0.00  0.00    +0.000 OA
ATOM      5  C   UNL     1     112.878 128.076 138.294  0.00  0.00    +0.000 A 
ATOM      6  C   UNL     1     112.664 126.668 138.395  0.00  0.00    +0.000 A 
ATOM      7  C   UNL     1     112.613 127.369 137.964  0.00  0.00    +0.000 A 
ATOM      8  C   UNL     1     113.194 128.084 139.056  0.00  0.00    +0.000 A 
ATOM      9  C   UNL     1     112.980 126.674 139.157  0.00  0.00    +0.000 A 
ATOM     10  C   UNL     1     113.245 127.383 139.487  0.00  0.00    +0.000 A 
ATOM     11  C   UNL     1     113.573 127.376 140.281  0.00  0.00    +0.000 A 
ATOM     12  C   UNL     1     113.798 128.841 140.182  0.00  0.00    +0.000 A 
ATOM     13  C   UNL     1     113.851 128.111 140.631  0.00  0.00    +0.000 A 
ENDROOT
BRANCH   5  18
ATOM     14  O   UNL     1     113.476 129.042 137.426  0.00  0.00    +0.000 OA
ATOM     15  O   UNL     1     111.478 128.950 138.302  0.00  0.00    +0.000 OA
ATOM     16  O   UNL     1     111.376 130.353 137.438  0.00  0.00    +0.000 OA
ATOM     17  O   UNL     1     112.674 130.881 136.567  0.00  0.00    +0.000 OA
ATOM     18  C   UNL     1     112.827 128.778 137.862  0.00  0.00    +0.000 C 
ATOM     19  C   UNL     1     112.128 129.215 137.866  0.00  0.00    +0.000 C 
ATOM     20  C   UNL     1     112.077 129.916 137.434  0.00  0.00    +0.000 C 
ATOM     21  C   UNL     1     112.725 130.180 136.999  0.00  0.00    +0.000 C 
ATOM     22  C   UNL     1     113.425 129.744 136.994  0.00  0.00    +0.000 C 
ENDBRANCH   5  18
BRANCH   6  27
ATOM     23  O   UNL     1     111.617 125.719 138.179  0.00  0.00    +0.000 OA
ATOM     24  O   UNL     1     113.694 125.735 137.506  0.00  0.00    +0.000 OA
ATOM     25  O   UNL     1     113.163 124.319 136.846  0.00  0.00    +0.000 OA
ATOM     26  O   UNL     1     111.601 123.836 137.075  0.00  0.00    +0.000 OA
ATOM     27  C   UNL     1     112.398 125.959 138.065  0.00  0.00    +0.000 C 
ATOM     28  C   UNL     1     112.913 125.493 137.620  0.00  0.00    +0.000 C 
ATOM     29  C   UNL     1     112.647 124.785 137.291  0.00  0.00    +0.000 C 
ATOM     30  C   UNL     1     111.867 124.544 137.405  0.00  0.00    +0.000 C 
ATOM     31  C   UNL     1     111.352 125.011 137.849  0.00  0.00    +0.000 C 
ENDBRANCH   6  27
BRANCH  12  34
ATOM     32  O   UNL     1     113.319 131.154 141.790  0.00  0.00    +0.000 OA
ATOM     33  O   UNL     1     114.855 131.678 141.494  0.00  0.00    +0.000 OA
ATOM     34  C   UNL     1     114.063 129.550 140.510  0.00  0.00    +0.000 A 
ATOM     35  C   UNL     1     113.559 129.998 140.986  0.00  0.00    +0.000 A 
ATOM     36  C   UNL     1     114.831 129.812 140.361  0.00  0.00    +0.000 A 
ATOM     37  C   UNL     1     113.823 130.706 141.314  0.00  0.00    +0.000 A 
ATOM     38  C   UNL     1     115.095 130.522 140.690  0.00  0.00    +0.000 A 
ATOM     39  C   UNL     1     114.591 130.969 141.166  0.00  0.00    +0.000 A 
ENDBRANCH  12  34
TORSDOF 3
ENDMDL
MODEL 4
REMARK VINA RESULT:     -11.0      1.282      1.835
REMARK  Name = 44257947
REMARK  3 active torsions:
REMARK  status: ('A' for Active; 'I' for Inactive)
REMARK    1  A    between atoms: C_15  and  C_20
REMARK    2  A    between atoms: C_16  and  C_22
REMARK    3  A    between atoms: C_32  and  C_34
REMARK                            x       y       z     vdW  Elec       q    Type
REMARK                         _______ _______ _______ _____ _____    ______ ____
ROOT
ATOM      1  O   UNL     1     111.502 126.576 136.697  0.00  0.00    +0.000 OA
ATOM      2  O   UNL     1     110.660 129.310 137.041  0.00  0.00    +0.000 OA
ATOM      3  O   UNL     1     109.675 127.806 134.819  0.00  0.00    +0.000 OA
ATOM      4  O   UNL     1     110.073 126.434 134.612  0.00  0.00    +0.000 OA
ATOM      5  C   UNL     1     111.070 127.953 136.859  0.00  0.00    +0.000 A 
ATOM      6  C   UNL     1     110.168 128.558 135.930  0.00  0.00    +0.000 A 
ATOM      7  C   UNL     1     110.633 128.607 136.610  0.00  0.00    +0.000 A 
ATOM      8  C   UNL     1     111.042 127.250 136.428  0.00  0.00    +0.000 A 
ATOM      9  C   UNL     1     110.140 127.855 135.499  0.00  0.00    +0.000 A 
ATOM     10  C   UNL     1     110.578 127.201 135.748  0.00  0.00    +0.000 A 
ATOM     11  C   UNL     1     110.540 126.475 135.291  0.00  0.00    +0.000 A 
ATOM     12  C   UNL     1     111.478 125.841 136.252  0.00  0.00    +0.000 A 
ATOM     13  C   UNL     1     110.994 125.790 135.545  0.00  0.00    +0.000 A 
ENDROOT
BRANCH   5  18
ATOM     14  O   UNL     1     111.241 127.729 138.260  0.00  0.00    +0.000 OA
ATOM     15  O   UNL     1     112.587 128.597 136.776  0.00  0.00    +0.000 OA
ATOM     16  O   UNL     1     113.516 128.695 138.136  0.00  0.00    +0.000 OA
ATOM     17  O   UNL     1     112.929 128.149 139.578  0.00  0.00    +0.000 OA
ATOM     18  C   UNL     1     111.534 128.002 137.538  0.00  0.00    +0.000 C 
ATOM     19  C   UNL     1     112.293 128.324 137.498  0.00  0.00    +0.000 C 
ATOM     20  C   UNL     1     112.758 128.373 138.178  0.00  0.00    +0.000 C 
ATOM     21  C   UNL     1     112.464 128.100 138.898  0.00  0.00    +0.000 C 
ATOM     22  C   UNL     1     111.706 127.778 138.940  0.00  0.00    +0.000 C 
ENDBRANCH   5  18
BRANCH   6  27
ATOM     23  O   UNL     1     110.061 129.751 135.152  0.00  0.00    +0.000 OA
ATOM     24  O   UNL     1     108.633 128.786 136.492  0.00  0.00    +0.000 OA
ATOM     25  O   UNL     1     107.759 130.094 135.994  0.00  0.00    +0.000 OA
ATOM     26  O   UNL     1     108.419 131.173 134.934  0.00  0.00    +0.000 OA
ATOM     27  C   UNL     1     109.730 129.212 135.681  0.00  0.00    +0.000 C 
ATOM     28  C   UNL     1     108.963 129.326 135.962  0.00  0.00    +0.000 C 
ATOM     29  C   UNL     1     108.526 129.980 135.713  0.00  0.00    +0.000 C 
ATOM     30  C   UNL     1     108.856 130.519 135.184  0.00  0.00    +0.000 C 
ATOM     31  C   UNL     1     109.623 130.405 134.903  0.00  0.00    +0.000 C 
ENDBRANCH   6  27
BRANCH  12  34
ATOM     32  O   UNL     1     111.644 123.378 137.691  0.00  0.00    +0.000 OA
ATOM     33  O   UNL     1     113.229 123.231 137.257  0.00  0.00    +0.000 OA
ATOM     34  C   UNL     1     111.916 125.188 136.504  0.00  0.00    +0.000 A 
ATOM     35  C   UNL     1     111.561 124.609 136.972  0.00  0.00    +0.000 A 
ATOM     36  C   UNL     1     112.708 125.115 136.286  0.00  0.00    +0.000 A 
ATOM     37  C   UNL     1     111.999 123.957 137.223  0.00  0.00    +0.000 A 
ATOM     38  C   UNL     1     113.146 124.462 136.538  0.00  0.00    +0.000 A 
ATOM     39  C   UNL     1     112.792 123.883 137.006  0.00  0.00    +0.000 A 
ENDBRANCH  12  34
TORSDOF 3
ENDMDL
MODEL 5
REMARK VINA RESULT:     -10.9      1.267      5.042
REMARK  Name = 44257947
REMARK  3 active torsions:
REMARK  status: ('A' for Active; 'I' for Inactive)
REMARK    1  A    between atoms: C_15  and  C_20
REMARK    2  A    between atoms: C_16  and  C_22
REMARK    3  A    between atoms: C_32  and  C_34
REMARK                            x       y       z     vdW  Elec       q    Type
REMARK                         _______ _______ _______ _____ _____    ______ ____
ROOT
ATOM      1  O   UNL     1     110.497 128.397 136.052  0.00  0.00    +0.000 OA
ATOM      2  O   UNL     1     112.353 126.765 137.532  0.00  0.00    +0.000 OA
ATOM      3  O   UNL     1     110.874 125.607 135.378  0.00  0.00    +0.000 OA
ATOM      4  O   UNL     1     109.935 126.391 134.612  0.00  0.00    +0.000 OA
ATOM      5  C   UNL     1     111.429 127.563 136.790  0.00  0.00    +0.000 A 
ATOM      6  C   UNL     1     111.613 126.187 136.455  0.00  0.00    +0.000 A 
ATOM      7  C   UNL     1     111.798 126.839 136.926  0.00  0.00    +0.000 A 
ATOM      8  C   UNL     1     110.874 127.637 136.183  0.00  0.00    +0.000 A 
ATOM      9  C   UNL     1     111.059 126.259 135.849  0.00  0.00    +0.000 A 
ATOM     10  C   UNL     1     110.689 126.985 135.713  0.00  0.00    +0.000 A 
ATOM     11  C   UNL     1     110.114 127.048 135.078  0.00  0.00    +0.000 A 
ATOM     12  C   UNL     1     109.918 128.480 135.421  0.00  0.00    +0.000 A 
ATOM     13  C   UNL     1     109.725 127.801 134.931  0.00  0.00    +0.000 A 
ENDROOT
BRANCH   5  18
ATOM     14  O   UNL     1     111.144 128.399 137.914  0.00  0.00    +0.000 OA
ATOM     15  O   UNL     1     112.738 128.499 136.424  0.00  0.00    +0.000 OA
ATOM     16  O   UNL     1     113.108 129.803 137.365  0.00  0.00    +0.000 OA
ATOM     17  O   UNL     1     112.169 130.171 138.672  0.00  0.00    +0.000 OA
ATOM     18  C   UNL     1     111.614 128.215 137.260  0.00  0.00    +0.000 C 
ATOM     19  C   UNL     1     112.268 128.683 137.078  0.00  0.00    +0.000 C 
ATOM     20  C   UNL     1     112.453 129.335 137.549  0.00  0.00    +0.000 C 
ATOM     21  C   UNL     1     111.984 129.519 138.201  0.00  0.00    +0.000 C 
ATOM     22  C   UNL     1     111.329 129.051 138.384  0.00  0.00    +0.000 C 
ENDBRANCH   5  18
BRANCH   6  27
ATOM     23  O   UNL     1     112.695 125.284 136.213  0.00  0.00    +0.000 OA
ATOM     24  O   UNL     1     110.929 125.091 137.482  0.00  0.00    +0.000 OA
ATOM     25  O   UNL     1     111.668 123.641 137.753  0.00  0.00    +0.000 OA
ATOM     26  O   UNL     1     113.092 123.287 136.998  0.00  0.00    +0.000 OA
ATOM     27  C   UNL     1     111.983 125.461 136.591  0.00  0.00    +0.000 C 
ATOM     28  C   UNL     1     111.641 124.913 137.104  0.00  0.00    +0.000 C 
ATOM     29  C   UNL     1     112.010 124.189 137.240  0.00  0.00    +0.000 C 
ATOM     30  C   UNL     1     112.721 124.012 136.863  0.00  0.00    +0.000 C 
ATOM     31  C   UNL     1     113.064 124.559 136.349  0.00  0.00    +0.000 C 
ENDBRANCH   6  27
BRANCH  12  34
ATOM     32  O   UNL     1     107.802 130.319 135.971  0.00  0.00    +0.000 OA
ATOM     33  O   UNL     1     108.445 131.384 134.887  0.00  0.00    +0.000 OA
ATOM     34  C   UNL     1     109.550 129.206 135.288  0.00  0.00    +0.000 A 
ATOM     35  C   UNL     1     108.860 129.400 135.696  0.00  0.00    +0.000 A 
ATOM     36  C   UNL     1     109.872 129.738 134.745  0.00  0.00    +0.000 A 
ATOM     37  C   UNL     1     108.492 130.125 135.563  0.00  0.00    +0.000 A 
ATOM     38  C   UNL     1     109.503 130.464 134.612  0.00  0.00    +0.000 A 
ATOM     39  C   UNL     1     108.813 130.658 135.021  0.00  0.00    +0.000 A 
ENDBRANCH  12  34
TORSDOF 3
ENDMDL
MODEL 6
REMARK VINA RESULT:     -10.8      2.123      5.526
REMARK  Name = 44257947
REMARK  3 active torsions:
REMARK  status: ('A' for Active; 'I' for Inactive)
REMARK    1  A    between atoms: C_15  and  C_20
REMARK    2  A    between atoms: C_16  and  C_22
REMARK    3  A    between atoms: C_32  and  C_34
REMARK                            x       y       z     vdW  Elec       q    Type
REMARK                         _______ _______ _______ _____ _____    ______ ____
ROOT
ATOM      1  O   UNL     1     109.661 130.974 136.392  0.00  0.00    +0.000 OA
ATOM      2  O   UNL     1     111.791 129.274 137.327  0.00  0.00    +0.000 OA
ATOM      3  O   UNL     1     111.726 132.016 138.132  0.00  0.00    +0.000 OA
ATOM      4  O   UNL     1     110.676 132.900 137.685  0.00  0.00    +0.000 OA
ATOM      5  C   UNL     1     110.740 130.129 136.871  0.00  0.00    +0.000 A 
ATOM      6  C   UNL     1     111.758 130.645 137.729  0.00  0.00    +0.000 A 
ATOM      7  C   UNL     1     111.430 130.016 137.309  0.00  0.00    +0.000 A 
ATOM      8  C   UNL     1     110.379 130.870 136.852  0.00  0.00    +0.000 A 
ATOM      9  C   UNL     1     111.398 131.387 137.712  0.00  0.00    +0.000 A 
ATOM     10  C   UNL     1     110.707 131.499 137.273  0.00  0.00    +0.000 A 
ATOM     11  C   UNL     1     110.341 132.276 137.262  0.00  0.00    +0.000 A 
ATOM     12  C   UNL     1     109.280 131.745 136.369  0.00  0.00    +0.000 A 
ATOM     13  C   UNL     1     109.622 132.400 136.807  0.00  0.00    +0.000 A 
ENDROOT
BRANCH   5  18
ATOM     14  O   UNL     1     110.576 129.410 135.646  0.00  0.00    +0.000 OA
ATOM     15  O   UNL     1     109.755 129.049 137.637  0.00  0.00    +0.000 OA
ATOM     16  O   UNL     1     109.098 127.791 136.796  0.00  0.00    +0.000 OA
ATOM     17  O   UNL     1     109.426 127.612 135.188  0.00  0.00    +0.000 OA
ATOM     18  C   UNL     1     110.412 129.500 136.450  0.00  0.00    +0.000 C 
ATOM     19  C   UNL     1     109.919 128.960 136.832  0.00  0.00    +0.000 C 
ATOM     20  C   UNL     1     109.591 128.331 136.412  0.00  0.00    +0.000 C 
ATOM     21  C   UNL     1     109.754 128.241 135.609  0.00  0.00    +0.000 C 
ATOM     22  C   UNL     1     110.247 128.781 135.225  0.00  0.00    +0.000 C 
ENDBRANCH   5  18
BRANCH   6  27
ATOM     23  O   UNL     1     112.401 130.304 138.959  0.00  0.00    +0.000 OA
ATOM     24  O   UNL     1     113.232 130.878 137.024  0.00  0.00    +0.000 OA
ATOM     25  O   UNL     1     114.611 130.654 137.902  0.00  0.00    +0.000 OA
ATOM     26  O   UNL     1     114.516 130.196 139.484  0.00  0.00    +0.000 OA
ATOM     27  C   UNL     1     112.448 130.533 138.168  0.00  0.00    +0.000 C 
ATOM     28  C   UNL     1     113.185 130.649 137.816  0.00  0.00    +0.000 C 
ATOM     29  C   UNL     1     113.874 130.537 138.254  0.00  0.00    +0.000 C 
ATOM     30  C   UNL     1     113.827 130.308 139.045  0.00  0.00    +0.000 C 
ATOM     31  C   UNL     1     113.090 130.191 139.397  0.00  0.00    +0.000 C 
ENDBRANCH   6  27
BRANCH  12  34
ATOM     32  O   UNL     1     106.446 131.488 136.107  0.00  0.00    +0.000 OA
ATOM     33  O   UNL     1     106.521 132.183 134.613  0.00  0.00    +0.000 OA
ATOM     34  C   UNL     1     108.591 131.854 135.930  0.00  0.00    +0.000 A 
ATOM     35  C   UNL     1     107.863 131.617 136.238  0.00  0.00    +0.000 A 
ATOM     36  C   UNL     1     108.628 132.202 135.182  0.00  0.00    +0.000 A 
ATOM     37  C   UNL     1     107.174 131.726 135.799  0.00  0.00    +0.000 A 
ATOM     38  C   UNL     1     107.938 132.312 134.743  0.00  0.00    +0.000 A 
ATOM     39  C   UNL     1     107.210 132.074 135.051  0.00  0.00    +0.000 A 
ENDBRANCH  12  34
TORSDOF 3
ENDMDL
MODEL 7
REMARK VINA RESULT:     -10.6      1.581      2.309
REMARK  Name = 44257947
REMARK  3 active torsions:
REMARK  status: ('A' for Active; 'I' for Inactive)
REMARK    1  A    between atoms: C_15  and  C_20
REMARK    2  A    between atoms: C_16  and  C_22
REMARK    3  A    between atoms: C_32  and  C_34
REMARK                            x       y       z     vdW  Elec       q    Type
REMARK                         _______ _______ _______ _____ _____    ______ ____
ROOT
ATOM      1  O   UNL     1     112.465 127.432 136.967  0.00  0.00    +0.000 OA
ATOM      2  O   UNL     1     111.319 129.963 136.206  0.00  0.00    +0.000 OA
ATOM      3  O   UNL     1     109.695 128.036 137.554  0.00  0.00    +0.000 OA
ATOM      4  O   UNL     1     110.232 126.756 137.952  0.00  0.00    +0.000 OA
ATOM      5  C   UNL     1     111.875 128.704 136.589  0.00  0.00    +0.000 A 
ATOM      6  C   UNL     1     110.508 128.999 136.880  0.00  0.00    +0.000 A 
ATOM      7  C   UNL     1     111.234 129.222 136.559  0.00  0.00    +0.000 A 
ATOM      8  C   UNL     1     111.790 127.962 136.942  0.00  0.00    +0.000 A 
ATOM      9  C   UNL     1     110.422 128.259 137.233  0.00  0.00    +0.000 A 
ATOM     10  C   UNL     1     111.063 127.740 137.263  0.00  0.00    +0.000 A 
ATOM     11  C   UNL     1     110.961 126.971 137.633  0.00  0.00    +0.000 A 
ATOM     12  C   UNL     1     112.382 126.658 137.333  0.00  0.00    +0.000 A 
ATOM     13  C   UNL     1     111.626 126.426 137.668  0.00  0.00    +0.000 A 
ENDROOT
BRANCH   5  18
ATOM     14  O   UNL     1     112.801 128.695 135.501  0.00  0.00    +0.000 OA
ATOM     15  O   UNL     1     112.927 129.611 137.479  0.00  0.00    +0.000 OA
ATOM     16  O   UNL     1     114.380 130.056 136.836  0.00  0.00    +0.000 OA
ATOM     17  O   UNL     1     114.780 129.594 135.303  0.00  0.00    +0.000 OA
ATOM     18  C   UNL     1     112.601 128.926 136.268  0.00  0.00    +0.000 C 
ATOM     19  C   UNL     1     113.128 129.380 136.712  0.00  0.00    +0.000 C 
ATOM     20  C   UNL     1     113.854 129.602 136.390  0.00  0.00    +0.000 C 
ATOM     21  C   UNL     1     114.054 129.371 135.625  0.00  0.00    +0.000 C 
ATOM     22  C   UNL     1     113.528 128.917 135.179  0.00  0.00    +0.000 C 
ENDBRANCH   5  18
BRANCH   6  27
ATOM     23  O   UNL     1     109.737 130.050 137.467  0.00  0.00    +0.000 OA
ATOM     24  O   UNL     1     109.486 128.972 135.585  0.00  0.00    +0.000 OA
ATOM     25  O   UNL     1     108.204 130.009 135.524  0.00  0.00    +0.000 OA
ATOM     26  O   UNL     1     107.944 131.073 136.758  0.00  0.00    +0.000 OA
ATOM     27  C   UNL     1     109.866 129.518 136.849  0.00  0.00    +0.000 C 
ATOM     28  C   UNL     1     109.355 129.504 136.202  0.00  0.00    +0.000 C 
ATOM     29  C   UNL     1     108.715 130.023 136.172  0.00  0.00    +0.000 C 
ATOM     30  C   UNL     1     108.585 130.554 136.788  0.00  0.00    +0.000 C 
ATOM     31  C   UNL     1     109.096 130.568 137.435  0.00  0.00    +0.000 C 
ENDBRANCH   6  27
BRANCH  12  34
ATOM     32  O   UNL     1     113.930 124.565 136.155  0.00  0.00    +0.000 OA
ATOM     33  O   UNL     1     114.952 124.591 137.450  0.00  0.00    +0.000 OA
ATOM     34  C   UNL     1     113.025 126.141 137.363  0.00  0.00    +0.000 A 
ATOM     35  C   UNL     1     113.156 125.611 136.744  0.00  0.00    +0.000 A 
ATOM     36  C   UNL     1     113.535 126.155 138.011  0.00  0.00    +0.000 A 
ATOM     37  C   UNL     1     113.798 125.095 136.773  0.00  0.00    +0.000 A 
ATOM     38  C   UNL     1     114.178 125.637 138.039  0.00  0.00    +0.000 A 
ATOM     39  C   UNL     1     114.310 125.108 137.421  0.00  0.00    +0.000 A 
ENDBRANCH  12  34
TORSDOF 3
ENDMDL
MODEL 8
REMARK VINA RESULT:     -10.5      1.867      3.187
REMARK  Name = 44257947
REMARK  3 active torsions:
REMARK  status: ('A' for Active; 'I' for Inactive)
REMARK    1  A    between atoms: C_15  and  C_20
REMARK    2  A    between atoms: C_16  and  C_22
REMARK    3  A    between atoms: C_32  and  C_34
REMARK                            x       y       z     vdW  Elec       q    Type
REMARK                         _______ _______ _______ _____ _____    ______ ____
ROOT
ATOM      1  O   UNL     1     111.838 126.813 137.378  0.00  0.00    +0.000 OA
ATOM      2  O   UNL     1     109.418 128.226 138.048  0.00  0.00    +0.000 OA
ATOM      3  O   UNL     1     110.999 129.118 135.840  0.00  0.00    +0.000 OA
ATOM      4  O   UNL     1     112.217 128.437 135.473  0.00  0.00    +0.000 OA
ATOM      5  C   UNL     1     110.620 127.534 137.705  0.00  0.00    +0.000 A 
ATOM      6  C   UNL     1     110.209 128.671 136.944  0.00  0.00    +0.000 A 
ATOM      7  C   UNL     1     110.082 128.144 137.566  0.00  0.00    +0.000 A 
ATOM      8  C   UNL     1     111.285 127.452 137.223  0.00  0.00    +0.000 A 
ATOM      9  C   UNL     1     110.873 128.590 136.462  0.00  0.00    +0.000 A 
ATOM     10  C   UNL     1     111.411 127.980 136.601  0.00  0.00    +0.000 A 
ATOM     11  C   UNL     1     112.099 127.905 136.092  0.00  0.00    +0.000 A 
ATOM     12  C   UNL     1     112.532 126.722 136.879  0.00  0.00    +0.000 A 
ATOM     13  C   UNL     1     112.663 127.272 136.231  0.00  0.00    +0.000 A 
ENDROOT
BRANCH   5  18
ATOM     14  O   UNL     1     110.117 126.286 138.186  0.00  0.00    +0.000 OA
ATOM     15  O   UNL     1     111.121 127.920 139.229  0.00  0.00    +0.000 OA
ATOM     16  O   UNL     1     110.869 126.864 140.472  0.00  0.00    +0.000 OA
ATOM     17  O   UNL     1     110.116 125.423 140.190  0.00  0.00    +0.000 OA
ATOM     18  C   UNL     1     110.494 127.007 138.326  0.00  0.00    +0.000 C 
ATOM     19  C   UNL     1     110.744 127.199 139.088  0.00  0.00    +0.000 C 
ATOM     20  C   UNL     1     110.618 126.671 139.710  0.00  0.00    +0.000 C 
ATOM     21  C   UNL     1     110.242 125.951 139.569  0.00  0.00    +0.000 C 
ATOM     22  C   UNL     1     109.991 125.758 138.807  0.00  0.00    +0.000 C 
ENDBRANCH   5  18
BRANCH   6  27
ATOM     23  O   UNL     1     109.771 130.012 137.174  0.00  0.00    +0.000 OA
ATOM     24  O   UNL     1     108.931 128.429 135.929  0.00  0.00    +0.000 OA
ATOM     25  O   UNL     1     107.855 129.649 135.651  0.00  0.00    +0.000 OA
ATOM     26  O   UNL     1     108.057 131.111 136.388  0.00  0.00    +0.000 OA
ATOM     27  C   UNL     1     109.670 129.282 136.805  0.00  0.00    +0.000 C 
ATOM     28  C   UNL     1     109.031 129.160 136.297  0.00  0.00    +0.000 C 
ATOM     29  C   UNL     1     108.494 129.770 136.158  0.00  0.00    +0.000 C 
ATOM     30  C   UNL     1     108.594 130.500 136.527  0.00  0.00    +0.000 C 
ATOM     31  C   UNL     1     109.233 130.622 137.035  0.00  0.00    +0.000 C 
ENDBRANCH   6  27
BRANCH  12  34
ATOM     32  O   UNL     1     113.406 124.041 136.419  0.00  0.00    +0.000 OA
ATOM     33  O   UNL     1     114.677 124.280 137.443  0.00  0.00    +0.000 OA
ATOM     34  C   UNL     1     113.068 126.112 137.020  0.00  0.00    +0.000 A 
ATOM     35  C   UNL     1     112.969 125.382 136.649  0.00  0.00    +0.000 A 
ATOM     36  C   UNL     1     113.704 126.231 137.532  0.00  0.00    +0.000 A 
ATOM     37  C   UNL     1     113.505 124.771 136.790  0.00  0.00    +0.000 A 
ATOM     38  C   UNL     1     114.240 125.620 137.673  0.00  0.00    +0.000 A 
ATOM     39  C   UNL     1     114.141 124.890 137.302  0.00  0.00    +0.000 A 
ENDBRANCH  12  34
TORSDOF 3
ENDMDL
