MODEL 1
REMARK VINA RESULT:      -9.5      0.000      0.000
REMARK  Name = 
REMARK  6 active torsions:
REMARK  status: ('A' for Active; 'I' for Inactive)
REMARK    1  A    between atoms: O_2  and  C_14
REMARK    2  A    between atoms: O_2  and  C_21
REMARK    3  A    between atoms: O_3  and  C_12
REMARK    4  A    between atoms: O_3  and  C_27
REMARK    5  A    between atoms: C_20  and  C_23
REMARK    6  A    between atoms: C_27  and  C_31
REMARK                            x       y       z     vdW  Elec       q    Type
REMARK                         _______ _______ _______ _____ _____    ______ ____
ROOT
ATOM      1  O   UNL     1     106.155 126.765 141.903  0.00  0.00    +0.000 OA
ENDROOT
BRANCH   1   8
ATOM      2  O   UNL     1     104.131 129.253 143.282  0.00  0.00    +0.000 OA
ATOM      3  O   UNL     1     106.260 127.384 145.293  0.00  0.00    +0.000 OA
ATOM      4  C   UNL     1     104.783 128.193 141.641  0.00  0.00    +0.000 C 
ATOM      5  C   UNL     1     104.071 128.937 141.519  0.00  0.00    +0.000 C 
ATOM      6  C   UNL     1     105.157 127.993 142.587  0.00  0.00    +0.000 A 
ATOM      7  C   UNL     1     103.743 129.471 142.346  0.00  0.00    +0.000 C 
ATOM      8  C   UNL     1     105.840 127.278 142.697  0.00  0.00    +0.000 A 
ATOM      9  C   UNL     1     104.842 128.506 143.380  0.00  0.00    +0.000 A 
ATOM     10  C   UNL     1     106.208 127.075 143.598  0.00  0.00    +0.000 A 
ATOM     11  C   UNL     1     105.209 128.303 144.282  0.00  0.00    +0.000 A 
ATOM     12  C   UNL     1     105.893 127.587 144.391  0.00  0.00    +0.000 A 
BRANCH   7  15
ATOM     13  O   UNL     1     102.118 132.251 143.576  0.00  0.00    +0.000 OA
ATOM     14  O   UNL     1     101.012 132.335 141.924  0.00  0.00    +0.000 OA
ATOM     15  C   UNL     1     103.060 130.187 142.240  0.00  0.00    +0.000 A 
ATOM     16  C   UNL     1     102.931 130.861 142.961  0.00  0.00    +0.000 A 
ATOM     17  C   UNL     1     102.506 130.230 141.414  0.00  0.00    +0.000 A 
ATOM     18  C   UNL     1     102.248 131.577 142.856  0.00  0.00    +0.000 A 
ATOM     19  C   UNL     1     101.824 130.945 141.309  0.00  0.00    +0.000 A 
ATOM     20  C   UNL     1     101.695 131.619 142.029  0.00  0.00    +0.000 A 
ENDBRANCH   7  15
ENDBRANCH   1   8
BRANCH   1  26
ATOM     21  O   UNL     1     107.739 127.444 141.889  0.00  0.00    +0.000 OA
ATOM     22  O   UNL     1     108.834 124.864 140.862  0.00  0.00    +0.000 OA
ATOM     23  O   UNL     1     110.054 126.403 141.190  0.00  0.00    +0.000 OA
ATOM     24  C   UNL     1     107.495 125.815 141.383  0.00  0.00    +0.000 C 
ATOM     25  C   UNL     1     108.469 125.724 141.204  0.00  0.00    +0.000 C 
ATOM     26  C   UNL     1     107.130 126.675 141.725  0.00  0.00    +0.000 C 
ATOM     27  C   UNL     1     109.079 126.494 141.368  0.00  0.00    +0.000 C 
ATOM     28  C   UNL     1     108.713 127.354 141.710  0.00  0.00    +0.000 C 
BRANCH  24  29
ATOM     29  O   UNL     1     106.885 125.046 141.219  0.00  0.00    +0.000 OA
BRANCH  29  31
ATOM     30  O   UNL     1     106.837 125.378 139.528  0.00  0.00    +0.000 OA
ATOM     31  C   UNL     1     106.448 124.937 140.331  0.00  0.00    +0.000 C 
BRANCH  31  33
ATOM     32  O   UNL     1     103.147 122.739 139.999  0.00  0.00    +0.000 OA
ATOM     33  C   UNL     1     105.623 124.388 140.248  0.00  0.00    +0.000 A 
ATOM     34  C   UNL     1     104.980 124.564 139.509  0.00  0.00    +0.000 A 
ATOM     35  C   UNL     1     105.440 123.662 140.904  0.00  0.00    +0.000 A 
ATOM     36  C   UNL     1     104.155 124.015 139.426  0.00  0.00    +0.000 A 
ATOM     37  C   UNL     1     104.614 123.112 140.821  0.00  0.00    +0.000 A 
ATOM     38  C   UNL     1     103.972 123.289 140.082  0.00  0.00    +0.000 A 
ENDBRANCH  31  33
ENDBRANCH  29  31
ENDBRANCH  24  29
ENDBRANCH   1  26
TORSDOF 6
ENDMDL
MODEL 2
REMARK VINA RESULT:      -9.5      2.647      5.295
REMARK  Name = 
REMARK  6 active torsions:
REMARK  status: ('A' for Active; 'I' for Inactive)
REMARK    1  A    between atoms: O_2  and  C_14
REMARK    2  A    between atoms: O_2  and  C_21
REMARK    3  A    between atoms: O_3  and  C_12
REMARK    4  A    between atoms: O_3  and  C_27
REMARK    5  A    between atoms: C_20  and  C_23
REMARK    6  A    between atoms: C_27  and  C_31
REMARK                            x       y       z     vdW  Elec       q    Type
REMARK                         _______ _______ _______ _____ _____    ______ ____
ROOT
ATOM      1  O   UNL     1     105.674 128.112 144.158  0.00  0.00    +0.000 OA
ENDROOT
BRANCH   1   8
ATOM      2  O   UNL     1     103.575 129.675 141.848  0.00  0.00    +0.000 OA
ATOM      3  O   UNL     1     105.210 126.718 141.040  0.00  0.00    +0.000 OA
ATOM      4  C   UNL     1     104.449 129.625 143.712  0.00  0.00    +0.000 C 
ATOM      5  C   UNL     1     103.811 130.405 143.467  0.00  0.00    +0.000 C 
ATOM      6  C   UNL     1     104.638 128.881 143.015  0.00  0.00    +0.000 A 
ATOM      7  C   UNL     1     103.371 130.430 142.528  0.00  0.00    +0.000 C 
ATOM      8  C   UNL     1     105.251 128.136 143.257  0.00  0.00    +0.000 A 
ATOM      9  C   UNL     1     104.215 128.905 142.115  0.00  0.00    +0.000 A 
ATOM     10  C   UNL     1     105.442 127.414 142.599  0.00  0.00    +0.000 A 
ATOM     11  C   UNL     1     104.406 128.184 141.456  0.00  0.00    +0.000 A 
ATOM     12  C   UNL     1     105.019 127.438 141.698  0.00  0.00    +0.000 A 
BRANCH   7  15
ATOM     13  O   UNL     1     102.840 133.497 141.047  0.00  0.00    +0.000 OA
ATOM     14  O   UNL     1     100.916 133.404 141.546  0.00  0.00    +0.000 OA
ATOM     15  C   UNL     1     102.757 131.174 142.283  0.00  0.00    +0.000 A 
ATOM     16  C   UNL     1     103.106 131.963 141.787  0.00  0.00    +0.000 A 
ATOM     17  C   UNL     1     101.795 131.128 142.532  0.00  0.00    +0.000 A 
ATOM     18  C   UNL     1     102.492 132.707 141.542  0.00  0.00    +0.000 A 
ATOM     19  C   UNL     1     101.181 131.871 142.287  0.00  0.00    +0.000 A 
ATOM     20  C   UNL     1     101.530 132.661 141.792  0.00  0.00    +0.000 A 
ENDBRANCH   7  15
ENDBRANCH   1   8
BRANCH   1  26
ATOM     21  O   UNL     1     105.010 126.585 144.603  0.00  0.00    +0.000 OA
ATOM     22  O   UNL     1     107.449 125.995 146.219  0.00  0.00    +0.000 OA
ATOM     23  O   UNL     1     105.971 124.664 146.125  0.00  0.00    +0.000 OA
ATOM     24  C   UNL     1     106.561 127.053 145.188  0.00  0.00    +0.000 C 
ATOM     25  C   UNL     1     106.636 126.192 145.680  0.00  0.00    +0.000 C 
ATOM     26  C   UNL     1     105.748 127.250 144.650  0.00  0.00    +0.000 C 
ATOM     27  C   UNL     1     105.897 125.526 145.633  0.00  0.00    +0.000 C 
ATOM     28  C   UNL     1     105.083 125.723 145.094  0.00  0.00    +0.000 C 
BRANCH  24  29
ATOM     29  O   UNL     1     107.300 127.718 145.236  0.00  0.00    +0.000 OA
BRANCH  29  31
ATOM     30  O   UNL     1     106.708 128.365 146.719  0.00  0.00    +0.000 OA
ATOM     31  C   UNL     1     107.260 128.461 145.896  0.00  0.00    +0.000 C 
BRANCH  31  33
ATOM     32  O   UNL     1     109.305 131.812 145.245  0.00  0.00    +0.000 OA
ATOM     33  C   UNL     1     107.771 129.299 145.734  0.00  0.00    +0.000 A 
ATOM     34  C   UNL     1     107.333 130.183 145.866  0.00  0.00    +0.000 A 
ATOM     35  C   UNL     1     108.720 129.253 145.439  0.00  0.00    +0.000 A 
ATOM     36  C   UNL     1     107.844 131.020 145.703  0.00  0.00    +0.000 A 
ATOM     37  C   UNL     1     109.232 130.091 145.276  0.00  0.00    +0.000 A 
ATOM     38  C   UNL     1     108.793 130.974 145.408  0.00  0.00    +0.000 A 
ENDBRANCH  31  33
ENDBRANCH  29  31
ENDBRANCH  24  29
ENDBRANCH   1  26
TORSDOF 6
ENDMDL
MODEL 3
REMARK VINA RESULT:      -9.4      7.038      8.300
REMARK  Name = 
REMARK  6 active torsions:
REMARK  status: ('A' for Active; 'I' for Inactive)
REMARK    1  A    between atoms: O_2  and  C_14
REMARK    2  A    between atoms: O_2  and  C_21
REMARK    3  A    between atoms: O_3  and  C_12
REMARK    4  A    between atoms: O_3  and  C_27
REMARK    5  A    between atoms: C_20  and  C_23
REMARK    6  A    between atoms: C_27  and  C_31
REMARK                            x       y       z     vdW  Elec       q    Type
REMARK                         _______ _______ _______ _____ _____    ______ ____
ROOT
ATOM      1  O   UNL     1     112.260 128.516 138.478  0.00  0.00    +0.000 OA
ENDROOT
BRANCH   1   8
ATOM      2  O   UNL     1     110.872 131.144 136.647  0.00  0.00    +0.000 OA
ATOM      3  O   UNL     1     114.150 131.315 137.786  0.00  0.00    +0.000 OA
ATOM      4  C   UNL     1     110.691 129.283 137.509  0.00  0.00    +0.000 C 
ATOM      5  C   UNL     1     109.884 129.692 137.003  0.00  0.00    +0.000 C 
ATOM      6  C   UNL     1     111.577 129.815 137.574  0.00  0.00    +0.000 A 
ATOM      7  C   UNL     1     109.976 130.629 136.568  0.00  0.00    +0.000 C 
ATOM      8  C   UNL     1     112.348 129.416 138.061  0.00  0.00    +0.000 A 
ATOM      9  C   UNL     1     111.665 130.714 137.157  0.00  0.00    +0.000 A 
ATOM     10  C   UNL     1     113.205 129.915 138.132  0.00  0.00    +0.000 A 
ATOM     11  C   UNL     1     112.523 131.215 137.228  0.00  0.00    +0.000 A 
ATOM     12  C   UNL     1     113.293 130.815 137.716  0.00  0.00    +0.000 A 
BRANCH   7  15
ATOM     13  O   UNL     1     106.777 131.916 136.575  0.00  0.00    +0.000 OA
ATOM     14  O   UNL     1     106.905 132.240 134.615  0.00  0.00    +0.000 OA
ATOM     15  C   UNL     1     109.208 131.032 136.080  0.00  0.00    +0.000 A 
ATOM     16  C   UNL     1     108.377 131.272 136.572  0.00  0.00    +0.000 A 
ATOM     17  C   UNL     1     109.271 131.195 135.100  0.00  0.00    +0.000 A 
ATOM     18  C   UNL     1     107.609 131.675 136.083  0.00  0.00    +0.000 A 
ATOM     19  C   UNL     1     108.504 131.597 134.612  0.00  0.00    +0.000 A 
ATOM     20  C   UNL     1     107.673 131.837 135.104  0.00  0.00    +0.000 A 
ENDBRANCH   7  15
ENDBRANCH   1   8
BRANCH   1  26
ATOM     21  O   UNL     1     111.856 129.061 140.062  0.00  0.00    +0.000 OA
ATOM     22  O   UNL     1     113.456 126.832 141.238  0.00  0.00    +0.000 OA
ATOM     23  O   UNL     1     112.517 128.120 142.430  0.00  0.00    +0.000 OA
ATOM     24  C   UNL     1     112.857 127.674 139.858  0.00  0.00    +0.000 C 
ATOM     25  C   UNL     1     112.922 127.575 140.846  0.00  0.00    +0.000 C 
ATOM     26  C   UNL     1     112.324 128.417 139.466  0.00  0.00    +0.000 C 
ATOM     27  C   UNL     1     112.453 128.219 141.442  0.00  0.00    +0.000 C 
ATOM     28  C   UNL     1     111.920 128.962 141.050  0.00  0.00    +0.000 C 
BRANCH  24  29
ATOM     29  O   UNL     1     113.327 127.030 139.262  0.00  0.00    +0.000 OA
BRANCH  29  31
ATOM     30  O   UNL     1     112.004 125.930 139.351  0.00  0.00    +0.000 OA
ATOM     31  C   UNL     1     112.845 126.232 138.914  0.00  0.00    +0.000 C 
BRANCH  31  33
ATOM     32  O   UNL     1     114.282 124.252 135.775  0.00  0.00    +0.000 OA
ATOM     33  C   UNL     1     113.205 125.737 138.129  0.00  0.00    +0.000 A 
ATOM     34  C   UNL     1     114.185 125.597 138.035  0.00  0.00    +0.000 A 
ATOM     35  C   UNL     1     112.583 125.382 137.439  0.00  0.00    +0.000 A 
ATOM     36  C   UNL     1     114.544 125.103 137.251  0.00  0.00    +0.000 A 
ATOM     37  C   UNL     1     112.942 124.886 136.653  0.00  0.00    +0.000 A 
ATOM     38  C   UNL     1     113.923 124.747 136.560  0.00  0.00    +0.000 A 
ENDBRANCH  31  33
ENDBRANCH  29  31
ENDBRANCH  24  29
ENDBRANCH   1  26
TORSDOF 6
ENDMDL
MODEL 4
REMARK VINA RESULT:      -9.2      2.590      6.422
REMARK  Name = 
REMARK  6 active torsions:
REMARK  status: ('A' for Active; 'I' for Inactive)
REMARK    1  A    between atoms: O_2  and  C_14
REMARK    2  A    between atoms: O_2  and  C_21
REMARK    3  A    between atoms: O_3  and  C_12
REMARK    4  A    between atoms: O_3  and  C_27
REMARK    5  A    between atoms: C_20  and  C_23
REMARK    6  A    between atoms: C_27  and  C_31
REMARK                            x       y       z     vdW  Elec       q    Type
REMARK                         _______ _______ _______ _____ _____    ______ ____
ROOT
ATOM      1  O   UNL     1     105.669 127.827 143.113  0.00  0.00    +0.000 OA
ENDROOT
BRANCH   1   8
ATOM      2  O   UNL     1     106.244 125.060 145.162  0.00  0.00    +0.000 OA
ATOM      3  O   UNL     1     105.883 124.678 141.727  0.00  0.00    +0.000 OA
ATOM      4  C   UNL     1     105.974 127.089 144.944  0.00  0.00    +0.000 C 
ATOM      5  C   UNL     1     106.133 126.693 145.889  0.00  0.00    +0.000 C 
ATOM      6  C   UNL     1     105.953 126.459 144.122  0.00  0.00    +0.000 A 
ATOM      7  C   UNL     1     106.269 125.671 145.998  0.00  0.00    +0.000 C 
ATOM      8  C   UNL     1     105.799 126.845 143.218  0.00  0.00    +0.000 A 
ATOM      9  C   UNL     1     106.083 125.478 144.228  0.00  0.00    +0.000 A 
ATOM     10  C   UNL     1     105.776 126.252 142.420  0.00  0.00    +0.000 A 
ATOM     11  C   UNL     1     106.060 124.884 143.429  0.00  0.00    +0.000 A 
ATOM     12  C   UNL     1     105.906 125.272 142.525  0.00  0.00    +0.000 A 
BRANCH   7  15
ATOM     13  O   UNL     1     108.427 124.737 148.519  0.00  0.00    +0.000 OA
ATOM     14  O   UNL     1     106.883 124.108 149.606  0.00  0.00    +0.000 OA
ATOM     15  C   UNL     1     106.423 125.280 146.901  0.00  0.00    +0.000 A 
ATOM     16  C   UNL     1     107.348 125.204 147.259  0.00  0.00    +0.000 A 
ATOM     17  C   UNL     1     105.651 124.965 147.445  0.00  0.00    +0.000 A 
ATOM     18  C   UNL     1     107.502 124.813 148.161  0.00  0.00    +0.000 A 
ATOM     19  C   UNL     1     105.804 124.575 148.346  0.00  0.00    +0.000 A 
ATOM     20  C   UNL     1     106.730 124.499 148.704  0.00  0.00    +0.000 A 
ENDBRANCH   7  15
ENDBRANCH   1   8
BRANCH   1  26
ATOM     21  O   UNL     1     107.206 127.997 142.353  0.00  0.00    +0.000 OA
ATOM     22  O   UNL     1     106.383 130.660 141.285  0.00  0.00    +0.000 OA
ATOM     23  O   UNL     1     108.195 129.942 140.880  0.00  0.00    +0.000 OA
ATOM     24  C   UNL     1     106.027 129.243 142.199  0.00  0.00    +0.000 C 
ATOM     25  C   UNL     1     106.657 129.772 141.641  0.00  0.00    +0.000 C 
ATOM     26  C   UNL     1     106.301 128.355 142.555  0.00  0.00    +0.000 C 
ATOM     27  C   UNL     1     107.563 129.413 141.439  0.00  0.00    +0.000 C 
ATOM     28  C   UNL     1     107.838 128.525 141.795  0.00  0.00    +0.000 C 
BRANCH  24  29
ATOM     29  O   UNL     1     105.120 129.603 142.401  0.00  0.00    +0.000 OA
BRANCH  29  31
ATOM     30  O   UNL     1     104.470 128.823 141.009  0.00  0.00    +0.000 OA
ATOM     31  C   UNL     1     104.381 129.485 141.746  0.00  0.00    +0.000 C 
BRANCH  31  33
ATOM     32  O   UNL     1     101.067 131.665 142.078  0.00  0.00    +0.000 OA
ATOM     33  C   UNL     1     103.552 130.030 141.828  0.00  0.00    +0.000 A 
ATOM     34  C   UNL     1     102.960 130.160 141.039  0.00  0.00    +0.000 A 
ATOM     35  C   UNL     1     103.316 130.445 142.701  0.00  0.00    +0.000 A 
ATOM     36  C   UNL     1     102.133 130.704 141.122  0.00  0.00    +0.000 A 
ATOM     37  C   UNL     1     102.487 130.991 142.784  0.00  0.00    +0.000 A 
ATOM     38  C   UNL     1     101.896 131.120 141.995  0.00  0.00    +0.000 A 
ENDBRANCH  31  33
ENDBRANCH  29  31
ENDBRANCH  24  29
ENDBRANCH   1  26
TORSDOF 6
ENDMDL
MODEL 5
REMARK VINA RESULT:      -9.1      4.306      7.026
REMARK  Name = 
REMARK  6 active torsions:
REMARK  status: ('A' for Active; 'I' for Inactive)
REMARK    1  A    between atoms: O_2  and  C_14
REMARK    2  A    between atoms: O_2  and  C_21
REMARK    3  A    between atoms: O_3  and  C_12
REMARK    4  A    between atoms: O_3  and  C_27
REMARK    5  A    between atoms: C_20  and  C_23
REMARK    6  A    between atoms: C_27  and  C_31
REMARK                            x       y       z     vdW  Elec       q    Type
REMARK                         _______ _______ _______ _____ _____    ______ ____
ROOT
ATOM      1  O   UNL     1     107.453 128.192 145.568  0.00  0.00    +0.000 OA
ENDROOT
BRANCH   1   8
ATOM      2  O   UNL     1     109.017 131.308 145.392  0.00  0.00    +0.000 OA
ATOM      3  O   UNL     1     105.652 131.058 146.220  0.00  0.00    +0.000 OA
ATOM      4  C   UNL     1     109.108 129.258 145.226  0.00  0.00    +0.000 C 
ATOM      5  C   UNL     1     109.959 129.823 145.052  0.00  0.00    +0.000 C 
ATOM      6  C   UNL     1     108.223 129.732 145.482  0.00  0.00    +0.000 A 
ATOM      7  C   UNL     1     109.913 130.856 145.135  0.00  0.00    +0.000 C 
ATOM      8  C   UNL     1     107.409 129.184 145.648  0.00  0.00    +0.000 A 
ATOM      9  C   UNL     1     108.179 130.723 145.562  0.00  0.00    +0.000 A 
ATOM     10  C   UNL     1     106.552 129.625 145.894  0.00  0.00    +0.000 A 
ATOM     11  C   UNL     1     107.321 131.165 145.808  0.00  0.00    +0.000 A 
ATOM     12  C   UNL     1     106.508 130.616 145.974  0.00  0.00    +0.000 A 
BRANCH   7  15
ATOM     13  O   UNL     1     111.896 132.679 142.984  0.00  0.00    +0.000 OA
ATOM     14  O   UNL     1     113.157 133.065 144.474  0.00  0.00    +0.000 OA
ATOM     15  C   UNL     1     110.724 131.408 144.970  0.00  0.00    +0.000 A 
ATOM     16  C   UNL     1     110.905 131.767 144.059  0.00  0.00    +0.000 A 
ATOM     17  C   UNL     1     111.355 131.602 145.715  0.00  0.00    +0.000 A 
ATOM     18  C   UNL     1     111.716 132.320 143.894  0.00  0.00    +0.000 A 
ATOM     19  C   UNL     1     112.165 132.154 145.550  0.00  0.00    +0.000 A 
ATOM     20  C   UNL     1     112.346 132.513 144.640  0.00  0.00    +0.000 A 
ENDBRANCH   7  15
ENDBRANCH   1   8
BRANCH   1  26
ATOM     21  O   UNL     1     106.615 128.241 144.063  0.00  0.00    +0.000 OA
ATOM     22  O   UNL     1     106.086 125.310 144.263  0.00  0.00    +0.000 OA
ATOM     23  O   UNL     1     105.423 126.336 142.691  0.00  0.00    +0.000 OA
ATOM     24  C   UNL     1     106.769 126.751 144.915  0.00  0.00    +0.000 C 
ATOM     25  C   UNL     1     106.262 126.287 144.196  0.00  0.00    +0.000 C 
ATOM     26  C   UNL     1     106.946 127.728 144.848  0.00  0.00    +0.000 C 
ATOM     27  C   UNL     1     105.931 126.800 143.410  0.00  0.00    +0.000 C 
ATOM     28  C   UNL     1     106.108 127.777 143.344  0.00  0.00    +0.000 C 
BRANCH  24  29
ATOM     29  O   UNL     1     107.100 126.238 145.701  0.00  0.00    +0.000 OA
BRANCH  29  31
ATOM     30  O   UNL     1     105.560 126.401 146.456  0.00  0.00    +0.000 OA
ATOM     31  C   UNL     1     106.496 126.063 146.471  0.00  0.00    +0.000 C 
BRANCH  31  33
ATOM     32  O   UNL     1     107.824 124.009 149.612  0.00  0.00    +0.000 OA
ATOM     33  C   UNL     1     106.827 125.549 147.257  0.00  0.00    +0.000 A 
ATOM     34  C   UNL     1     106.182 125.119 147.880  0.00  0.00    +0.000 A 
ATOM     35  C   UNL     1     107.805 125.466 147.419  0.00  0.00    +0.000 A 
ATOM     36  C   UNL     1     106.513 124.606 148.664  0.00  0.00    +0.000 A 
ATOM     37  C   UNL     1     108.138 124.952 148.204  0.00  0.00    +0.000 A 
ATOM     38  C   UNL     1     107.492 124.523 148.826  0.00  0.00    +0.000 A 
ENDBRANCH  31  33
ENDBRANCH  29  31
ENDBRANCH  24  29
ENDBRANCH   1  26
TORSDOF 6
ENDMDL
MODEL 6
REMARK VINA RESULT:      -9.1      5.935      8.277
REMARK  Name = 
REMARK  6 active torsions:
REMARK  status: ('A' for Active; 'I' for Inactive)
REMARK    1  A    between atoms: O_2  and  C_14
REMARK    2  A    between atoms: O_2  and  C_21
REMARK    3  A    between atoms: O_3  and  C_12
REMARK    4  A    between atoms: O_3  and  C_27
REMARK    5  A    between atoms: C_20  and  C_23
REMARK    6  A    between atoms: C_27  and  C_31
REMARK                            x       y       z     vdW  Elec       q    Type
REMARK                         _______ _______ _______ _____ _____    ______ ____
ROOT
ATOM      1  O   UNL     1     112.426 128.261 137.758  0.00  0.00    +0.000 OA
ENDROOT
BRANCH   1   8
ATOM      2  O   UNL     1     110.988 131.088 136.299  0.00  0.00    +0.000 OA
ATOM      3  O   UNL     1     114.323 131.099 137.274  0.00  0.00    +0.000 OA
ATOM      4  C   UNL     1     110.821 129.146 136.962  0.00  0.00    +0.000 C 
ATOM      5  C   UNL     1     109.996 129.617 136.547  0.00  0.00    +0.000 C 
ATOM      6  C   UNL     1     111.719 129.659 137.038  0.00  0.00    +0.000 A 
ATOM      7  C   UNL     1     110.080 130.595 136.213  0.00  0.00    +0.000 C 
ATOM      8  C   UNL     1     112.506 129.201 137.437  0.00  0.00    +0.000 A 
ATOM      9  C   UNL     1     111.799 130.597 136.717  0.00  0.00    +0.000 A 
ATOM     10  C   UNL     1     113.375 129.680 137.517  0.00  0.00    +0.000 A 
ATOM     11  C   UNL     1     112.668 131.078 136.796  0.00  0.00    +0.000 A 
ATOM     12  C   UNL     1     113.455 130.618 137.196  0.00  0.00    +0.000 A 
BRANCH   7  15
ATOM     13  O   UNL     1     106.682 131.161 136.113  0.00  0.00    +0.000 OA
ATOM     14  O   UNL     1     106.940 132.442 134.612  0.00  0.00    +0.000 OA
ATOM     15  C   UNL     1     109.295 131.057 135.813  0.00  0.00    +0.000 A 
ATOM     16  C   UNL     1     108.381 130.878 136.163  0.00  0.00    +0.000 A 
ATOM     17  C   UNL     1     109.423 131.697 135.062  0.00  0.00    +0.000 A 
ATOM     18  C   UNL     1     107.595 131.340 135.763  0.00  0.00    +0.000 A 
ATOM     19  C   UNL     1     108.639 132.159 134.662  0.00  0.00    +0.000 A 
ATOM     20  C   UNL     1     107.725 131.980 135.012  0.00  0.00    +0.000 A 
ENDBRANCH   7  15
ENDBRANCH   1   8
BRANCH   1  26
ATOM     21  O   UNL     1     113.370 127.651 136.453  0.00  0.00    +0.000 OA
ATOM     22  O   UNL     1     114.035 125.229 138.066  0.00  0.00    +0.000 OA
ATOM     23  O   UNL     1     114.758 125.426 136.221  0.00  0.00    +0.000 OA
ATOM     24  C   UNL     1     113.230 126.745 137.911  0.00  0.00    +0.000 C 
ATOM     25  C   UNL     1     113.813 126.036 137.528  0.00  0.00    +0.000 C 
ATOM     26  C   UNL     1     113.009 127.553 137.374  0.00  0.00    +0.000 C 
ATOM     27  C   UNL     1     114.175 126.135 136.606  0.00  0.00    +0.000 C 
ATOM     28  C   UNL     1     113.953 126.942 136.068  0.00  0.00    +0.000 C 
BRANCH  24  29
ATOM     29  O   UNL     1     112.869 126.647 138.834  0.00  0.00    +0.000 OA
BRANCH  29  31
ATOM     30  O   UNL     1     111.660 125.523 138.338  0.00  0.00    +0.000 OA
ATOM     31  C   UNL     1     111.986 126.212 138.978  0.00  0.00    +0.000 C 
BRANCH  31  33
ATOM     32  O   UNL     1     109.758 127.228 142.116  0.00  0.00    +0.000 OA
ATOM     33  C   UNL     1     111.430 126.466 139.763  0.00  0.00    +0.000 A 
ATOM     34  C   UNL     1     111.864 126.775 140.603  0.00  0.00    +0.000 A 
ATOM     35  C   UNL     1     110.438 126.411 139.708  0.00  0.00    +0.000 A 
ATOM     36  C   UNL     1     111.308 127.029 141.387  0.00  0.00    +0.000 A 
ATOM     37  C   UNL     1     109.880 126.665 140.493  0.00  0.00    +0.000 A 
ATOM     38  C   UNL     1     110.316 126.974 141.332  0.00  0.00    +0.000 A 
ENDBRANCH  31  33
ENDBRANCH  29  31
ENDBRANCH  24  29
ENDBRANCH   1  26
TORSDOF 6
ENDMDL
MODEL 7
REMARK VINA RESULT:      -9.0      3.392      5.776
REMARK  Name = 
REMARK  6 active torsions:
REMARK  status: ('A' for Active; 'I' for Inactive)
REMARK    1  A    between atoms: O_2  and  C_14
REMARK    2  A    between atoms: O_2  and  C_21
REMARK    3  A    between atoms: O_3  and  C_12
REMARK    4  A    between atoms: O_3  and  C_27
REMARK    5  A    between atoms: C_20  and  C_23
REMARK    6  A    between atoms: C_27  and  C_31
REMARK                            x       y       z     vdW  Elec       q    Type
REMARK                         _______ _______ _______ _____ _____    ______ ____
ROOT
ATOM      1  O   UNL     1     106.045 128.496 143.690  0.00  0.00    +0.000 OA
ENDROOT
BRANCH   1   8
ATOM      2  O   UNL     1     108.254 129.981 145.949  0.00  0.00    +0.000 OA
ATOM      3  O   UNL     1     106.774 126.921 146.669  0.00  0.00    +0.000 OA
ATOM      4  C   UNL     1     107.250 130.020 144.151  0.00  0.00    +0.000 C 
ATOM      5  C   UNL     1     107.879 130.805 144.403  0.00  0.00    +0.000 C 
ATOM      6  C   UNL     1     107.135 129.227 144.808  0.00  0.00    +0.000 A 
ATOM      7  C   UNL     1     108.385 130.785 145.308  0.00  0.00    +0.000 C 
ATOM      8  C   UNL     1     106.530 128.477 144.560  0.00  0.00    +0.000 A 
ATOM      9  C   UNL     1     107.620 129.208 145.676  0.00  0.00    +0.000 A 
ATOM     10  C   UNL     1     106.409 127.708 145.180  0.00  0.00    +0.000 A 
ATOM     11  C   UNL     1     107.500 128.439 146.297  0.00  0.00    +0.000 A 
ATOM     12  C   UNL     1     106.894 127.689 146.048  0.00  0.00    +0.000 A 
BRANCH   7  15
ATOM     13  O   UNL     1     111.534 132.186 145.362  0.00  0.00    +0.000 OA
ATOM     14  O   UNL     1     110.809 133.776 146.315  0.00  0.00    +0.000 OA
ATOM     15  C   UNL     1     108.991 131.533 145.560  0.00  0.00    +0.000 A 
ATOM     16  C   UNL     1     109.959 131.486 145.335  0.00  0.00    +0.000 A 
ATOM     17  C   UNL     1     108.629 132.328 146.036  0.00  0.00    +0.000 A 
ATOM     18  C   UNL     1     110.565 132.234 145.587  0.00  0.00    +0.000 A 
ATOM     19  C   UNL     1     109.234 133.076 146.288  0.00  0.00    +0.000 A 
ATOM     20  C   UNL     1     110.203 133.028 146.063  0.00  0.00    +0.000 A 
ENDBRANCH   7  15
ENDBRANCH   1   8
BRANCH   1  26
ATOM     21  O   UNL     1     106.950 127.164 143.078  0.00  0.00    +0.000 OA
ATOM     22  O   UNL     1     104.799 126.619 141.081  0.00  0.00    +0.000 OA
ATOM     23  O   UNL     1     106.423 125.469 141.134  0.00  0.00    +0.000 OA
ATOM     24  C   UNL     1     105.423 127.557 142.386  0.00  0.00    +0.000 C 
ATOM     25  C   UNL     1     105.516 126.801 141.747  0.00  0.00    +0.000 C 
ATOM     26  C   UNL     1     106.140 127.739 143.051  0.00  0.00    +0.000 C 
ATOM     27  C   UNL     1     106.328 126.226 141.773  0.00  0.00    +0.000 C 
ATOM     28  C   UNL     1     107.045 126.407 142.439  0.00  0.00    +0.000 C 
BRANCH  24  29
ATOM     29  O   UNL     1     104.610 128.132 142.359  0.00  0.00    +0.000 OA
BRANCH  29  31
ATOM     30  O   UNL     1     105.391 129.183 141.238  0.00  0.00    +0.000 OA
ATOM     31  C   UNL     1     104.594 128.944 141.784  0.00  0.00    +0.000 C 
BRANCH  31  33
ATOM     32  O   UNL     1     101.338 131.229 141.662  0.00  0.00    +0.000 OA
ATOM     33  C   UNL     1     103.780 129.515 141.754  0.00  0.00    +0.000 A 
ATOM     34  C   UNL     1     103.563 130.114 142.518  0.00  0.00    +0.000 A 
ATOM     35  C   UNL     1     103.182 129.488 140.959  0.00  0.00    +0.000 A 
ATOM     36  C   UNL     1     102.750 130.685 142.488  0.00  0.00    +0.000 A 
ATOM     37  C   UNL     1     102.368 130.060 140.928  0.00  0.00    +0.000 A 
ATOM     38  C   UNL     1     102.152 130.658 141.693  0.00  0.00    +0.000 A 
ENDBRANCH  31  33
ENDBRANCH  29  31
ENDBRANCH  24  29
ENDBRANCH   1  26
TORSDOF 6
ENDMDL
MODEL 8
REMARK VINA RESULT:      -9.0      4.979      7.611
REMARK  Name = 
REMARK  6 active torsions:
REMARK  status: ('A' for Active; 'I' for Inactive)
REMARK    1  A    between atoms: O_2  and  C_14
REMARK    2  A    between atoms: O_2  and  C_21
REMARK    3  A    between atoms: O_3  and  C_12
REMARK    4  A    between atoms: O_3  and  C_27
REMARK    5  A    between atoms: C_20  and  C_23
REMARK    6  A    between atoms: C_27  and  C_31
REMARK                            x       y       z     vdW  Elec       q    Type
REMARK                         _______ _______ _______ _____ _____    ______ ____
ROOT
ATOM      1  O   UNL     1     112.445 128.204 138.274  0.00  0.00    +0.000 OA
ENDROOT
BRANCH   1   8
ATOM      2  O   UNL     1     110.675 128.666 141.247  0.00  0.00    +0.000 OA
ATOM      3  O   UNL     1     114.068 129.389 141.074  0.00  0.00    +0.000 OA
ATOM      4  C   UNL     1     110.715 128.099 139.268  0.00  0.00    +0.000 C 
ATOM      5  C   UNL     1     109.824 128.050 139.796  0.00  0.00    +0.000 C 
ATOM      6  C   UNL     1     111.573 128.433 139.744  0.00  0.00    +0.000 A 
ATOM      7  C   UNL     1     109.804 128.335 140.792  0.00  0.00    +0.000 C 
ATOM      8  C   UNL     1     112.425 128.478 139.231  0.00  0.00    +0.000 A 
ATOM      9  C   UNL     1     111.553 128.707 140.700  0.00  0.00    +0.000 A 
ATOM     10  C   UNL     1     113.257 128.796 139.674  0.00  0.00    +0.000 A 
ATOM     11  C   UNL     1     112.386 129.026 141.144  0.00  0.00    +0.000 A 
ATOM     12  C   UNL     1     113.237 129.071 140.631  0.00  0.00    +0.000 A 
BRANCH   7  15
ATOM     13  O   UNL     1     107.621 126.588 142.809  0.00  0.00    +0.000 OA
ATOM     14  O   UNL     1     106.405 128.163 142.856  0.00  0.00    +0.000 OA
ATOM     15  C   UNL     1     108.954 128.292 141.309  0.00  0.00    +0.000 A 
ATOM     16  C   UNL     1     108.713 127.462 141.801  0.00  0.00    +0.000 A 
ATOM     17  C   UNL     1     108.345 129.079 141.333  0.00  0.00    +0.000 A 
ATOM     18  C   UNL     1     107.863 127.419 142.317  0.00  0.00    +0.000 A 
ATOM     19  C   UNL     1     107.497 129.037 141.848  0.00  0.00    +0.000 A 
ATOM     20  C   UNL     1     107.255 128.206 142.340  0.00  0.00    +0.000 A 
ENDBRANCH   7  15
ENDBRANCH   1   8
BRANCH   1  26
ATOM     21  O   UNL     1     112.868 129.768 137.688  0.00  0.00    +0.000 OA
ATOM     22  O   UNL     1     114.338 128.516 135.411  0.00  0.00    +0.000 OA
ATOM     23  O   UNL     1     114.272 130.498 135.584  0.00  0.00    +0.000 OA
ATOM     24  C   UNL     1     113.391 128.361 136.843  0.00  0.00    +0.000 C 
ATOM     25  C   UNL     1     113.848 128.933 136.170  0.00  0.00    +0.000 C 
ATOM     26  C   UNL     1     112.901 128.778 137.602  0.00  0.00    +0.000 C 
ATOM     27  C   UNL     1     113.814 129.925 136.257  0.00  0.00    +0.000 C 
ATOM     28  C   UNL     1     113.324 130.342 137.016  0.00  0.00    +0.000 C 
BRANCH  24  29
ATOM     29  O   UNL     1     113.425 127.369 136.756  0.00  0.00    +0.000 OA
BRANCH  29  31
ATOM     30  O   UNL     1     112.080 127.364 135.679  0.00  0.00    +0.000 OA
ATOM     31  C   UNL     1     112.679 126.883 136.311  0.00  0.00    +0.000 C 
BRANCH  31  33
ATOM     32  O   UNL     1     112.097 123.018 137.062  0.00  0.00    +0.000 OA
ATOM     33  C   UNL     1     112.534 125.917 136.499  0.00  0.00    +0.000 A 
ATOM     34  C   UNL     1     113.313 125.306 136.597  0.00  0.00    +0.000 A 
ATOM     35  C   UNL     1     111.609 125.561 136.589  0.00  0.00    +0.000 A 
ATOM     36  C   UNL     1     113.168 124.340 136.784  0.00  0.00    +0.000 A 
ATOM     37  C   UNL     1     111.463 124.595 136.777  0.00  0.00    +0.000 A 
ATOM     38  C   UNL     1     112.243 123.985 136.874  0.00  0.00    +0.000 A 
ENDBRANCH  31  33
ENDBRANCH  29  31
ENDBRANCH  24  29
ENDBRANCH   1  26
TORSDOF 6
ENDMDL
MODEL 9
REMARK VINA RESULT:      -9.0      7.011      8.347
REMARK  Name = 
REMARK  6 active torsions:
REMARK  status: ('A' for Active; 'I' for Inactive)
REMARK    1  A    between atoms: O_2  and  C_14
REMARK    2  A    between atoms: O_2  and  C_21
REMARK    3  A    between atoms: O_3  and  C_12
REMARK    4  A    between atoms: O_3  and  C_27
REMARK    5  A    between atoms: C_20  and  C_23
REMARK    6  A    between atoms: C_27  and  C_31
REMARK                            x       y       z     vdW  Elec       q    Type
REMARK                         _______ _______ _______ _____ _____    ______ ____
ROOT
ATOM      1  O   UNL     1     111.658 128.713 137.698  0.00  0.00    +0.000 OA
ENDROOT
BRANCH   1   8
ATOM      2  O   UNL     1     112.760 130.190 140.663  0.00  0.00    +0.000 OA
ATOM      3  O   UNL     1     114.489 130.680 137.690  0.00  0.00    +0.000 OA
ATOM      4  C   UNL     1     111.407 129.008 139.658  0.00  0.00    +0.000 C 
ATOM      5  C   UNL     1     111.288 129.169 140.675  0.00  0.00    +0.000 C 
ATOM      6  C   UNL     1     112.204 129.444 139.161  0.00  0.00    +0.000 A 
ATOM      7  C   UNL     1     111.969 129.765 141.181  0.00  0.00    +0.000 C 
ATOM      8  C   UNL     1     112.312 129.285 138.185  0.00  0.00    +0.000 A 
ATOM      9  C   UNL     1     112.858 130.015 139.647  0.00  0.00    +0.000 A 
ATOM     10  C   UNL     1     113.074 129.697 137.694  0.00  0.00    +0.000 A 
ATOM     11  C   UNL     1     113.620 130.428 139.156  0.00  0.00    +0.000 A 
ATOM     12  C   UNL     1     113.728 130.268 138.180  0.00  0.00    +0.000 A 
BRANCH   7  15
ATOM     13  O   UNL     1     111.681 128.549 144.394  0.00  0.00    +0.000 OA
ATOM     14  O   UNL     1     111.551 130.411 145.086  0.00  0.00    +0.000 OA
ATOM     15  C   UNL     1     111.865 129.926 142.158  0.00  0.00    +0.000 A 
ATOM     16  C   UNL     1     111.825 129.157 142.788  0.00  0.00    +0.000 A 
ATOM     17  C   UNL     1     111.800 130.857 142.504  0.00  0.00    +0.000 A 
ATOM     18  C   UNL     1     111.720 129.318 143.764  0.00  0.00    +0.000 A 
ATOM     19  C   UNL     1     111.696 131.019 143.479  0.00  0.00    +0.000 A 
ATOM     20  C   UNL     1     111.656 130.249 144.109  0.00  0.00    +0.000 A 
ENDBRANCH   7  15
ENDBRANCH   1   8
BRANCH   1  26
ATOM     21  O   UNL     1     110.865 130.039 136.935  0.00  0.00    +0.000 OA
ATOM     22  O   UNL     1     110.182 128.293 134.612  0.00  0.00    +0.000 OA
ATOM     23  O   UNL     1     109.616 130.201 134.623  0.00  0.00    +0.000 OA
ATOM     24  C   UNL     1     110.920 128.504 136.155  0.00  0.00    +0.000 C 
ATOM     25  C   UNL     1     110.410 128.875 135.386  0.00  0.00    +0.000 C 
ATOM     26  C   UNL     1     111.147 129.086 136.930  0.00  0.00    +0.000 C 
ATOM     27  C   UNL     1     110.127 129.829 135.392  0.00  0.00    +0.000 C 
ATOM     28  C   UNL     1     110.354 130.411 136.166  0.00  0.00    +0.000 C 
BRANCH  24  29
ATOM     29  O   UNL     1     111.203 127.549 136.150  0.00  0.00    +0.000 OA
BRANCH  29  31
ATOM     30  O   UNL     1     109.701 127.084 136.854  0.00  0.00    +0.000 OA
ATOM     31  C   UNL     1     110.629 126.857 136.576  0.00  0.00    +0.000 C 
BRANCH  31  33
ATOM     32  O   UNL     1     112.046 123.184 137.160  0.00  0.00    +0.000 OA
ATOM     33  C   UNL     1     110.983 125.939 136.722  0.00  0.00    +0.000 A 
ATOM     34  C   UNL     1     111.110 125.596 137.647  0.00  0.00    +0.000 A 
ATOM     35  C   UNL     1     111.210 125.364 135.943  0.00  0.00    +0.000 A 
ATOM     36  C   UNL     1     111.464 124.678 137.794  0.00  0.00    +0.000 A 
ATOM     37  C   UNL     1     111.565 124.445 136.089  0.00  0.00    +0.000 A 
ATOM     38  C   UNL     1     111.691 124.103 137.014  0.00  0.00    +0.000 A 
ENDBRANCH  31  33
ENDBRANCH  29  31
ENDBRANCH  24  29
ENDBRANCH   1  26
TORSDOF 6
ENDMDL
MODEL 10
REMARK VINA RESULT:      -9.0      1.555      2.521
REMARK  Name = 
REMARK  6 active torsions:
REMARK  status: ('A' for Active; 'I' for Inactive)
REMARK    1  A    between atoms: O_2  and  C_14
REMARK    2  A    between atoms: O_2  and  C_21
REMARK    3  A    between atoms: O_3  and  C_12
REMARK    4  A    between atoms: O_3  and  C_27
REMARK    5  A    between atoms: C_20  and  C_23
REMARK    6  A    between atoms: C_27  and  C_31
REMARK                            x       y       z     vdW  Elec       q    Type
REMARK                         _______ _______ _______ _____ _____    ______ ____
ROOT
ATOM      1  O   UNL     1     105.662 127.200 142.446  0.00  0.00    +0.000 OA
ENDROOT
BRANCH   1   8
ATOM      2  O   UNL     1     104.955 130.550 141.765  0.00  0.00    +0.000 OA
ATOM      3  O   UNL     1     108.227 129.385 141.717  0.00  0.00    +0.000 OA
ATOM      4  C   UNL     1     104.309 128.655 142.249  0.00  0.00    +0.000 C 
ATOM      5  C   UNL     1     103.617 129.420 142.143  0.00  0.00    +0.000 C 
ATOM      6  C   UNL     1     105.316 128.855 142.110  0.00  0.00    +0.000 A 
ATOM      7  C   UNL     1     103.942 130.374 141.900  0.00  0.00    +0.000 C 
ATOM      8  C   UNL     1     105.975 128.116 142.212  0.00  0.00    +0.000 A 
ATOM      9  C   UNL     1     105.628 129.770 141.876  0.00  0.00    +0.000 A 
ATOM     10  C   UNL     1     106.945 128.292 142.082  0.00  0.00    +0.000 A 
ATOM     11  C   UNL     1     106.599 129.947 141.745  0.00  0.00    +0.000 A 
ATOM     12  C   UNL     1     107.258 129.208 141.848  0.00  0.00    +0.000 A 
BRANCH   7  15
ATOM     13  O   UNL     1     103.126 133.486 140.662  0.00  0.00    +0.000 OA
ATOM     14  O   UNL     1     101.320 133.339 141.485  0.00  0.00    +0.000 OA
ATOM     15  C   UNL     1     103.286 131.116 141.796  0.00  0.00    +0.000 A 
ATOM     16  C   UNL     1     103.534 131.930 141.281  0.00  0.00    +0.000 A 
ATOM     17  C   UNL     1     102.383 131.043 142.207  0.00  0.00    +0.000 A 
ATOM     18  C   UNL     1     102.878 132.672 141.177  0.00  0.00    +0.000 A 
ATOM     19  C   UNL     1     101.728 131.783 142.104  0.00  0.00    +0.000 A 
ATOM     20  C   UNL     1     101.976 132.597 141.589  0.00  0.00    +0.000 A 
ENDBRANCH   7  15
ENDBRANCH   1   8
BRANCH   1  26
ATOM     21  O   UNL     1     106.327 127.342 144.030  0.00  0.00    +0.000 OA
ATOM     22  O   UNL     1     106.055 124.393 144.408  0.00  0.00    +0.000 OA
ATOM     23  O   UNL     1     106.811 125.518 145.866  0.00  0.00    +0.000 OA
ATOM     24  C   UNL     1     105.859 125.797 143.428  0.00  0.00    +0.000 C 
ATOM     25  C   UNL     1     106.146 125.376 144.282  0.00  0.00    +0.000 C 
ATOM     26  C   UNL     1     105.950 126.780 143.301  0.00  0.00    +0.000 C 
ATOM     27  C   UNL     1     106.524 125.939 145.011  0.00  0.00    +0.000 C 
ATOM     28  C   UNL     1     106.615 126.922 144.885  0.00  0.00    +0.000 C 
BRANCH  24  29
ATOM     29  O   UNL     1     105.481 125.234 142.699  0.00  0.00    +0.000 OA
BRANCH  29  31
ATOM     30  O   UNL     1     107.068 124.796 142.189  0.00  0.00    +0.000 OA
ATOM     31  C   UNL     1     106.086 124.815 142.029  0.00  0.00    +0.000 C 
BRANCH  31  33
ATOM     32  O   UNL     1     104.576 123.218 138.710  0.00  0.00    +0.000 OA
ATOM     33  C   UNL     1     105.708 124.416 141.200  0.00  0.00    +0.000 A 
ATOM     34  C   UNL     1     105.138 123.602 141.253  0.00  0.00    +0.000 A 
ATOM     35  C   UNL     1     105.901 124.830 140.316  0.00  0.00    +0.000 A 
ATOM     36  C   UNL     1     104.761 123.203 140.424  0.00  0.00    +0.000 A 
ATOM     37  C   UNL     1     105.523 124.431 139.486  0.00  0.00    +0.000 A 
ATOM     38  C   UNL     1     104.954 123.617 139.541  0.00  0.00    +0.000 A 
ENDBRANCH  31  33
ENDBRANCH  29  31
ENDBRANCH  24  29
ENDBRANCH   1  26
TORSDOF 6
ENDMDL
