MODEL 1
REMARK VINA RESULT:     -10.0      0.000      0.000
REMARK  Name = 42608066
REMARK  8 active torsions:
REMARK  status: ('A' for Active; 'I' for Inactive)
REMARK    1  A    between atoms: O_1  and  C_17
REMARK    2  A    between atoms: O_1  and  C_20
REMARK    3  A    between atoms: O_5  and  C_26
REMARK    4  A    between atoms: O_5  and  C_29
REMARK    5  A    between atoms: O_13  and  C_35
REMARK    6  A    between atoms: C_19  and  C_27
REMARK    7  A    between atoms: C_25  and  C_28
REMARK    8  A    between atoms: C_34  and  C_38
REMARK                            x       y       z     vdW  Elec       q    Type
REMARK                         _______ _______ _______ _____ _____    ______ ____
ROOT
ATOM      1  O   UNL     1     112.698 129.758 135.540  0.00  0.00    +0.000 OA
ENDROOT
BRANCH   1   4
ATOM      2  O   UNL     1     111.799 127.039 136.070  0.00  0.00    +0.000 OA
ATOM      3  O   UNL     1     109.670 127.495 134.893  0.00  0.00    +0.000 OA
ATOM      4  C   UNL     1     112.125 129.168 135.475  0.00  0.00    +0.000 A 
ATOM      5  C   UNL     1     112.263 128.391 135.815  0.00  0.00    +0.000 A 
ATOM      6  C   UNL     1     111.386 129.327 135.066  0.00  0.00    +0.000 A 
ATOM      7  C   UNL     1     111.660 127.783 135.741  0.00  0.00    +0.000 A 
ATOM      8  C   UNL     1     110.951 127.935 135.349  0.00  0.00    +0.000 A 
ATOM      9  C   UNL     1     111.228 126.447 136.006  0.00  0.00    +0.000 C 
ATOM     10  C   UNL     1     110.795 128.706 135.003  0.00  0.00    +0.000 A 
ATOM     11  C   UNL     1     110.518 126.600 135.614  0.00  0.00    +0.000 C 
ATOM     12  C   UNL     1     110.379 127.344 135.285  0.00  0.00    +0.000 C 
BRANCH   9  15
ATOM     13  O   UNL     1     111.310 124.724 138.284  0.00  0.00    +0.000 OA
ATOM     14  O   UNL     1     111.781 123.471 137.320  0.00  0.00    +0.000 OA
ATOM     15  C   UNL     1     111.366 125.703 136.334  0.00  0.00    +0.000 A 
ATOM     16  C   UNL     1     111.269 125.586 137.145  0.00  0.00    +0.000 A 
ATOM     17  C   UNL     1     111.601 125.077 135.852  0.00  0.00    +0.000 A 
ATOM     18  C   UNL     1     111.407 124.841 137.473  0.00  0.00    +0.000 A 
ATOM     19  C   UNL     1     111.740 124.332 136.180  0.00  0.00    +0.000 A 
ATOM     20  C   UNL     1     111.643 124.215 136.991  0.00  0.00    +0.000 A 
ENDBRANCH   9  15
BRANCH  10  21
ATOM     21  O   UNL     1     110.082 128.849 134.613  0.00  0.00    +0.000 OA
ATOM     22  C   UNL     1     109.725 129.591 134.665  0.00  0.00    +0.000 C 
ENDBRANCH  10  21
ENDBRANCH   1   4
BRANCH   1  30
ATOM     23  O   UNL     1     112.350 130.294 136.818  0.00  0.00    +0.000 OA
ATOM     24  O   UNL     1     114.743 130.346 137.448  0.00  0.00    +0.000 OA
ATOM     25  O   UNL     1     114.293 129.792 135.960  0.00  0.00    +0.000 OA
ATOM     26  C   UNL     1     113.373 130.589 137.772  0.00  0.00    +0.000 C 
ATOM     27  C   UNL     1     113.946 130.329 137.237  0.00  0.00    +0.000 C 
ATOM     28  C   UNL     1     112.575 130.571 137.561  0.00  0.00    +0.000 C 
ATOM     29  C   UNL     1     113.721 130.052 136.493  0.00  0.00    +0.000 C 
ATOM     30  C   UNL     1     112.923 130.035 136.284  0.00  0.00    +0.000 C 
BRANCH  28  32
ATOM     31  O   UNL     1     111.343 131.245 137.824  0.00  0.00    +0.000 OA
ATOM     32  C   UNL     1     112.002 130.831 138.096  0.00  0.00    +0.000 C 
ENDBRANCH  28  32
BRANCH  26  33
ATOM     33  O   UNL     1     113.598 130.866 138.516  0.00  0.00    +0.000 OA
BRANCH  33  38
ATOM     34  O   UNL     1     113.410 129.579 139.108  0.00  0.00    +0.000 OA
ATOM     35  O   UNL     1     114.568 131.304 139.776  0.00  0.00    +0.000 OA
ATOM     36  O   UNL     1     114.866 130.236 140.998  0.00  0.00    +0.000 OA
ATOM     37  O   UNL     1     114.192 128.731 140.960  0.00  0.00    +0.000 OA
ATOM     38  C   UNL     1     113.746 130.332 139.126  0.00  0.00    +0.000 C 
ATOM     39  C   UNL     1     114.231 130.551 139.757  0.00  0.00    +0.000 C 
ATOM     40  C   UNL     1     114.380 130.017 140.368  0.00  0.00    +0.000 C 
ATOM     41  C   UNL     1     114.043 129.264 140.349  0.00  0.00    +0.000 C 
ATOM     42  C   UNL     1     113.558 129.045 139.719  0.00  0.00    +0.000 C 
BRANCH  42  44
ATOM     43  O   UNL     1     113.460 127.748 139.128  0.00  0.00    +0.000 OA
ATOM     44  C   UNL     1     113.222 128.293 139.700  0.00  0.00    +0.000 C 
ENDBRANCH  42  44
ENDBRANCH  33  38
ENDBRANCH  26  33
ENDBRANCH   1  30
TORSDOF 8
ENDMDL
MODEL 2
REMARK VINA RESULT:      -9.8      1.532      4.096
REMARK  Name = 42608066
REMARK  8 active torsions:
REMARK  status: ('A' for Active; 'I' for Inactive)
REMARK    1  A    between atoms: O_1  and  C_17
REMARK    2  A    between atoms: O_1  and  C_20
REMARK    3  A    between atoms: O_5  and  C_26
REMARK    4  A    between atoms: O_5  and  C_29
REMARK    5  A    between atoms: O_13  and  C_35
REMARK    6  A    between atoms: C_19  and  C_27
REMARK    7  A    between atoms: C_25  and  C_28
REMARK    8  A    between atoms: C_34  and  C_38
REMARK                            x       y       z     vdW  Elec       q    Type
REMARK                         _______ _______ _______ _____ _____    ______ ____
ROOT
ATOM      1  O   UNL     1     111.293 125.484 138.854  0.00  0.00    +0.000 OA
ENDROOT
BRANCH   1   4
ATOM      2  O   UNL     1     110.282 127.186 136.718  0.00  0.00    +0.000 OA
ATOM      3  O   UNL     1     110.668 125.378 135.072  0.00  0.00    +0.000 OA
ATOM      4  C   UNL     1     111.110 125.602 138.059  0.00  0.00    +0.000 A 
ATOM      5  C   UNL     1     110.783 126.351 137.795  0.00  0.00    +0.000 A 
ATOM      6  C   UNL     1     111.244 124.974 137.487  0.00  0.00    +0.000 A 
ATOM      7  C   UNL     1     110.595 126.464 136.964  0.00  0.00    +0.000 A 
ATOM      8  C   UNL     1     110.724 125.861 136.416  0.00  0.00    +0.000 A 
ATOM      9  C   UNL     1     110.098 127.306 135.923  0.00  0.00    +0.000 C 
ATOM     10  C   UNL     1     111.049 125.104 136.661  0.00  0.00    +0.000 A 
ATOM     11  C   UNL     1     110.226 126.703 135.375  0.00  0.00    +0.000 C 
ATOM     12  C   UNL     1     110.539 125.980 135.620  0.00  0.00    +0.000 C 
BRANCH   9  15
ATOM     13  O   UNL     1     107.931 129.168 135.848  0.00  0.00    +0.000 OA
ATOM     14  O   UNL     1     108.845 130.195 134.936  0.00  0.00    +0.000 OA
ATOM     15  C   UNL     1     109.785 128.028 135.676  0.00  0.00    +0.000 A 
ATOM     16  C   UNL     1     109.015 128.237 135.885  0.00  0.00    +0.000 A 
ATOM     17  C   UNL     1     110.242 128.542 135.220  0.00  0.00    +0.000 A 
ATOM     18  C   UNL     1     108.702 128.959 135.639  0.00  0.00    +0.000 A 
ATOM     19  C   UNL     1     109.929 129.265 134.973  0.00  0.00    +0.000 A 
ATOM     20  C   UNL     1     109.159 129.473 135.183  0.00  0.00    +0.000 A 
ENDBRANCH   9  15
BRANCH  10  21
ATOM     21  O   UNL     1     111.174 124.508 136.105  0.00  0.00    +0.000 OA
ATOM     22  C   UNL     1     111.764 123.944 136.230  0.00  0.00    +0.000 C 
ENDBRANCH  10  21
ENDBRANCH   1   4
BRANCH   1  30
ATOM     23  O   UNL     1     112.616 126.025 138.867  0.00  0.00    +0.000 OA
ATOM     24  O   UNL     1     112.126 127.174 141.003  0.00  0.00    +0.000 OA
ATOM     25  O   UNL     1     110.966 126.251 140.278  0.00  0.00    +0.000 OA
ATOM     26  C   UNL     1     113.032 126.870 139.942  0.00  0.00    +0.000 C 
ATOM     27  C   UNL     1     112.288 126.791 140.291  0.00  0.00    +0.000 C 
ATOM     28  C   UNL     1     113.195 126.486 139.230  0.00  0.00    +0.000 C 
ATOM     29  C   UNL     1     111.709 126.329 139.929  0.00  0.00    +0.000 C 
ATOM     30  C   UNL     1     111.873 125.946 139.217  0.00  0.00    +0.000 C 
BRANCH  28  32
ATOM     31  O   UNL     1     114.277 125.926 138.483  0.00  0.00    +0.000 OA
ATOM     32  C   UNL     1     113.939 126.565 138.880  0.00  0.00    +0.000 C 
ENDBRANCH  28  32
BRANCH  26  33
ATOM     33  O   UNL     1     113.612 127.332 140.304  0.00  0.00    +0.000 OA
BRANCH  33  38
ATOM     34  O   UNL     1     113.061 128.501 139.696  0.00  0.00    +0.000 OA
ATOM     35  O   UNL     1     114.771 128.255 141.030  0.00  0.00    +0.000 OA
ATOM     36  O   UNL     1     114.799 129.887 140.784  0.00  0.00    +0.000 OA
ATOM     37  O   UNL     1     113.669 130.594 139.813  0.00  0.00    +0.000 OA
ATOM     38  C   UNL     1     113.626 128.147 140.181  0.00  0.00    +0.000 C 
ATOM     39  C   UNL     1     114.205 128.608 140.544  0.00  0.00    +0.000 C 
ATOM     40  C   UNL     1     114.219 129.425 140.421  0.00  0.00    +0.000 C 
ATOM     41  C   UNL     1     113.654 129.778 139.936  0.00  0.00    +0.000 C 
ATOM     42  C   UNL     1     113.075 129.316 139.573  0.00  0.00    +0.000 C 
BRANCH  42  44
ATOM     43  O   UNL     1     112.518 129.530 138.274  0.00  0.00    +0.000 OA
ATOM     44  C   UNL     1     112.510 129.670 139.088  0.00  0.00    +0.000 C 
ENDBRANCH  42  44
ENDBRANCH  33  38
ENDBRANCH  26  33
ENDBRANCH   1  30
TORSDOF 8
ENDMDL
MODEL 3
REMARK VINA RESULT:      -9.7      2.252      3.332
REMARK  Name = 42608066
REMARK  8 active torsions:
REMARK  status: ('A' for Active; 'I' for Inactive)
REMARK    1  A    between atoms: O_1  and  C_17
REMARK    2  A    between atoms: O_1  and  C_20
REMARK    3  A    between atoms: O_5  and  C_26
REMARK    4  A    between atoms: O_5  and  C_29
REMARK    5  A    between atoms: O_13  and  C_35
REMARK    6  A    between atoms: C_19  and  C_27
REMARK    7  A    between atoms: C_25  and  C_28
REMARK    8  A    between atoms: C_34  and  C_38
REMARK                            x       y       z     vdW  Elec       q    Type
REMARK                         _______ _______ _______ _____ _____    ______ ____
ROOT
ATOM      1  O   UNL     1     110.665 128.612 134.612  0.00  0.00    +0.000 OA
ENDROOT
BRANCH   1   4
ATOM      2  O   UNL     1     112.251 126.720 136.156  0.00  0.00    +0.000 OA
ATOM      3  O   UNL     1     110.715 124.886 135.519  0.00  0.00    +0.000 OA
ATOM      4  C   UNL     1     110.799 127.845 134.885  0.00  0.00    +0.000 A 
ATOM      5  C   UNL     1     111.472 127.677 135.391  0.00  0.00    +0.000 A 
ATOM      6  C   UNL     1     110.265 127.209 134.663  0.00  0.00    +0.000 A 
ATOM      7  C   UNL     1     111.603 126.875 135.670  0.00  0.00    +0.000 A 
ATOM      8  C   UNL     1     111.091 126.264 135.457  0.00  0.00    +0.000 A 
ATOM      9  C   UNL     1     112.387 125.954 136.430  0.00  0.00    +0.000 C 
ATOM     10  C   UNL     1     110.413 126.413 134.952  0.00  0.00    +0.000 A 
ATOM     11  C   UNL     1     111.875 125.343 136.217  0.00  0.00    +0.000 C 
ATOM     12  C   UNL     1     111.227 125.498 135.731  0.00  0.00    +0.000 C 
BRANCH   9  15
ATOM     13  O   UNL     1     113.668 126.132 138.979  0.00  0.00    +0.000 OA
ATOM     14  O   UNL     1     114.979 125.333 138.376  0.00  0.00    +0.000 OA
ATOM     15  C   UNL     1     113.035 125.799 136.916  0.00  0.00    +0.000 A 
ATOM     16  C   UNL     1     113.028 126.043 137.704  0.00  0.00    +0.000 A 
ATOM     17  C   UNL     1     113.691 125.400 136.614  0.00  0.00    +0.000 A 
ATOM     18  C   UNL     1     113.676 125.888 138.190  0.00  0.00    +0.000 A 
ATOM     19  C   UNL     1     114.340 125.244 137.101  0.00  0.00    +0.000 A 
ATOM     20  C   UNL     1     114.332 125.488 137.889  0.00  0.00    +0.000 A 
ENDBRANCH   9  15
BRANCH  10  21
ATOM     21  O   UNL     1     109.906 125.796 134.745  0.00  0.00    +0.000 OA
ATOM     22  C   UNL     1     109.096 125.863 134.884  0.00  0.00    +0.000 C 
ENDBRANCH  10  21
ENDBRANCH   1   4
BRANCH   1  30
ATOM     23  O   UNL     1     109.668 129.076 135.524  0.00  0.00    +0.000 OA
ATOM     24  O   UNL     1     110.961 131.155 135.883  0.00  0.00    +0.000 OA
ATOM     25  O   UNL     1     111.527 129.998 134.851  0.00  0.00    +0.000 OA
ATOM     26  C   UNL     1     109.815 130.347 136.160  0.00  0.00    +0.000 C 
ATOM     27  C   UNL     1     110.530 130.462 135.763  0.00  0.00    +0.000 C 
ATOM     28  C   UNL     1     109.384 129.654 136.040  0.00  0.00    +0.000 C 
ATOM     29  C   UNL     1     110.813 129.883 135.247  0.00  0.00    +0.000 C 
ATOM     30  C   UNL     1     110.382 129.191 135.128  0.00  0.00    +0.000 C 
BRANCH  28  32
ATOM     31  O   UNL     1     108.021 129.227 136.033  0.00  0.00    +0.000 OA
ATOM     32  C   UNL     1     108.669 129.539 136.436  0.00  0.00    +0.000 C 
ENDBRANCH  28  32
BRANCH  26  33
ATOM     33  O   UNL     1     109.532 130.925 136.676  0.00  0.00    +0.000 OA
BRANCH  33  38
ATOM     34  O   UNL     1     110.198 130.339 137.796  0.00  0.00    +0.000 OA
ATOM     35  O   UNL     1     109.475 132.372 137.467  0.00  0.00    +0.000 OA
ATOM     36  O   UNL     1     110.113 132.509 138.982  0.00  0.00    +0.000 OA
ATOM     37  O   UNL     1     110.807 131.200 139.706  0.00  0.00    +0.000 OA
ATOM     38  C   UNL     1     109.851 130.993 137.433  0.00  0.00    +0.000 C 
ATOM     39  C   UNL     1     109.822 131.717 137.828  0.00  0.00    +0.000 C 
ATOM     40  C   UNL     1     110.141 131.786 138.587  0.00  0.00    +0.000 C 
ATOM     41  C   UNL     1     110.489 131.130 138.948  0.00  0.00    +0.000 C 
ATOM     42  C   UNL     1     110.517 130.407 138.553  0.00  0.00    +0.000 C 
BRANCH  42  44
ATOM     43  O   UNL     1     111.589 129.467 138.644  0.00  0.00    +0.000 OA
ATOM     44  C   UNL     1     110.864 129.753 138.915  0.00  0.00    +0.000 C 
ENDBRANCH  42  44
ENDBRANCH  33  38
ENDBRANCH  26  33
ENDBRANCH   1  30
TORSDOF 8
ENDMDL
MODEL 4
REMARK VINA RESULT:      -9.7      2.306      3.496
REMARK  Name = 42608066
REMARK  8 active torsions:
REMARK  status: ('A' for Active; 'I' for Inactive)
REMARK    1  A    between atoms: O_1  and  C_17
REMARK    2  A    between atoms: O_1  and  C_20
REMARK    3  A    between atoms: O_5  and  C_26
REMARK    4  A    between atoms: O_5  and  C_29
REMARK    5  A    between atoms: O_13  and  C_35
REMARK    6  A    between atoms: C_19  and  C_27
REMARK    7  A    between atoms: C_25  and  C_28
REMARK    8  A    between atoms: C_34  and  C_38
REMARK                            x       y       z     vdW  Elec       q    Type
REMARK                         _______ _______ _______ _____ _____    ______ ____
ROOT
ATOM      1  O   UNL     1     111.531 129.540 135.051  0.00  0.00    +0.000 OA
ENDROOT
BRANCH   1   4
ATOM      2  O   UNL     1     112.111 126.908 136.154  0.00  0.00    +0.000 OA
ATOM      3  O   UNL     1     114.535 127.412 136.125  0.00  0.00    +0.000 OA
ATOM      4  C   UNL     1     112.074 128.979 135.316  0.00  0.00    +0.000 A 
ATOM      5  C   UNL     1     111.804 128.216 135.604  0.00  0.00    +0.000 A 
ATOM      6  C   UNL     1     112.916 129.154 135.306  0.00  0.00    +0.000 A 
ATOM      7  C   UNL     1     112.378 127.638 135.879  0.00  0.00    +0.000 A 
ATOM      8  C   UNL     1     113.186 127.807 135.869  0.00  0.00    +0.000 A 
ATOM      9  C   UNL     1     112.653 126.345 136.420  0.00  0.00    +0.000 C 
ATOM     10  C   UNL     1     113.475 128.564 135.584  0.00  0.00    +0.000 A 
ATOM     11  C   UNL     1     113.461 126.514 136.410  0.00  0.00    +0.000 C 
ATOM     12  C   UNL     1     113.728 127.244 136.135  0.00  0.00    +0.000 C 
BRANCH   9  15
ATOM     13  O   UNL     1     111.243 124.798 138.366  0.00  0.00    +0.000 OA
ATOM     14  O   UNL     1     111.589 123.423 137.523  0.00  0.00    +0.000 OA
ATOM     15  C   UNL     1     112.387 125.615 136.696  0.00  0.00    +0.000 A 
ATOM     16  C   UNL     1     111.948 125.572 137.393  0.00  0.00    +0.000 A 
ATOM     17  C   UNL     1     112.560 124.927 136.274  0.00  0.00    +0.000 A 
ATOM     18  C   UNL     1     111.682 124.841 137.668  0.00  0.00    +0.000 A 
ATOM     19  C   UNL     1     112.294 124.196 136.550  0.00  0.00    +0.000 A 
ATOM     20  C   UNL     1     111.856 124.153 137.247  0.00  0.00    +0.000 A 
ENDBRANCH   9  15
BRANCH  10  21
ATOM     21  O   UNL     1     114.284 128.723 135.578  0.00  0.00    +0.000 OA
ATOM     22  C   UNL     1     114.612 129.170 134.967  0.00  0.00    +0.000 C 
ENDBRANCH  10  21
ENDBRANCH   1   4
BRANCH   1  30
ATOM     23  O   UNL     1     111.483 130.414 136.180  0.00  0.00    +0.000 OA
ATOM     24  O   UNL     1     109.012 130.445 136.052  0.00  0.00    +0.000 OA
ATOM     25  O   UNL     1     109.883 129.560 134.965  0.00  0.00    +0.000 OA
ATOM     26  C   UNL     1     110.224 130.866 136.681  0.00  0.00    +0.000 C 
ATOM     27  C   UNL     1     109.835 130.434 136.094  0.00  0.00    +0.000 C 
ATOM     28  C   UNL     1     111.047 130.856 136.723  0.00  0.00    +0.000 C 
ATOM     29  C   UNL     1     110.271 129.992 135.551  0.00  0.00    +0.000 C 
ATOM     30  C   UNL     1     111.095 129.982 135.594  0.00  0.00    +0.000 C 
BRANCH  28  32
ATOM     31  O   UNL     1     112.116 131.716 137.124  0.00  0.00    +0.000 OA
ATOM     32  C   UNL     1     111.436 131.288 137.309  0.00  0.00    +0.000 C 
ENDBRANCH  28  32
BRANCH  26  33
ATOM     33  O   UNL     1     109.788 131.309 137.224  0.00  0.00    +0.000 OA
BRANCH  33  38
ATOM     34  O   UNL     1     109.750 130.198 138.122  0.00  0.00    +0.000 OA
ATOM     35  O   UNL     1     108.658 132.088 138.140  0.00  0.00    +0.000 OA
ATOM     36  O   UNL     1     108.055 131.367 139.496  0.00  0.00    +0.000 OA
ATOM     37  O   UNL     1     108.583 129.867 139.936  0.00  0.00    +0.000 OA
ATOM     38  C   UNL     1     109.487 130.948 137.902  0.00  0.00    +0.000 C 
ATOM     39  C   UNL     1     108.922 131.338 138.359  0.00  0.00    +0.000 C 
ATOM     40  C   UNL     1     108.620 130.977 139.038  0.00  0.00    +0.000 C 
ATOM     41  C   UNL     1     108.884 130.227 139.258  0.00  0.00    +0.000 C 
ATOM     42  C   UNL     1     109.449 129.838 138.800  0.00  0.00    +0.000 C 
BRANCH  42  44
ATOM     43  O   UNL     1     109.472 128.424 138.594  0.00  0.00    +0.000 OA
ATOM     44  C   UNL     1     109.713 129.088 139.020  0.00  0.00    +0.000 C 
ENDBRANCH  42  44
ENDBRANCH  33  38
ENDBRANCH  26  33
ENDBRANCH   1  30
TORSDOF 8
ENDMDL
MODEL 5
REMARK VINA RESULT:      -9.6      1.768      4.526
REMARK  Name = 42608066
REMARK  8 active torsions:
REMARK  status: ('A' for Active; 'I' for Inactive)
REMARK    1  A    between atoms: O_1  and  C_17
REMARK    2  A    between atoms: O_1  and  C_20
REMARK    3  A    between atoms: O_5  and  C_26
REMARK    4  A    between atoms: O_5  and  C_29
REMARK    5  A    between atoms: O_13  and  C_35
REMARK    6  A    between atoms: C_19  and  C_27
REMARK    7  A    between atoms: C_25  and  C_28
REMARK    8  A    between atoms: C_34  and  C_38
REMARK                            x       y       z     vdW  Elec       q    Type
REMARK                         _______ _______ _______ _____ _____    ______ ____
ROOT
ATOM      1  O   UNL     1     112.951 130.227 138.545  0.00  0.00    +0.000 OA
ENDROOT
BRANCH   1   4
ATOM      2  O   UNL     1     113.209 127.344 138.227  0.00  0.00    +0.000 OA
ATOM      3  O   UNL     1     113.595 127.093 140.659  0.00  0.00    +0.000 OA
ATOM      4  C   UNL     1     113.078 129.479 138.870  0.00  0.00    +0.000 A 
ATOM      5  C   UNL     1     113.078 128.783 138.367  0.00  0.00    +0.000 A 
ATOM      6  C   UNL     1     113.212 129.393 139.714  0.00  0.00    +0.000 A 
ATOM      7  C   UNL     1     113.211 128.008 138.715  0.00  0.00    +0.000 A 
ATOM      8  C   UNL     1     113.340 127.925 139.526  0.00  0.00    +0.000 A 
ATOM      9  C   UNL     1     113.336 126.595 138.549  0.00  0.00    +0.000 C 
ATOM     10  C   UNL     1     113.344 128.610 140.044  0.00  0.00    +0.000 A 
ATOM     11  C   UNL     1     113.465 126.512 139.360  0.00  0.00    +0.000 C 
ATOM     12  C   UNL     1     113.466 127.177 139.849  0.00  0.00    +0.000 C 
BRANCH   9  15
ATOM     13  O   UNL     1     111.904 124.555 137.150  0.00  0.00    +0.000 OA
ATOM     14  O   UNL     1     113.328 123.934 136.598  0.00  0.00    +0.000 OA
ATOM     15  C   UNL     1     113.334 125.930 138.062  0.00  0.00    +0.000 A 
ATOM     16  C   UNL     1     112.620 125.575 137.850  0.00  0.00    +0.000 A 
ATOM     17  C   UNL     1     114.047 125.619 137.785  0.00  0.00    +0.000 A 
ATOM     18  C   UNL     1     112.618 124.910 137.362  0.00  0.00    +0.000 A 
ATOM     19  C   UNL     1     114.045 124.953 137.297  0.00  0.00    +0.000 A 
ATOM     20  C   UNL     1     113.331 124.599 137.086  0.00  0.00    +0.000 A 
ENDBRANCH   9  15
BRANCH  10  21
ATOM     21  O   UNL     1     113.473 128.517 140.854  0.00  0.00    +0.000 OA
ATOM     22  C   UNL     1     113.070 128.994 141.393  0.00  0.00    +0.000 C 
ENDBRANCH  10  21
ENDBRANCH   1   4
BRANCH   1  30
ATOM     23  O   UNL     1     111.557 130.376 138.816  0.00  0.00    +0.000 OA
ATOM     24  O   UNL     1     111.205 131.251 136.528  0.00  0.00    +0.000 OA
ATOM     25  O   UNL     1     112.717 130.810 137.019  0.00  0.00    +0.000 OA
ATOM     26  C   UNL     1     110.683 130.888 137.807  0.00  0.00    +0.000 C 
ATOM     27  C   UNL     1     111.322 130.959 137.290  0.00  0.00    +0.000 C 
ATOM     28  C   UNL     1     110.801 130.597 138.570  0.00  0.00    +0.000 C 
ATOM     29  C   UNL     1     112.079 130.739 137.536  0.00  0.00    +0.000 C 
ATOM     30  C   UNL     1     112.195 130.447 138.299  0.00  0.00    +0.000 C 
BRANCH  28  32
ATOM     31  O   UNL     1     110.254 130.715 139.885  0.00  0.00    +0.000 OA
ATOM     32  C   UNL     1     110.161 130.526 139.087  0.00  0.00    +0.000 C 
ENDBRANCH  28  32
BRANCH  26  33
ATOM     33  O   UNL     1     109.927 131.109 137.562  0.00  0.00    +0.000 OA
BRANCH  33  38
ATOM     34  O   UNL     1     109.665 129.796 137.061  0.00  0.00    +0.000 OA
ATOM     35  O   UNL     1     108.673 131.700 136.667  0.00  0.00    +0.000 OA
ATOM     36  O   UNL     1     107.784 130.683 135.719  0.00  0.00    +0.000 OA
ATOM     37  O   UNL     1     108.150 129.076 135.666  0.00  0.00    +0.000 OA
ATOM     38  C   UNL     1     109.483 130.601 137.088  0.00  0.00    +0.000 C 
ATOM     39  C   UNL     1     108.856 130.896 136.641  0.00  0.00    +0.000 C 
ATOM     40  C   UNL     1     108.411 130.387 136.166  0.00  0.00    +0.000 C 
ATOM     41  C   UNL     1     108.594 129.584 136.140  0.00  0.00    +0.000 C 
ATOM     42  C   UNL     1     109.222 129.288 136.587  0.00  0.00    +0.000 C 
BRANCH  42  44
ATOM     43  O   UNL     1     109.250 128.004 137.213  0.00  0.00    +0.000 OA
ATOM     44  C   UNL     1     109.404 128.485 136.560  0.00  0.00    +0.000 C 
ENDBRANCH  42  44
ENDBRANCH  33  38
ENDBRANCH  26  33
ENDBRANCH   1  30
TORSDOF 8
ENDMDL
MODEL 6
REMARK VINA RESULT:      -9.6      2.349      4.795
REMARK  Name = 42608066
REMARK  8 active torsions:
REMARK  status: ('A' for Active; 'I' for Inactive)
REMARK    1  A    between atoms: O_1  and  C_17
REMARK    2  A    between atoms: O_1  and  C_20
REMARK    3  A    between atoms: O_5  and  C_26
REMARK    4  A    between atoms: O_5  and  C_29
REMARK    5  A    between atoms: O_13  and  C_35
REMARK    6  A    between atoms: C_19  and  C_27
REMARK    7  A    between atoms: C_25  and  C_28
REMARK    8  A    between atoms: C_34  and  C_38
REMARK                            x       y       z     vdW  Elec       q    Type
REMARK                         _______ _______ _______ _____ _____    ______ ____
ROOT
ATOM      1  O   UNL     1     111.315 127.337 135.213  0.00  0.00    +0.000 OA
ENDROOT
BRANCH   1   4
ATOM      2  O   UNL     1     112.233 126.803 137.924  0.00  0.00    +0.000 OA
ATOM      3  O   UNL     1     111.687 124.403 137.655  0.00  0.00    +0.000 OA
ATOM      4  C   UNL     1     111.449 126.809 135.832  0.00  0.00    +0.000 A 
ATOM      5  C   UNL     1     111.780 127.087 136.575  0.00  0.00    +0.000 A 
ATOM      6  C   UNL     1     111.259 125.976 135.738  0.00  0.00    +0.000 A 
ATOM      7  C   UNL     1     111.916 126.529 137.214  0.00  0.00    +0.000 A 
ATOM      8  C   UNL     1     111.734 125.729 137.124  0.00  0.00    +0.000 A 
ATOM      9  C   UNL     1     112.369 126.276 138.545  0.00  0.00    +0.000 C 
ATOM     10  C   UNL     1     111.402 125.433 136.388  0.00  0.00    +0.000 A 
ATOM     11  C   UNL     1     112.186 125.477 138.455  0.00  0.00    +0.000 C 
ATOM     12  C   UNL     1     111.869 125.203 137.744  0.00  0.00    +0.000 C 
BRANCH   9  15
ATOM     13  O   UNL     1     112.010 127.150 141.242  0.00  0.00    +0.000 OA
ATOM     14  O   UNL     1     113.638 127.369 141.388  0.00  0.00    +0.000 OA
ATOM     15  C   UNL     1     112.686 126.550 139.256  0.00  0.00    +0.000 A 
ATOM     16  C   UNL     1     112.189 126.713 139.894  0.00  0.00    +0.000 A 
ATOM     17  C   UNL     1     113.501 126.659 139.328  0.00  0.00    +0.000 A 
ATOM     18  C   UNL     1     112.507 126.987 140.604  0.00  0.00    +0.000 A 
ATOM     19  C   UNL     1     113.819 126.932 140.040  0.00  0.00    +0.000 A 
ATOM     20  C   UNL     1     113.321 127.096 140.677  0.00  0.00    +0.000 A 
ENDBRANCH   9  15
BRANCH  10  21
ATOM     21  O   UNL     1     111.224 124.632 136.308  0.00  0.00    +0.000 OA
ATOM     22  C   UNL     1     111.636 124.170 135.762  0.00  0.00    +0.000 C 
ENDBRANCH  10  21
ENDBRANCH   1   4
BRANCH   1  30
ATOM     23  O   UNL     1     109.943 127.617 135.497  0.00  0.00    +0.000 OA
ATOM     24  O   UNL     1     110.304 129.992 134.901  0.00  0.00    +0.000 OA
ATOM     25  O   UNL     1     111.555 128.920 134.815  0.00  0.00    +0.000 OA
ATOM     26  C   UNL     1     109.437 128.945 135.341  0.00  0.00    +0.000 C 
ATOM     27  C   UNL     1     110.184 129.200 135.099  0.00  0.00    +0.000 C 
ATOM     28  C   UNL     1     109.317 128.153 135.540  0.00  0.00    +0.000 C 
ATOM     29  C   UNL     1     110.810 128.665 135.057  0.00  0.00    +0.000 C 
ATOM     30  C   UNL     1     110.689 127.873 135.256  0.00  0.00    +0.000 C 
BRANCH  28  32
ATOM     31  O   UNL     1     108.346 127.112 135.663  0.00  0.00    +0.000 OA
ATOM     32  C   UNL     1     108.570 127.897 135.781  0.00  0.00    +0.000 C 
ENDBRANCH  28  32
BRANCH  26  33
ATOM     33  O   UNL     1     108.811 129.480 135.384  0.00  0.00    +0.000 OA
BRANCH  33  38
ATOM     34  O   UNL     1     109.127 129.788 136.743  0.00  0.00    +0.000 OA
ATOM     35  O   UNL     1     107.866 130.830 135.297  0.00  0.00    +0.000 OA
ATOM     36  O   UNL     1     107.710 131.813 136.613  0.00  0.00    +0.000 OA
ATOM     37  O   UNL     1     108.498 131.446 138.015  0.00  0.00    +0.000 OA
ATOM     38  C   UNL     1     108.733 129.971 136.041  0.00  0.00    +0.000 C 
ATOM     39  C   UNL     1     108.261 130.646 135.998  0.00  0.00    +0.000 C 
ATOM     40  C   UNL     1     108.182 131.138 136.657  0.00  0.00    +0.000 C 
ATOM     41  C   UNL     1     108.577 130.954 137.357  0.00  0.00    +0.000 C 
ATOM     42  C   UNL     1     109.049 130.279 137.400  0.00  0.00    +0.000 C 
BRANCH  42  44
ATOM     43  O   UNL     1     109.203 129.449 138.553  0.00  0.00    +0.000 OA
ATOM     44  C   UNL     1     109.443 130.096 138.101  0.00  0.00    +0.000 C 
ENDBRANCH  42  44
ENDBRANCH  33  38
ENDBRANCH  26  33
ENDBRANCH   1  30
TORSDOF 8
ENDMDL
MODEL 7
REMARK VINA RESULT:      -9.5      2.081      4.463
REMARK  Name = 42608066
REMARK  8 active torsions:
REMARK  status: ('A' for Active; 'I' for Inactive)
REMARK    1  A    between atoms: O_1  and  C_17
REMARK    2  A    between atoms: O_1  and  C_20
REMARK    3  A    between atoms: O_5  and  C_26
REMARK    4  A    between atoms: O_5  and  C_29
REMARK    5  A    between atoms: O_13  and  C_35
REMARK    6  A    between atoms: C_19  and  C_27
REMARK    7  A    between atoms: C_25  and  C_28
REMARK    8  A    between atoms: C_34  and  C_38
REMARK                            x       y       z     vdW  Elec       q    Type
REMARK                         _______ _______ _______ _____ _____    ______ ____
ROOT
ATOM      1  O   UNL     1     112.198 129.862 138.348  0.00  0.00    +0.000 OA
ENDROOT
BRANCH   1   4
ATOM      2  O   UNL     1     112.980 127.250 137.326  0.00  0.00    +0.000 OA
ATOM      3  O   UNL     1     114.271 128.328 135.509  0.00  0.00    +0.000 OA
ATOM      4  C   UNL     1     112.603 129.401 137.797  0.00  0.00    +0.000 A 
ATOM      5  C   UNL     1     112.581 128.544 137.849  0.00  0.00    +0.000 A 
ATOM      6  C   UNL     1     113.051 129.776 137.167  0.00  0.00    +0.000 A 
ATOM      7  C   UNL     1     113.006 128.073 137.270  0.00  0.00    +0.000 A 
ATOM      8  C   UNL     1     113.436 128.433 136.665  0.00  0.00    +0.000 A 
ATOM      9  C   UNL     1     113.384 126.787 136.775  0.00  0.00    +0.000 C 
ATOM     10  C   UNL     1     113.470 129.288 136.597  0.00  0.00    +0.000 A 
ATOM     11  C   UNL     1     113.814 127.147 136.170  0.00  0.00    +0.000 C 
ATOM     12  C   UNL     1     113.841 127.970 136.114  0.00  0.00    +0.000 C 
BRANCH   9  15
ATOM     13  O   UNL     1     112.007 124.320 136.347  0.00  0.00    +0.000 OA
ATOM     14  O   UNL     1     113.281 123.496 136.995  0.00  0.00    +0.000 OA
ATOM     15  C   UNL     1     113.359 125.964 136.830  0.00  0.00    +0.000 A 
ATOM     16  C   UNL     1     112.696 125.553 136.561  0.00  0.00    +0.000 A 
ATOM     17  C   UNL     1     113.996 125.553 137.155  0.00  0.00    +0.000 A 
ATOM     18  C   UNL     1     112.670 124.731 136.616  0.00  0.00    +0.000 A 
ATOM     19  C   UNL     1     113.970 124.729 137.210  0.00  0.00    +0.000 A 
ATOM     20  C   UNL     1     113.307 124.319 136.941  0.00  0.00    +0.000 A 
ENDBRANCH   9  15
BRANCH  10  21
ATOM     21  O   UNL     1     113.903 129.639 135.988  0.00  0.00    +0.000 OA
ATOM     22  C   UNL     1     114.356 130.312 136.139  0.00  0.00    +0.000 C 
ENDBRANCH  10  21
ENDBRANCH   1   4
BRANCH   1  30
ATOM     23  O   UNL     1     110.824 129.560 138.104  0.00  0.00    +0.000 OA
ATOM     24  O   UNL     1     110.330 131.976 137.890  0.00  0.00    +0.000 OA
ATOM     25  O   UNL     1     111.870 131.473 138.205  0.00  0.00    +0.000 OA
ATOM     26  C   UNL     1     109.889 130.617 137.875  0.00  0.00    +0.000 C 
ATOM     27  C   UNL     1     110.495 131.171 137.961  0.00  0.00    +0.000 C 
ATOM     28  C   UNL     1     110.054 129.812 137.946  0.00  0.00    +0.000 C 
ATOM     29  C   UNL     1     111.265 130.920 138.119  0.00  0.00    +0.000 C 
ATOM     30  C   UNL     1     111.429 130.114 138.190  0.00  0.00    +0.000 C 
BRANCH  28  32
ATOM     31  O   UNL     1     109.403 128.614 138.374  0.00  0.00    +0.000 OA
ATOM     32  C   UNL     1     109.448 129.258 137.860  0.00  0.00    +0.000 C 
ENDBRANCH  28  32
BRANCH  26  33
ATOM     33  O   UNL     1     109.120 130.868 137.717  0.00  0.00    +0.000 OA
BRANCH  33  38
ATOM     34  O   UNL     1     109.378 130.811 136.313  0.00  0.00    +0.000 OA
ATOM     35  O   UNL     1     107.677 131.613 137.421  0.00  0.00    +0.000 OA
ATOM     36  O   UNL     1     107.214 131.927 135.869  0.00  0.00    +0.000 OA
ATOM     37  O   UNL     1     108.193 131.497 134.614  0.00  0.00    +0.000 OA
ATOM     38  C   UNL     1     108.888 131.025 136.941  0.00  0.00    +0.000 C 
ATOM     39  C   UNL     1     108.167 131.398 136.794  0.00  0.00    +0.000 C 
ATOM     40  C   UNL     1     107.935 131.555 136.017  0.00  0.00    +0.000 C 
ATOM     41  C   UNL     1     108.425 131.340 135.389  0.00  0.00    +0.000 C 
ATOM     42  C   UNL     1     109.146 130.968 135.537  0.00  0.00    +0.000 C 
BRANCH  42  44
ATOM     43  O   UNL     1     109.651 129.971 134.646  0.00  0.00    +0.000 OA
ATOM     44  C   UNL     1     109.635 130.753 134.909  0.00  0.00    +0.000 C 
ENDBRANCH  42  44
ENDBRANCH  33  38
ENDBRANCH  26  33
ENDBRANCH   1  30
TORSDOF 8
ENDMDL
MODEL 8
REMARK VINA RESULT:      -9.5      1.886      5.545
REMARK  Name = 42608066
REMARK  8 active torsions:
REMARK  status: ('A' for Active; 'I' for Inactive)
REMARK    1  A    between atoms: O_1  and  C_17
REMARK    2  A    between atoms: O_1  and  C_20
REMARK    3  A    between atoms: O_5  and  C_26
REMARK    4  A    between atoms: O_5  and  C_29
REMARK    5  A    between atoms: O_13  and  C_35
REMARK    6  A    between atoms: C_19  and  C_27
REMARK    7  A    between atoms: C_25  and  C_28
REMARK    8  A    between atoms: C_34  and  C_38
REMARK                            x       y       z     vdW  Elec       q    Type
REMARK                         _______ _______ _______ _____ _____    ______ ____
ROOT
ATOM      1  O   UNL     1     112.262 128.227 136.639  0.00  0.00    +0.000 OA
ENDROOT
BRANCH   1   4
ATOM      2  O   UNL     1     113.407 129.233 139.120  0.00  0.00    +0.000 OA
ATOM      3  O   UNL     1     113.543 126.928 140.012  0.00  0.00    +0.000 OA
ATOM      4  C   UNL     1     112.565 128.091 137.394  0.00  0.00    +0.000 A 
ATOM      5  C   UNL     1     112.835 128.748 137.877  0.00  0.00    +0.000 A 
ATOM      6  C   UNL     1     112.612 127.291 137.704  0.00  0.00    +0.000 A 
ATOM      7  C   UNL     1     113.149 128.597 138.662  0.00  0.00    +0.000 A 
ATOM      8  C   UNL     1     113.195 127.829 138.959  0.00  0.00    +0.000 A 
ATOM      9  C   UNL     1     113.711 129.100 139.876  0.00  0.00    +0.000 C 
ATOM     10  C   UNL     1     112.929 127.159 138.491  0.00  0.00    +0.000 A 
ATOM     11  C   UNL     1     113.756 128.331 140.173  0.00  0.00    +0.000 C 
ATOM     12  C   UNL     1     113.498 127.695 139.715  0.00  0.00    +0.000 C 
BRANCH   9  15
ATOM     13  O   UNL     1     113.208 131.064 141.891  0.00  0.00    +0.000 OA
ATOM     14  O   UNL     1     114.742 131.641 141.711  0.00  0.00    +0.000 OA
ATOM     15  C   UNL     1     113.969 129.735 140.334  0.00  0.00    +0.000 A 
ATOM     16  C   UNL     1     113.459 130.082 140.883  0.00  0.00    +0.000 A 
ATOM     17  C   UNL     1     114.736 130.024 140.244  0.00  0.00    +0.000 A 
ATOM     18  C   UNL     1     113.717 130.717 141.342  0.00  0.00    +0.000 A 
ATOM     19  C   UNL     1     114.995 130.660 140.704  0.00  0.00    +0.000 A 
ATOM     20  C   UNL     1     114.485 131.006 141.252  0.00  0.00    +0.000 A 
ENDBRANCH   9  15
BRANCH  10  21
ATOM     21  O   UNL     1     112.978 126.394 138.797  0.00  0.00    +0.000 OA
ATOM     22  C   UNL     1     113.178 125.765 138.302  0.00  0.00    +0.000 C 
ENDBRANCH  10  21
ENDBRANCH   1   4
BRANCH   1  30
ATOM     23  O   UNL     1     110.876 128.315 136.972  0.00  0.00    +0.000 OA
ATOM     24  O   UNL     1     110.624 130.229 135.425  0.00  0.00    +0.000 OA
ATOM     25  O   UNL     1     112.094 129.503 135.607  0.00  0.00    +0.000 OA
ATOM     26  C   UNL     1     110.056 129.316 136.365  0.00  0.00    +0.000 C 
ATOM     27  C   UNL     1     110.708 129.591 135.940  0.00  0.00    +0.000 C 
ATOM     28  C   UNL     1     110.141 128.677 136.881  0.00  0.00    +0.000 C 
ATOM     29  C   UNL     1     111.444 129.228 136.031  0.00  0.00    +0.000 C 
ATOM     30  C   UNL     1     111.527 128.590 136.548  0.00  0.00    +0.000 C 
BRANCH  28  32
ATOM     31  O   UNL     1     109.373 127.591 137.404  0.00  0.00    +0.000 OA
ATOM     32  C   UNL     1     109.489 128.402 137.306  0.00  0.00    +0.000 C 
ENDBRANCH  28  32
BRANCH  26  33
ATOM     33  O   UNL     1     109.321 129.679 136.274  0.00  0.00    +0.000 OA
BRANCH  33  38
ATOM     34  O   UNL     1     109.618 130.576 137.346  0.00  0.00    +0.000 OA
ATOM     35  O   UNL     1     107.977 130.562 135.907  0.00  0.00    +0.000 OA
ATOM     36  O   UNL     1     107.602 131.902 136.795  0.00  0.00    +0.000 OA
ATOM     37  O   UNL     1     108.571 132.357 138.049  0.00  0.00    +0.000 OA
ATOM     38  C   UNL     1     109.134 130.348 136.718  0.00  0.00    +0.000 C 
ATOM     39  C   UNL     1     108.462 130.790 136.534  0.00  0.00    +0.000 C 
ATOM     40  C   UNL     1     108.274 131.460 136.979  0.00  0.00    +0.000 C 
ATOM     41  C   UNL     1     108.759 131.687 137.606  0.00  0.00    +0.000 C 
ATOM     42  C   UNL     1     109.431 131.245 137.790  0.00  0.00    +0.000 C 
BRANCH  42  44
ATOM     43  O   UNL     1     110.647 131.823 138.268  0.00  0.00    +0.000 OA
ATOM     44  C   UNL     1     109.915 131.473 138.417  0.00  0.00    +0.000 C 
ENDBRANCH  42  44
ENDBRANCH  33  38
ENDBRANCH  26  33
ENDBRANCH   1  30
TORSDOF 8
ENDMDL
MODEL 9
REMARK VINA RESULT:      -9.5      2.651      4.209
REMARK  Name = 42608066
REMARK  8 active torsions:
REMARK  status: ('A' for Active; 'I' for Inactive)
REMARK    1  A    between atoms: O_1  and  C_17
REMARK    2  A    between atoms: O_1  and  C_20
REMARK    3  A    between atoms: O_5  and  C_26
REMARK    4  A    between atoms: O_5  and  C_29
REMARK    5  A    between atoms: O_13  and  C_35
REMARK    6  A    between atoms: C_19  and  C_27
REMARK    7  A    between atoms: C_25  and  C_28
REMARK    8  A    between atoms: C_34  and  C_38
REMARK                            x       y       z     vdW  Elec       q    Type
REMARK                         _______ _______ _______ _____ _____    ______ ____
ROOT
ATOM      1  O   UNL     1     108.851 128.280 135.719  0.00  0.00    +0.000 OA
ENDROOT
BRANCH   1   4
ATOM      2  O   UNL     1     109.804 126.912 138.107  0.00  0.00    +0.000 OA
ATOM      3  O   UNL     1     110.884 125.180 136.705  0.00  0.00    +0.000 OA
ATOM      4  C   UNL     1     109.263 127.658 136.071  0.00  0.00    +0.000 A 
ATOM      5  C   UNL     1     109.321 127.606 136.927  0.00  0.00    +0.000 A 
ATOM      6  C   UNL     1     109.638 127.057 135.584  0.00  0.00    +0.000 A 
ATOM      7  C   UNL     1     109.753 126.955 137.284  0.00  0.00    +0.000 A 
ATOM      8  C   UNL     1     110.112 126.378 136.817  0.00  0.00    +0.000 A 
ATOM      9  C   UNL     1     110.216 126.291 138.461  0.00  0.00    +0.000 C 
ATOM     10  C   UNL     1     110.065 126.413 135.960  0.00  0.00    +0.000 A 
ATOM     11  C   UNL     1     110.576 125.714 137.994  0.00  0.00    +0.000 C 
ATOM     12  C   UNL     1     110.524 125.757 137.171  0.00  0.00    +0.000 C 
BRANCH   9  15
ATOM     13  O   UNL     1     109.243 125.285 140.953  0.00  0.00    +0.000 OA
ATOM     14  O   UNL     1     110.424 126.115 141.750  0.00  0.00    +0.000 OA
ATOM     15  C   UNL     1     110.268 126.247 139.283  0.00  0.00    +0.000 A 
ATOM     16  C   UNL     1     109.729 125.788 139.707  0.00  0.00    +0.000 A 
ATOM     17  C   UNL     1     110.859 126.663 139.682  0.00  0.00    +0.000 A 
ATOM     18  C   UNL     1     109.781 125.744 140.529  0.00  0.00    +0.000 A 
ATOM     19  C   UNL     1     110.912 126.619 140.505  0.00  0.00    +0.000 A 
ATOM     20  C   UNL     1     110.373 126.159 140.928  0.00  0.00    +0.000 A 
ENDBRANCH   9  15
BRANCH  10  21
ATOM     21  O   UNL     1     110.428 125.832 135.501  0.00  0.00    +0.000 OA
ATOM     22  C   UNL     1     110.213 125.737 134.709  0.00  0.00    +0.000 C 
ENDBRANCH  10  21
ENDBRANCH   1   4
BRANCH   1  30
ATOM     23  O   UNL     1     109.904 129.243 135.776  0.00  0.00    +0.000 OA
ATOM     24  O   UNL     1     108.252 131.019 136.271  0.00  0.00    +0.000 OA
ATOM     25  O   UNL     1     107.750 129.463 136.048  0.00  0.00    +0.000 OA
ATOM     26  C   UNL     1     109.605 130.613 136.052  0.00  0.00    +0.000 C 
ATOM     27  C   UNL     1     108.802 130.427 136.106  0.00  0.00    +0.000 C 
ATOM     28  C   UNL     1     110.155 130.021 135.888  0.00  0.00    +0.000 C 
ATOM     29  C   UNL     1     108.551 129.649 135.995  0.00  0.00    +0.000 C 
ATOM     30  C   UNL     1     109.102 129.058 135.830  0.00  0.00    +0.000 C 
BRANCH  28  32
ATOM     31  O   UNL     1     111.437 129.810 135.293  0.00  0.00    +0.000 OA
ATOM     32  C   UNL     1     110.958 130.207 135.834  0.00  0.00    +0.000 C 
ENDBRANCH  28  32
BRANCH  26  33
ATOM     33  O   UNL     1     109.856 131.391 136.163  0.00  0.00    +0.000 OA
BRANCH  33  38
ATOM     34  O   UNL     1     109.945 131.175 137.573  0.00  0.00    +0.000 OA
ATOM     35  O   UNL     1     110.077 133.009 136.398  0.00  0.00    +0.000 OA
ATOM     36  O   UNL     1     110.277 133.602 137.925  0.00  0.00    +0.000 OA
ATOM     37  O   UNL     1     110.255 132.576 139.217  0.00  0.00    +0.000 OA
ATOM     38  C   UNL     1     109.956 131.687 136.926  0.00  0.00    +0.000 C 
ATOM     39  C   UNL     1     110.066 132.496 137.044  0.00  0.00    +0.000 C 
ATOM     40  C   UNL     1     110.166 132.793 137.808  0.00  0.00    +0.000 C 
ATOM     41  C   UNL     1     110.155 132.280 138.453  0.00  0.00    +0.000 C 
ATOM     42  C   UNL     1     110.045 131.470 138.336  0.00  0.00    +0.000 C 
BRANCH  42  44
ATOM     43  O   UNL     1     110.643 130.412 139.086  0.00  0.00    +0.000 OA
ATOM     44  C   UNL     1     110.034 130.958 138.982  0.00  0.00    +0.000 C 
ENDBRANCH  42  44
ENDBRANCH  33  38
ENDBRANCH  26  33
ENDBRANCH   1  30
TORSDOF 8
ENDMDL
MODEL 10
REMARK VINA RESULT:      -9.4      2.702      5.229
REMARK  Name = 42608066
REMARK  8 active torsions:
REMARK  status: ('A' for Active; 'I' for Inactive)
REMARK    1  A    between atoms: O_1  and  C_17
REMARK    2  A    between atoms: O_1  and  C_20
REMARK    3  A    between atoms: O_5  and  C_26
REMARK    4  A    between atoms: O_5  and  C_29
REMARK    5  A    between atoms: O_13  and  C_35
REMARK    6  A    between atoms: C_19  and  C_27
REMARK    7  A    between atoms: C_25  and  C_28
REMARK    8  A    between atoms: C_34  and  C_38
REMARK                            x       y       z     vdW  Elec       q    Type
REMARK                         _______ _______ _______ _____ _____    ______ ____
ROOT
ATOM      1  O   UNL     1     109.981 126.534 136.120  0.00  0.00    +0.000 OA
ENDROOT
BRANCH   1   4
ATOM      2  O   UNL     1     110.974 126.825 138.843  0.00  0.00    +0.000 OA
ATOM      3  O   UNL     1     113.108 125.748 138.198  0.00  0.00    +0.000 OA
ATOM      4  C   UNL     1     110.578 126.427 136.680  0.00  0.00    +0.000 A 
ATOM      5  C   UNL     1     110.463 126.688 137.490  0.00  0.00    +0.000 A 
ATOM      6  C   UNL     1     111.318 126.053 136.456  0.00  0.00    +0.000 A 
ATOM      7  C   UNL     1     111.091 126.572 138.066  0.00  0.00    +0.000 A 
ATOM      8  C   UNL     1     111.802 126.213 137.851  0.00  0.00    +0.000 A 
ATOM      9  C   UNL     1     111.569 126.719 139.404  0.00  0.00    +0.000 C 
ATOM     10  C   UNL     1     111.934 125.945 137.045  0.00  0.00    +0.000 A 
ATOM     11  C   UNL     1     112.280 126.360 139.189  0.00  0.00    +0.000 C 
ATOM     12  C   UNL     1     112.397 126.106 138.412  0.00  0.00    +0.000 C 
BRANCH   9  15
ATOM     13  O   UNL     1     110.282 126.419 141.938  0.00  0.00    +0.000 OA
ATOM     14  O   UNL     1     111.104 127.729 142.511  0.00  0.00    +0.000 OA
ATOM     15  C   UNL     1     111.453 126.971 140.181  0.00  0.00    +0.000 A 
ATOM     16  C   UNL     1     110.925 126.569 140.671  0.00  0.00    +0.000 A 
ATOM     17  C   UNL     1     111.865 127.626 140.467  0.00  0.00    +0.000 A 
ATOM     18  C   UNL     1     110.809 126.822 141.448  0.00  0.00    +0.000 A 
ATOM     19  C   UNL     1     111.749 127.879 141.245  0.00  0.00    +0.000 A 
ATOM     20  C   UNL     1     111.221 127.477 141.734  0.00  0.00    +0.000 A 
ENDBRANCH   9  15
BRANCH  10  21
ATOM     21  O   UNL     1     112.648 125.587 136.840  0.00  0.00    +0.000 OA
ATOM     22  C   UNL     1     112.648 124.865 136.441  0.00  0.00    +0.000 C 
ENDBRANCH  10  21
ENDBRANCH   1   4
BRANCH   1  30
ATOM     23  O   UNL     1     110.288 127.869 135.715  0.00  0.00    +0.000 OA
ATOM     24  O   UNL     1     107.878 128.431 135.739  0.00  0.00    +0.000 OA
ATOM     25  O   UNL     1     108.375 126.909 136.136  0.00  0.00    +0.000 OA
ATOM     26  C   UNL     1     109.237 128.818 135.525  0.00  0.00    +0.000 C 
ATOM     27  C   UNL     1     108.681 128.243 135.731  0.00  0.00    +0.000 C 
ATOM     28  C   UNL     1     110.040 128.630 135.517  0.00  0.00    +0.000 C 
ATOM     29  C   UNL     1     108.929 127.482 135.930  0.00  0.00    +0.000 C 
ATOM     30  C   UNL     1     109.733 127.296 135.922  0.00  0.00    +0.000 C 
BRANCH  28  32
ATOM     31  O   UNL     1     111.250 128.999 134.852  0.00  0.00    +0.000 OA
ATOM     32  C   UNL     1     110.596 129.205 135.310  0.00  0.00    +0.000 C 
ENDBRANCH  28  32
BRANCH  26  33
ATOM     33  O   UNL     1     108.989 129.580 135.326  0.00  0.00    +0.000 OA
BRANCH  33  38
ATOM     34  O   UNL     1     109.086 129.995 136.690  0.00  0.00    +0.000 OA
ATOM     35  O   UNL     1     108.119 130.937 134.975  0.00  0.00    +0.000 OA
ATOM     36  O   UNL     1     107.781 132.031 136.163  0.00  0.00    +0.000 OA
ATOM     37  O   UNL     1     108.313 131.767 137.702  0.00  0.00    +0.000 OA
ATOM     38  C   UNL     1     108.820 130.126 135.920  0.00  0.00    +0.000 C 
ATOM     39  C   UNL     1     108.385 130.805 135.744  0.00  0.00    +0.000 C 
ATOM     40  C   UNL     1     108.216 131.352 136.339  0.00  0.00    +0.000 C 
ATOM     41  C   UNL     1     108.483 131.220 137.108  0.00  0.00    +0.000 C 
ATOM     42  C   UNL     1     108.917 130.541 137.284  0.00  0.00    +0.000 C 
BRANCH  42  44
ATOM     43  O   UNL     1     108.815 129.842 138.526  0.00  0.00    +0.000 OA
ATOM     44  C   UNL     1     109.183 130.409 138.053  0.00  0.00    +0.000 C 
ENDBRANCH  42  44
ENDBRANCH  33  38
ENDBRANCH  26  33
ENDBRANCH   1  30
TORSDOF 8
ENDMDL
