MODEL 1
REMARK VINA RESULT:     -11.0      0.000      0.000
REMARK  Name = 131832576
REMARK  6 active torsions:
REMARK  status: ('A' for Active; 'I' for Inactive)
REMARK    1  A    between atoms: O_6  and  C_29
REMARK    2  A    between atoms: O_6  and  C_37
REMARK    3  A    between atoms: C_21  and  C_24
REMARK    4  A    between atoms: C_23  and  C_25
REMARK    5  A    between atoms: C_30  and  C_36
REMARK    6  A    between atoms: C_39  and  C_40
REMARK                            x       y       z     vdW  Elec       q    Type
REMARK                         _______ _______ _______ _____ _____    ______ ____
ROOT
ATOM      1  O   UNL     1     106.269 127.236 144.716  0.00  0.00    +0.000 OA
ATOM      2  O   UNL     1     106.483 124.673 146.043  0.00  0.00    +0.000 OA
ATOM      3  O   UNL     1     106.831 127.085 147.537  0.00  0.00    +0.000 OA
ATOM      4  O   UNL     1     106.200 124.707 144.628  0.00  0.00    +0.000 OA
ATOM      5  C   UNL     1     106.657 125.878 146.790  0.00  0.00    +0.000 A 
ATOM      6  C   UNL     1     106.506 125.497 146.075  0.00  0.00    +0.000 A 
ATOM      7  C   UNL     1     106.680 126.703 146.822  0.00  0.00    +0.000 A 
ATOM      8  C   UNL     1     106.378 125.940 145.390  0.00  0.00    +0.000 A 
ATOM      9  C   UNL     1     106.401 126.764 145.421  0.00  0.00    +0.000 A 
ATOM     10  C   UNL     1     106.552 127.145 146.137  0.00  0.00    +0.000 A 
ATOM     11  C   UNL     1     106.222 125.531 144.651  0.00  0.00    +0.000 A 
ATOM     12  C   UNL     1     106.111 126.846 143.967  0.00  0.00    +0.000 A 
ATOM     13  C   UNL     1     106.087 125.987 143.935  0.00  0.00    +0.000 A 
ENDROOT
BRANCH   5  20
ATOM     14  O   UNL     1     106.145 125.200 147.939  0.00  0.00    +0.000 OA
ATOM     15  O   UNL     1     108.193 125.466 147.232  0.00  0.00    +0.000 OA
ATOM     16  O   UNL     1     108.448 124.582 148.601  0.00  0.00    +0.000 OA
ATOM     17  O   UNL     1     107.168 124.110 149.529  0.00  0.00    +0.000 OA
ATOM     18  C   UNL     1     107.553 125.230 147.695  0.00  0.00    +0.000 C 
ATOM     19  C   UNL     1     107.680 124.788 148.380  0.00  0.00    +0.000 C 
ATOM     20  C   UNL     1     106.785 125.436 147.474  0.00  0.00    +0.000 C 
ATOM     21  C   UNL     1     107.040 124.552 148.845  0.00  0.00    +0.000 C 
ATOM     22  C   UNL     1     106.273 124.758 148.623  0.00  0.00    +0.000 C 
BRANCH  22  24
ATOM     23  O   UNL     1     104.869 124.768 148.893  0.00  0.00    +0.000 OA
ATOM     24  C   UNL     1     105.632 124.522 149.087  0.00  0.00    +0.000 C 
ENDBRANCH  22  24
ENDBRANCH   5  20
BRANCH  12  28
ATOM     25  O   UNL     1     105.600 128.626 141.236  0.00  0.00    +0.000 OA
ATOM     26  O   UNL     1     104.320 128.136 142.154  0.00  0.00    +0.000 OA
ATOM     27  C   UNL     1     106.624 127.536 142.826  0.00  0.00    +0.000 A 
ATOM     28  C   UNL     1     105.984 127.290 143.285  0.00  0.00    +0.000 A 
ATOM     29  C   UNL     1     106.497 127.981 142.143  0.00  0.00    +0.000 A 
ATOM     30  C   UNL     1     105.216 127.491 143.061  0.00  0.00    +0.000 A 
ATOM     31  C   UNL     1     105.728 128.181 141.920  0.00  0.00    +0.000 A 
ATOM     32  C   UNL     1     105.087 127.936 142.378  0.00  0.00    +0.000 A 
BRANCH  27  33
ATOM     33  O   UNL     1     107.393 127.335 143.050  0.00  0.00    +0.000 OA
BRANCH  33  41
ATOM     34  O   UNL     1     107.887 126.601 141.928  0.00  0.00    +0.000 OA
ATOM     35  O   UNL     1     109.877 128.070 141.843  0.00  0.00    +0.000 OA
ATOM     36  O   UNL     1     108.720 128.314 142.994  0.00  0.00    +0.000 OA
ATOM     37  O   UNL     1     109.708 126.847 140.749  0.00  0.00    +0.000 OA
ATOM     38  C   UNL     1     109.214 127.581 141.871  0.00  0.00    +0.000 C 
ATOM     39  C   UNL     1     108.635 127.703 142.447  0.00  0.00    +0.000 C 
ATOM     40  C   UNL     1     109.129 126.969 141.325  0.00  0.00    +0.000 C 
ATOM     41  C   UNL     1     107.971 127.213 142.475  0.00  0.00    +0.000 C 
ATOM     42  C   UNL     1     108.465 126.479 141.353  0.00  0.00    +0.000 C 
BRANCH  42  45
ATOM     43  O   UNL     1     108.094 126.027 140.049  0.00  0.00    +0.000 OA
ATOM     44  O   UNL     1     108.585 125.095 141.015  0.00  0.00    +0.000 OA
ATOM     45  C   UNL     1     108.381 125.868 140.805  0.00  0.00    +0.000 C 
ENDBRANCH  42  45
ENDBRANCH  33  41
ENDBRANCH  27  33
ENDBRANCH  12  28
TORSDOF 6
ENDMDL
MODEL 2
REMARK VINA RESULT:     -10.8      6.298      9.454
REMARK  Name = 131832576
REMARK  6 active torsions:
REMARK  status: ('A' for Active; 'I' for Inactive)
REMARK    1  A    between atoms: O_6  and  C_29
REMARK    2  A    between atoms: O_6  and  C_37
REMARK    3  A    between atoms: C_21  and  C_24
REMARK    4  A    between atoms: C_23  and  C_25
REMARK    5  A    between atoms: C_30  and  C_36
REMARK    6  A    between atoms: C_39  and  C_40
REMARK                            x       y       z     vdW  Elec       q    Type
REMARK                         _______ _______ _______ _____ _____    ______ ____
ROOT
ATOM      1  O   UNL     1     113.389 128.939 139.554  0.00  0.00    +0.000 OA
ATOM      2  O   UNL     1     113.716 126.069 139.379  0.00  0.00    +0.000 OA
ATOM      3  O   UNL     1     112.428 127.487 137.259  0.00  0.00    +0.000 OA
ATOM      4  O   UNL     1     114.212 126.760 140.546  0.00  0.00    +0.000 OA
ATOM      5  C   UNL     1     113.072 126.777 138.320  0.00  0.00    +0.000 A 
ATOM      6  C   UNL     1     113.447 126.777 139.054  0.00  0.00    +0.000 A 
ATOM      7  C   UNL     1     112.803 127.487 137.993  0.00  0.00    +0.000 A 
ATOM      8  C   UNL     1     113.553 127.486 139.463  0.00  0.00    +0.000 A 
ATOM      9  C   UNL     1     113.284 128.195 139.138  0.00  0.00    +0.000 A 
ATOM     10  C   UNL     1     112.909 128.195 138.403  0.00  0.00    +0.000 A 
ATOM     11  C   UNL     1     113.945 127.473 140.227  0.00  0.00    +0.000 A 
ATOM     12  C   UNL     1     113.778 128.946 140.319  0.00  0.00    +0.000 A 
ATOM     13  C   UNL     1     114.059 128.207 140.658  0.00  0.00    +0.000 A 
ENDROOT
BRANCH   5  20
ATOM     14  O   UNL     1     113.556 125.793 137.405  0.00  0.00    +0.000 OA
ATOM     15  O   UNL     1     111.679 125.913 138.511  0.00  0.00    +0.000 OA
ATOM     16  O   UNL     1     111.468 124.497 137.692  0.00  0.00    +0.000 OA
ATOM     17  O   UNL     1     112.648 123.945 136.681  0.00  0.00    +0.000 OA
ATOM     18  C   UNL     1     112.270 125.637 138.006  0.00  0.00    +0.000 C 
ATOM     19  C   UNL     1     112.165 124.929 137.596  0.00  0.00    +0.000 C 
ATOM     20  C   UNL     1     112.966 126.070 137.910  0.00  0.00    +0.000 C 
ATOM     21  C   UNL     1     112.755 124.652 137.090  0.00  0.00    +0.000 C 
ATOM     22  C   UNL     1     113.451 125.085 136.995  0.00  0.00    +0.000 C 
BRANCH  22  24
ATOM     23  O   UNL     1     114.764 125.204 136.445  0.00  0.00    +0.000 OA
ATOM     24  C   UNL     1     114.042 124.809 136.489  0.00  0.00    +0.000 C 
ENDBRANCH  22  24
ENDBRANCH   5  20
BRANCH  12  28
ATOM     25  O   UNL     1     114.198 131.787 141.947  0.00  0.00    +0.000 OA
ATOM     26  O   UNL     1     115.328 131.287 140.854  0.00  0.00    +0.000 OA
ATOM     27  C   UNL     1     113.318 129.906 141.273  0.00  0.00    +0.000 A 
ATOM     28  C   UNL     1     113.883 129.656 140.726  0.00  0.00    +0.000 A 
ATOM     29  C   UNL     1     113.422 130.615 141.679  0.00  0.00    +0.000 A 
ATOM     30  C   UNL     1     114.553 130.116 140.586  0.00  0.00    +0.000 A 
ATOM     31  C   UNL     1     114.093 131.076 141.540  0.00  0.00    +0.000 A 
ATOM     32  C   UNL     1     114.658 130.827 140.993  0.00  0.00    +0.000 A 
BRANCH  27  33
ATOM     33  O   UNL     1     112.647 129.445 141.413  0.00  0.00    +0.000 OA
BRANCH  33  41
ATOM     34  O   UNL     1     111.575 130.323 141.064  0.00  0.00    +0.000 OA
ATOM     35  O   UNL     1     110.488 129.860 143.237  0.00  0.00    +0.000 OA
ATOM     36  O   UNL     1     111.922 129.136 142.862  0.00  0.00    +0.000 OA
ATOM     37  O   UNL     1     109.778 130.893 142.164  0.00  0.00    +0.000 OA
ATOM     38  C   UNL     1     110.850 130.015 142.513  0.00  0.00    +0.000 C 
ATOM     39  C   UNL     1     111.568 129.652 142.325  0.00  0.00    +0.000 C 
ATOM     40  C   UNL     1     110.496 130.531 141.976  0.00  0.00    +0.000 C 
ATOM     41  C   UNL     1     111.930 129.807 141.600  0.00  0.00    +0.000 C 
ATOM     42  C   UNL     1     110.858 130.685 141.251  0.00  0.00    +0.000 C 
BRANCH  42  45
ATOM     43  O   UNL     1     110.614 132.015 140.789  0.00  0.00    +0.000 OA
ATOM     44  O   UNL     1     110.036 130.903 140.102  0.00  0.00    +0.000 OA
ATOM     45  C   UNL     1     110.503 131.202 140.715  0.00  0.00    +0.000 C 
ENDBRANCH  42  45
ENDBRANCH  33  41
ENDBRANCH  27  33
ENDBRANCH  12  28
TORSDOF 6
ENDMDL
MODEL 3
REMARK VINA RESULT:     -10.7      3.424      6.742
REMARK  Name = 131832576
REMARK  6 active torsions:
REMARK  status: ('A' for Active; 'I' for Inactive)
REMARK    1  A    between atoms: O_6  and  C_29
REMARK    2  A    between atoms: O_6  and  C_37
REMARK    3  A    between atoms: C_21  and  C_24
REMARK    4  A    between atoms: C_23  and  C_25
REMARK    5  A    between atoms: C_30  and  C_36
REMARK    6  A    between atoms: C_39  and  C_40
REMARK                            x       y       z     vdW  Elec       q    Type
REMARK                         _______ _______ _______ _____ _____    ______ ____
ROOT
ATOM      1  O   UNL     1     110.590 125.807 140.134  0.00  0.00    +0.000 OA
ATOM      2  O   UNL     1     108.183 127.294 140.744  0.00  0.00    +0.000 OA
ATOM      3  O   UNL     1     108.344 124.516 141.393  0.00  0.00    +0.000 OA
ATOM      4  O   UNL     1     109.287 127.978 140.112  0.00  0.00    +0.000 OA
ATOM      5  C   UNL     1     108.264 125.906 141.068  0.00  0.00    +0.000 A 
ATOM      6  C   UNL     1     108.606 126.586 140.752  0.00  0.00    +0.000 A 
ATOM      7  C   UNL     1     108.686 125.196 141.077  0.00  0.00    +0.000 A 
ATOM      8  C   UNL     1     109.371 126.558 140.443  0.00  0.00    +0.000 A 
ATOM      9  C   UNL     1     109.793 125.849 140.452  0.00  0.00    +0.000 A 
ATOM     10  C   UNL     1     109.451 125.168 140.768  0.00  0.00    +0.000 A 
ATOM     11  C   UNL     1     109.716 127.273 140.117  0.00  0.00    +0.000 A 
ATOM     12  C   UNL     1     110.953 126.511 139.803  0.00  0.00    +0.000 A 
ATOM     13  C   UNL     1     110.512 127.250 139.794  0.00  0.00    +0.000 A 
ENDROOT
BRANCH   5  20
ATOM     14  O   UNL     1     107.378 126.159 142.161  0.00  0.00    +0.000 OA
ATOM     15  O   UNL     1     106.975 125.509 140.117  0.00  0.00    +0.000 OA
ATOM     16  O   UNL     1     105.446 125.564 140.734  0.00  0.00    +0.000 OA
ATOM     17  O   UNL     1     105.205 126.017 142.303  0.00  0.00    +0.000 OA
ATOM     18  C   UNL     1     106.855 125.735 140.901  0.00  0.00    +0.000 C 
ATOM     19  C   UNL     1     106.090 125.763 141.210  0.00  0.00    +0.000 C 
ATOM     20  C   UNL     1     107.499 125.933 141.376  0.00  0.00    +0.000 C 
ATOM     21  C   UNL     1     105.969 125.989 141.995  0.00  0.00    +0.000 C 
ATOM     22  C   UNL     1     106.614 126.187 142.470  0.00  0.00    +0.000 C 
BRANCH  22  24
ATOM     23  O   UNL     1     107.079 126.271 143.818  0.00  0.00    +0.000 OA
ATOM     24  C   UNL     1     106.494 126.414 143.254  0.00  0.00    +0.000 C 
ENDBRANCH  22  24
ENDBRANCH   5  20
BRANCH  12  28
ATOM     25  O   UNL     1     114.013 126.387 138.573  0.00  0.00    +0.000 OA
ATOM     26  O   UNL     1     113.770 126.848 140.138  0.00  0.00    +0.000 OA
ATOM     27  C   UNL     1     111.839 126.250 138.712  0.00  0.00    +0.000 A 
ATOM     28  C   UNL     1     111.717 126.480 139.495  0.00  0.00    +0.000 A 
ATOM     29  C   UNL     1     112.603 126.219 138.405  0.00  0.00    +0.000 A 
ATOM     30  C   UNL     1     112.361 126.680 139.971  0.00  0.00    +0.000 A 
ATOM     31  C   UNL     1     113.247 126.418 138.881  0.00  0.00    +0.000 A 
ATOM     32  C   UNL     1     113.127 126.649 139.663  0.00  0.00    +0.000 A 
BRANCH  27  33
ATOM     33  O   UNL     1     111.194 126.050 138.236  0.00  0.00    +0.000 OA
BRANCH  33  41
ATOM     34  O   UNL     1     111.634 124.781 137.749  0.00  0.00    +0.000 OA
ATOM     35  O   UNL     1     110.895 125.400 135.470  0.00  0.00    +0.000 OA
ATOM     36  O   UNL     1     110.701 126.463 136.717  0.00  0.00    +0.000 OA
ATOM     37  O   UNL     1     111.581 123.925 135.742  0.00  0.00    +0.000 OA
ATOM     38  C   UNL     1     111.141 125.194 136.229  0.00  0.00    +0.000 C 
ATOM     39  C   UNL     1     111.044 125.726 136.853  0.00  0.00    +0.000 C 
ATOM     40  C   UNL     1     111.484 124.456 136.366  0.00  0.00    +0.000 C 
ATOM     41  C   UNL     1     111.291 125.519 137.613  0.00  0.00    +0.000 C 
ATOM     42  C   UNL     1     111.730 124.250 137.126  0.00  0.00    +0.000 C 
BRANCH  42  45
ATOM     43  O   UNL     1     112.854 123.372 137.038  0.00  0.00    +0.000 OA
ATOM     44  O   UNL     1     111.634 122.913 137.622  0.00  0.00    +0.000 OA
ATOM     45  C   UNL     1     112.073 123.512 137.261  0.00  0.00    +0.000 C 
ENDBRANCH  42  45
ENDBRANCH  33  41
ENDBRANCH  27  33
ENDBRANCH  12  28
TORSDOF 6
ENDMDL
MODEL 4
REMARK VINA RESULT:     -10.5      7.006     10.218
REMARK  Name = 131832576
REMARK  6 active torsions:
REMARK  status: ('A' for Active; 'I' for Inactive)
REMARK    1  A    between atoms: O_6  and  C_29
REMARK    2  A    between atoms: O_6  and  C_37
REMARK    3  A    between atoms: C_21  and  C_24
REMARK    4  A    between atoms: C_23  and  C_25
REMARK    5  A    between atoms: C_30  and  C_36
REMARK    6  A    between atoms: C_39  and  C_40
REMARK                            x       y       z     vdW  Elec       q    Type
REMARK                         _______ _______ _______ _____ _____    ______ ____
ROOT
ATOM      1  O   UNL     1     111.507 127.595 136.988  0.00  0.00    +0.000 OA
ATOM      2  O   UNL     1     111.058 130.427 136.592  0.00  0.00    +0.000 OA
ATOM      3  O   UNL     1     108.870 128.598 136.402  0.00  0.00    +0.000 OA
ATOM      4  O   UNL     1     112.394 129.965 136.884  0.00  0.00    +0.000 OA
ATOM      5  C   UNL     1     109.965 129.513 136.497  0.00  0.00    +0.000 A 
ATOM      6  C   UNL     1     110.766 129.656 136.625  0.00  0.00    +0.000 A 
ATOM      7  C   UNL     1     109.673 128.741 136.530  0.00  0.00    +0.000 A 
ATOM      8  C   UNL     1     111.277 129.028 136.787  0.00  0.00    +0.000 A 
ATOM      9  C   UNL     1     110.985 128.257 136.821  0.00  0.00    +0.000 A 
ATOM     10  C   UNL     1     110.183 128.114 136.692  0.00  0.00    +0.000 A 
ATOM     11  C   UNL     1     112.110 129.191 136.919  0.00  0.00    +0.000 A 
ATOM     12  C   UNL     1     112.343 127.737 137.123  0.00  0.00    +0.000 A 
ATOM     13  C   UNL     1     112.647 128.541 137.088  0.00  0.00    +0.000 A 
ENDROOT
BRANCH   5  20
ATOM     14  O   UNL     1     109.135 130.582 136.954  0.00  0.00    +0.000 OA
ATOM     15  O   UNL     1     109.581 129.883 134.935  0.00  0.00    +0.000 OA
ATOM     16  O   UNL     1     108.559 131.137 134.612  0.00  0.00    +0.000 OA
ATOM     17  O   UNL     1     107.921 132.022 135.851  0.00  0.00    +0.000 OA
ATOM     18  C   UNL     1     109.262 130.325 135.555  0.00  0.00    +0.000 C 
ATOM     19  C   UNL     1     108.751 130.952 135.394  0.00  0.00    +0.000 C 
ATOM     20  C   UNL     1     109.454 130.139 136.335  0.00  0.00    +0.000 C 
ATOM     21  C   UNL     1     108.431 131.395 136.012  0.00  0.00    +0.000 C 
ATOM     22  C   UNL     1     108.624 131.209 136.793  0.00  0.00    +0.000 C 
BRANCH  22  24
ATOM     23  O   UNL     1     108.149 131.291 138.138  0.00  0.00    +0.000 OA
ATOM     24  C   UNL     1     108.305 131.651 137.412  0.00  0.00    +0.000 C 
ENDBRANCH  22  24
ENDBRANCH   5  20
BRANCH  12  28
ATOM     25  O   UNL     1     114.376 125.219 137.769  0.00  0.00    +0.000 OA
ATOM     26  O   UNL     1     114.367 125.910 136.271  0.00  0.00    +0.000 OA
ATOM     27  C   UNL     1     112.856 126.763 138.034  0.00  0.00    +0.000 A 
ATOM     28  C   UNL     1     112.851 127.108 137.285  0.00  0.00    +0.000 A 
ATOM     29  C   UNL     1     113.364 126.134 138.196  0.00  0.00    +0.000 A 
ATOM     30  C   UNL     1     113.355 126.824 136.697  0.00  0.00    +0.000 A 
ATOM     31  C   UNL     1     113.868 125.849 137.608  0.00  0.00    +0.000 A 
ATOM     32  C   UNL     1     113.864 126.194 136.858  0.00  0.00    +0.000 A 
BRANCH  27  33
ATOM     33  O   UNL     1     112.351 127.048 138.623  0.00  0.00    +0.000 OA
BRANCH  33  41
ATOM     34  O   UNL     1     113.270 127.380 139.666  0.00  0.00    +0.000 OA
ATOM     35  O   UNL     1     111.873 126.141 141.290  0.00  0.00    +0.000 OA
ATOM     36  O   UNL     1     111.420 126.221 139.705  0.00  0.00    +0.000 OA
ATOM     37  O   UNL     1     113.257 126.886 141.792  0.00  0.00    +0.000 OA
ATOM     38  C   UNL     1     112.338 126.553 140.749  0.00  0.00    +0.000 C 
ATOM     39  C   UNL     1     112.112 126.594 139.956  0.00  0.00    +0.000 C 
ATOM     40  C   UNL     1     113.030 126.926 140.999  0.00  0.00    +0.000 C 
ATOM     41  C   UNL     1     112.578 127.007 139.414  0.00  0.00    +0.000 C 
ATOM     42  C   UNL     1     113.496 127.339 140.458  0.00  0.00    +0.000 C 
BRANCH  42  45
ATOM     43  O   UNL     1     114.856 127.264 140.888  0.00  0.00    +0.000 OA
ATOM     44  O   UNL     1     114.211 128.534 140.782  0.00  0.00    +0.000 OA
ATOM     45  C   UNL     1     114.188 127.712 140.709  0.00  0.00    +0.000 C 
ENDBRANCH  42  45
ENDBRANCH  33  41
ENDBRANCH  27  33
ENDBRANCH  12  28
TORSDOF 6
ENDMDL
MODEL 5
REMARK VINA RESULT:     -10.5      6.446      9.322
REMARK  Name = 131832576
REMARK  6 active torsions:
REMARK  status: ('A' for Active; 'I' for Inactive)
REMARK    1  A    between atoms: O_6  and  C_29
REMARK    2  A    between atoms: O_6  and  C_37
REMARK    3  A    between atoms: C_21  and  C_24
REMARK    4  A    between atoms: C_23  and  C_25
REMARK    5  A    between atoms: C_30  and  C_36
REMARK    6  A    between atoms: C_39  and  C_40
REMARK                            x       y       z     vdW  Elec       q    Type
REMARK                         _______ _______ _______ _____ _____    ______ ____
ROOT
ATOM      1  O   UNL     1     110.356 128.332 137.289  0.00  0.00    +0.000 OA
ATOM      2  O   UNL     1     113.080 127.616 136.619  0.00  0.00    +0.000 OA
ATOM      3  O   UNL     1     111.508 125.871 138.248  0.00  0.00    +0.000 OA
ATOM      4  O   UNL     1     112.540 128.858 136.119  0.00  0.00    +0.000 OA
ATOM      5  C   UNL     1     112.294 126.744 137.433  0.00  0.00    +0.000 A 
ATOM      6  C   UNL     1     112.370 127.442 137.001  0.00  0.00    +0.000 A 
ATOM      7  C   UNL     1     111.583 126.570 137.816  0.00  0.00    +0.000 A 
ATOM      8  C   UNL     1     111.734 127.968 136.951  0.00  0.00    +0.000 A 
ATOM      9  C   UNL     1     111.024 127.793 137.334  0.00  0.00    +0.000 A 
ATOM     10  C   UNL     1     110.949 127.095 137.766  0.00  0.00    +0.000 A 
ATOM     11  C   UNL     1     111.826 128.691 136.499  0.00  0.00    +0.000 A 
ATOM     12  C   UNL     1     110.428 129.061 136.841  0.00  0.00    +0.000 A 
ATOM     13  C   UNL     1     111.169 129.242 136.443  0.00  0.00    +0.000 A 
ENDROOT
BRANCH   5  20
ATOM     14  O   UNL     1     113.027 125.636 136.908  0.00  0.00    +0.000 OA
ATOM     15  O   UNL     1     113.366 126.860 138.683  0.00  0.00    +0.000 OA
ATOM     16  O   UNL     1     114.634 125.809 138.783  0.00  0.00    +0.000 OA
ATOM     17  O   UNL     1     114.831 124.643 137.633  0.00  0.00    +0.000 OA
ATOM     18  C   UNL     1     113.464 126.277 138.108  0.00  0.00    +0.000 C 
ATOM     19  C   UNL     1     114.098 125.751 138.157  0.00  0.00    +0.000 C 
ATOM     20  C   UNL     1     112.928 126.219 137.483  0.00  0.00    +0.000 C 
ATOM     21  C   UNL     1     114.197 125.168 137.583  0.00  0.00    +0.000 C 
ATOM     22  C   UNL     1     113.661 125.110 136.958  0.00  0.00    +0.000 C 
BRANCH  22  24
ATOM     23  O   UNL     1     113.106 124.104 136.108  0.00  0.00    +0.000 OA
ATOM     24  C   UNL     1     113.760 124.527 136.383  0.00  0.00    +0.000 C 
ENDBRANCH  22  24
ENDBRANCH   5  20
BRANCH  12  28
ATOM     25  O   UNL     1     107.883 131.153 136.648  0.00  0.00    +0.000 OA
ATOM     26  O   UNL     1     108.089 129.994 135.492  0.00  0.00    +0.000 OA
ATOM     27  C   UNL     1     109.689 130.163 137.371  0.00  0.00    +0.000 A 
ATOM     28  C   UNL     1     109.792 129.584 136.793  0.00  0.00    +0.000 A 
ATOM     29  C   UNL     1     109.053 130.686 137.323  0.00  0.00    +0.000 A 
ATOM     30  C   UNL     1     109.259 129.527 136.167  0.00  0.00    +0.000 A 
ATOM     31  C   UNL     1     108.520 130.629 136.697  0.00  0.00    +0.000 A 
ATOM     32  C   UNL     1     108.622 130.050 136.118  0.00  0.00    +0.000 A 
BRANCH  27  33
ATOM     33  O   UNL     1     110.224 130.220 137.999  0.00  0.00    +0.000 OA
BRANCH  33  41
ATOM     34  O   UNL     1     109.358 130.079 139.127  0.00  0.00    +0.000 OA
ATOM     35  O   UNL     1     110.406 132.060 140.177  0.00  0.00    +0.000 OA
ATOM     36  O   UNL     1     110.922 131.541 138.699  0.00  0.00    +0.000 OA
ATOM     37  O   UNL     1     109.192 131.259 140.956  0.00  0.00    +0.000 OA
ATOM     38  C   UNL     1     110.057 131.400 139.827  0.00  0.00    +0.000 C 
ATOM     39  C   UNL     1     110.315 131.140 139.087  0.00  0.00    +0.000 C 
ATOM     40  C   UNL     1     109.450 130.999 140.216  0.00  0.00    +0.000 C 
ATOM     41  C   UNL     1     109.966 130.479 138.737  0.00  0.00    +0.000 C 
ATOM     42  C   UNL     1     109.100 130.339 139.866  0.00  0.00    +0.000 C 
BRANCH  42  45
ATOM     43  O   UNL     1     108.640 129.210 140.611  0.00  0.00    +0.000 OA
ATOM     44  O   UNL     1     107.737 130.269 140.290  0.00  0.00    +0.000 OA
ATOM     45  C   UNL     1     108.493 129.939 140.256  0.00  0.00    +0.000 C 
ENDBRANCH  42  45
ENDBRANCH  33  41
ENDBRANCH  27  33
ENDBRANCH  12  28
TORSDOF 6
ENDMDL
MODEL 6
REMARK VINA RESULT:     -10.4      6.504      8.951
REMARK  Name = 131832576
REMARK  6 active torsions:
REMARK  status: ('A' for Active; 'I' for Inactive)
REMARK    1  A    between atoms: O_6  and  C_29
REMARK    2  A    between atoms: O_6  and  C_37
REMARK    3  A    between atoms: C_21  and  C_24
REMARK    4  A    between atoms: C_23  and  C_25
REMARK    5  A    between atoms: C_30  and  C_36
REMARK    6  A    between atoms: C_39  and  C_40
REMARK                            x       y       z     vdW  Elec       q    Type
REMARK                         _______ _______ _______ _____ _____    ______ ____
ROOT
ATOM      1  O   UNL     1     112.473 128.646 139.550  0.00  0.00    +0.000 OA
ATOM      2  O   UNL     1     112.343 125.761 139.366  0.00  0.00    +0.000 OA
ATOM      3  O   UNL     1     113.231 127.293 137.123  0.00  0.00    +0.000 OA
ATOM      4  O   UNL     1     111.955 126.401 140.600  0.00  0.00    +0.000 OA
ATOM      5  C   UNL     1     112.787 126.527 138.245  0.00  0.00    +0.000 A 
ATOM      6  C   UNL     1     112.513 126.491 139.021  0.00  0.00    +0.000 A 
ATOM      7  C   UNL     1     112.957 127.258 137.900  0.00  0.00    +0.000 A 
ATOM      8  C   UNL     1     112.408 127.186 139.455  0.00  0.00    +0.000 A 
ATOM      9  C   UNL     1     112.578 127.916 139.110  0.00  0.00    +0.000 A 
ATOM     10  C   UNL     1     112.852 127.951 138.333  0.00  0.00    +0.000 A 
ATOM     11  C   UNL     1     112.122 127.136 140.263  0.00  0.00    +0.000 A 
ATOM     12  C   UNL     1     112.188 128.617 140.360  0.00  0.00    +0.000 A 
ATOM     13  C   UNL     1     112.011 127.855 140.718  0.00  0.00    +0.000 A 
ENDROOT
BRANCH   5  20
ATOM     14  O   UNL     1     112.259 125.508 137.394  0.00  0.00    +0.000 OA
ATOM     15  O   UNL     1     114.262 125.787 138.214  0.00  0.00    +0.000 OA
ATOM     16  O   UNL     1     114.471 124.399 137.348  0.00  0.00    +0.000 OA
ATOM     17  O   UNL     1     113.205 123.749 136.512  0.00  0.00    +0.000 OA
ATOM     18  C   UNL     1     113.629 125.463 137.797  0.00  0.00    +0.000 C 
ATOM     19  C   UNL     1     113.733 124.768 137.363  0.00  0.00    +0.000 C 
ATOM     20  C   UNL     1     112.892 125.833 137.812  0.00  0.00    +0.000 C 
ATOM     21  C   UNL     1     113.100 124.443 136.945  0.00  0.00    +0.000 C 
ATOM     22  C   UNL     1     112.363 124.813 136.960  0.00  0.00    +0.000 C 
BRANCH  22  24
ATOM     23  O   UNL     1     111.124 124.977 136.269  0.00  0.00    +0.000 OA
ATOM     24  C   UNL     1     111.730 124.489 136.542  0.00  0.00    +0.000 C 
ENDBRANCH  22  24
ENDBRANCH   5  20
BRANCH  12  28
ATOM     25  O   UNL     1     111.774 131.402 142.081  0.00  0.00    +0.000 OA
ATOM     26  O   UNL     1     113.239 130.643 142.078  0.00  0.00    +0.000 OA
ATOM     27  C   UNL     1     111.352 129.692 140.792  0.00  0.00    +0.000 A 
ATOM     28  C   UNL     1     112.084 129.313 140.790  0.00  0.00    +0.000 A 
ATOM     29  C   UNL     1     111.248 130.388 141.222  0.00  0.00    +0.000 A 
ATOM     30  C   UNL     1     112.714 129.630 141.219  0.00  0.00    +0.000 A 
ATOM     31  C   UNL     1     111.877 130.705 141.651  0.00  0.00    +0.000 A 
ATOM     32  C   UNL     1     112.610 130.327 141.650  0.00  0.00    +0.000 A 
BRANCH  27  33
ATOM     33  O   UNL     1     110.721 129.374 140.362  0.00  0.00    +0.000 OA
BRANCH  33  41
ATOM     34  O   UNL     1     110.351 130.481 139.538  0.00  0.00    +0.000 OA
ATOM     35  O   UNL     1     107.979 130.147 140.155  0.00  0.00    +0.000 OA
ATOM     36  O   UNL     1     109.139 129.151 140.774  0.00  0.00    +0.000 OA
ATOM     37  O   UNL     1     108.398 131.365 139.125  0.00  0.00    +0.000 OA
ATOM     38  C   UNL     1     108.769 130.258 139.950  0.00  0.00    +0.000 C 
ATOM     39  C   UNL     1     109.350 129.760 140.259  0.00  0.00    +0.000 C 
ATOM     40  C   UNL     1     108.980 130.867 139.435  0.00  0.00    +0.000 C 
ATOM     41  C   UNL     1     110.141 129.872 140.053  0.00  0.00    +0.000 C 
ATOM     42  C   UNL     1     109.771 130.979 139.229  0.00  0.00    +0.000 C 
BRANCH  42  45
ATOM     43  O   UNL     1     110.071 132.357 138.998  0.00  0.00    +0.000 OA
ATOM     44  O   UNL     1     110.100 131.428 137.912  0.00  0.00    +0.000 OA
ATOM     45  C   UNL     1     109.981 131.588 138.714  0.00  0.00    +0.000 C 
ENDBRANCH  42  45
ENDBRANCH  33  41
ENDBRANCH  27  33
ENDBRANCH  12  28
TORSDOF 6
ENDMDL
MODEL 7
REMARK VINA RESULT:     -10.4      6.382      7.717
REMARK  Name = 131832576
REMARK  6 active torsions:
REMARK  status: ('A' for Active; 'I' for Inactive)
REMARK    1  A    between atoms: O_6  and  C_29
REMARK    2  A    between atoms: O_6  and  C_37
REMARK    3  A    between atoms: C_21  and  C_24
REMARK    4  A    between atoms: C_23  and  C_25
REMARK    5  A    between atoms: C_30  and  C_36
REMARK    6  A    between atoms: C_39  and  C_40
REMARK                            x       y       z     vdW  Elec       q    Type
REMARK                         _______ _______ _______ _____ _____    ______ ____
ROOT
ATOM      1  O   UNL     1     111.504 131.863 142.585  0.00  0.00    +0.000 OA
ATOM      2  O   UNL     1     110.869 131.277 145.347  0.00  0.00    +0.000 OA
ATOM      3  O   UNL     1     112.428 133.584 144.702  0.00  0.00    +0.000 OA
ATOM      4  O   UNL     1     110.387 130.390 144.316  0.00  0.00    +0.000 OA
ATOM      5  C   UNL     1     111.648 132.430 145.025  0.00  0.00    +0.000 A 
ATOM      6  C   UNL     1     111.234 131.759 144.786  0.00  0.00    +0.000 A 
ATOM      7  C   UNL     1     112.014 132.912 144.463  0.00  0.00    +0.000 A 
ATOM      8  C   UNL     1     111.184 131.568 143.984  0.00  0.00    +0.000 A 
ATOM      9  C   UNL     1     111.549 132.050 143.422  0.00  0.00    +0.000 A 
ATOM     10  C   UNL     1     111.964 132.722 143.662  0.00  0.00    +0.000 A 
ATOM     11  C   UNL     1     110.749 130.866 143.748  0.00  0.00    +0.000 A 
ATOM     12  C   UNL     1     111.074 131.165 142.329  0.00  0.00    +0.000 A 
ATOM     13  C   UNL     1     110.694 130.663 142.915  0.00  0.00    +0.000 A 
ENDROOT
BRANCH   5  20
ATOM     14  O   UNL     1     112.312 132.316 146.285  0.00  0.00    +0.000 OA
ATOM     15  O   UNL     1     110.521 133.422 145.710  0.00  0.00    +0.000 OA
ATOM     16  O   UNL     1     110.621 133.803 147.312  0.00  0.00    +0.000 OA
ATOM     17  O   UNL     1     111.849 133.193 148.229  0.00  0.00    +0.000 OA
ATOM     18  C   UNL     1     111.135 133.117 146.168  0.00  0.00    +0.000 C 
ATOM     19  C   UNL     1     111.185 133.307 146.969  0.00  0.00    +0.000 C 
ATOM     20  C   UNL     1     111.698 132.621 145.825  0.00  0.00    +0.000 C 
ATOM     21  C   UNL     1     111.799 133.002 147.429  0.00  0.00    +0.000 C 
ATOM     22  C   UNL     1     112.363 132.506 147.086  0.00  0.00    +0.000 C 
BRANCH  22  24
ATOM     23  O   UNL     1     113.742 132.166 147.238  0.00  0.00    +0.000 OA
ATOM     24  C   UNL     1     112.977 132.201 147.544  0.00  0.00    +0.000 C 
ENDBRANCH  22  24
ENDBRANCH   5  20
BRANCH  12  28
ATOM     25  O   UNL     1     110.881 130.413 139.121  0.00  0.00    +0.000 OA
ATOM     26  O   UNL     1     109.807 131.473 139.787  0.00  0.00    +0.000 OA
ATOM     27  C   UNL     1     111.563 130.447 141.194  0.00  0.00    +0.000 A 
ATOM     28  C   UNL     1     111.026 130.977 141.527  0.00  0.00    +0.000 A 
ATOM     29  C   UNL     1     111.515 130.259 140.393  0.00  0.00    +0.000 A 
ATOM     30  C   UNL     1     110.440 131.319 141.058  0.00  0.00    +0.000 A 
ATOM     31  C   UNL     1     110.930 130.601 139.923  0.00  0.00    +0.000 A 
ATOM     32  C   UNL     1     110.392 131.131 140.255  0.00  0.00    +0.000 A 
BRANCH  27  33
ATOM     33  O   UNL     1     112.150 130.104 141.664  0.00  0.00    +0.000 OA
BRANCH  33  41
ATOM     34  O   UNL     1     113.360 130.558 141.054  0.00  0.00    +0.000 OA
ATOM     35  O   UNL     1     114.189 128.229 140.963  0.00  0.00    +0.000 OA
ATOM     36  O   UNL     1     112.703 128.550 141.603  0.00  0.00    +0.000 OA
ATOM     37  O   UNL     1     115.123 129.459 140.384  0.00  0.00    +0.000 OA
ATOM     38  C   UNL     1     113.913 129.005 140.993  0.00  0.00    +0.000 C 
ATOM     39  C   UNL     1     113.169 129.166 141.314  0.00  0.00    +0.000 C 
ATOM     40  C   UNL     1     114.379 129.621 140.704  0.00  0.00    +0.000 C 
ATOM     41  C   UNL     1     112.893 129.943 141.344  0.00  0.00    +0.000 C 
ATOM     42  C   UNL     1     114.102 130.397 140.734  0.00  0.00    +0.000 C 
BRANCH  42  45
ATOM     43  O   UNL     1     114.985 131.497 140.967  0.00  0.00    +0.000 OA
ATOM     44  O   UNL     1     114.621 131.143 139.631  0.00  0.00    +0.000 OA
ATOM     45  C   UNL     1     114.570 131.013 140.445  0.00  0.00    +0.000 C 
ENDBRANCH  42  45
ENDBRANCH  33  41
ENDBRANCH  27  33
ENDBRANCH  12  28
TORSDOF 6
ENDMDL
MODEL 8
REMARK VINA RESULT:     -10.3      6.050      9.188
REMARK  Name = 131832576
REMARK  6 active torsions:
REMARK  status: ('A' for Active; 'I' for Inactive)
REMARK    1  A    between atoms: O_6  and  C_29
REMARK    2  A    between atoms: O_6  and  C_37
REMARK    3  A    between atoms: C_21  and  C_24
REMARK    4  A    between atoms: C_23  and  C_25
REMARK    5  A    between atoms: C_30  and  C_36
REMARK    6  A    between atoms: C_39  and  C_40
REMARK                            x       y       z     vdW  Elec       q    Type
REMARK                         _______ _______ _______ _____ _____    ______ ____
ROOT
ATOM      1  O   UNL     1     113.688 129.448 138.501  0.00  0.00    +0.000 OA
ATOM      2  O   UNL     1     111.720 130.695 140.217  0.00  0.00    +0.000 OA
ATOM      3  O   UNL     1     113.821 129.132 141.361  0.00  0.00    +0.000 OA
ATOM      4  O   UNL     1     111.618 130.878 138.789  0.00  0.00    +0.000 OA
ATOM      5  C   UNL     1     112.770 129.914 140.789  0.00  0.00    +0.000 A 
ATOM      6  C   UNL     1     112.394 130.229 140.127  0.00  0.00    +0.000 A 
ATOM      7  C   UNL     1     113.445 129.447 140.698  0.00  0.00    +0.000 A 
ATOM      8  C   UNL     1     112.693 130.078 139.371  0.00  0.00    +0.000 A 
ATOM      9  C   UNL     1     113.367 129.612 139.281  0.00  0.00    +0.000 A 
ATOM     10  C   UNL     1     113.743 129.297 139.944  0.00  0.00    +0.000 A 
ATOM     11  C   UNL     1     112.292 130.413 138.689  0.00  0.00    +0.000 A 
ATOM     12  C   UNL     1     113.301 129.773 137.806  0.00  0.00    +0.000 A 
ATOM     13  C   UNL     1     112.598 130.259 137.901  0.00  0.00    +0.000 A 
ENDROOT
BRANCH   5  20
ATOM     14  O   UNL     1     111.911 129.558 141.874  0.00  0.00    +0.000 OA
ATOM     15  O   UNL     1     113.294 131.229 141.637  0.00  0.00    +0.000 OA
ATOM     16  O   UNL     1     112.698 131.529 143.146  0.00  0.00    +0.000 OA
ATOM     17  O   UNL     1     111.577 130.515 143.807  0.00  0.00    +0.000 OA
ATOM     18  C   UNL     1     112.734 130.722 141.967  0.00  0.00    +0.000 C 
ATOM     19  C   UNL     1     112.435 130.871 142.722  0.00  0.00    +0.000 C 
ATOM     20  C   UNL     1     112.472 130.064 141.543  0.00  0.00    +0.000 C 
ATOM     21  C   UNL     1     111.875 130.365 143.053  0.00  0.00    +0.000 C 
ATOM     22  C   UNL     1     111.613 129.707 142.628  0.00  0.00    +0.000 C 
BRANCH  22  24
ATOM     23  O   UNL     1     111.126 128.384 142.860  0.00  0.00    +0.000 OA
ATOM     24  C   UNL     1     111.052 129.200 142.958  0.00  0.00    +0.000 C 
ENDBRANCH  22  24
ENDBRANCH   5  20
BRANCH  12  28
ATOM     25  O   UNL     1     114.505 129.164 134.794  0.00  0.00    +0.000 OA
ATOM     26  O   UNL     1     115.027 130.479 135.641  0.00  0.00    +0.000 OA
ATOM     27  C   UNL     1     113.341 128.963 136.629  0.00  0.00    +0.000 A 
ATOM     28  C   UNL     1     113.602 129.621 137.053  0.00  0.00    +0.000 A 
ATOM     29  C   UNL     1     113.641 128.811 135.877  0.00  0.00    +0.000 A 
ATOM     30  C   UNL     1     114.164 130.127 136.724  0.00  0.00    +0.000 A 
ATOM     31  C   UNL     1     114.203 129.316 135.547  0.00  0.00    +0.000 A 
ATOM     32  C   UNL     1     114.465 129.974 135.970  0.00  0.00    +0.000 A 
BRANCH  27  33
ATOM     33  O   UNL     1     112.777 128.457 136.959  0.00  0.00    +0.000 OA
BRANCH  33  41
ATOM     34  O   UNL     1     113.458 127.200 136.950  0.00  0.00    +0.000 OA
ATOM     35  O   UNL     1     111.490 126.142 135.889  0.00  0.00    +0.000 OA
ATOM     36  O   UNL     1     111.464 127.751 136.252  0.00  0.00    +0.000 OA
ATOM     37  O   UNL     1     112.826 125.238 136.233  0.00  0.00    +0.000 OA
ATOM     38  C   UNL     1     112.145 126.494 136.242  0.00  0.00    +0.000 C 
ATOM     39  C   UNL     1     112.133 127.300 136.424  0.00  0.00    +0.000 C 
ATOM     40  C   UNL     1     112.814 126.043 136.415  0.00  0.00    +0.000 C 
ATOM     41  C   UNL     1     112.790 127.653 136.778  0.00  0.00    +0.000 C 
ATOM     42  C   UNL     1     113.471 126.396 136.768  0.00  0.00    +0.000 C 
BRANCH  42  45
ATOM     43  O   UNL     1     114.695 125.789 136.351  0.00  0.00    +0.000 OA
ATOM     44  O   UNL     1     114.251 125.646 137.702  0.00  0.00    +0.000 OA
ATOM     45  C   UNL     1     114.139 125.944 136.940  0.00  0.00    +0.000 C 
ENDBRANCH  42  45
ENDBRANCH  33  41
ENDBRANCH  27  33
ENDBRANCH  12  28
TORSDOF 6
ENDMDL
MODEL 9
REMARK VINA RESULT:     -10.3      5.965      7.585
REMARK  Name = 131832576
REMARK  6 active torsions:
REMARK  status: ('A' for Active; 'I' for Inactive)
REMARK    1  A    between atoms: O_6  and  C_29
REMARK    2  A    between atoms: O_6  and  C_37
REMARK    3  A    between atoms: C_21  and  C_24
REMARK    4  A    between atoms: C_23  and  C_25
REMARK    5  A    between atoms: C_30  and  C_36
REMARK    6  A    between atoms: C_39  and  C_40
REMARK                            x       y       z     vdW  Elec       q    Type
REMARK                         _______ _______ _______ _____ _____    ______ ____
ROOT
ATOM      1  O   UNL     1     112.410 131.423 142.460  0.00  0.00    +0.000 OA
ATOM      2  O   UNL     1     111.265 131.056 145.092  0.00  0.00    +0.000 OA
ATOM      3  O   UNL     1     112.454 133.559 144.392  0.00  0.00    +0.000 OA
ATOM      4  O   UNL     1     111.223 129.961 144.153  0.00  0.00    +0.000 OA
ATOM      5  C   UNL     1     111.859 132.307 144.742  0.00  0.00    +0.000 A 
ATOM      6  C   UNL     1     111.652 131.535 144.543  0.00  0.00    +0.000 A 
ATOM      7  C   UNL     1     112.247 132.786 144.192  0.00  0.00    +0.000 A 
ATOM      8  C   UNL     1     111.831 131.240 143.793  0.00  0.00    +0.000 A 
ATOM      9  C   UNL     1     112.218 131.718 143.243  0.00  0.00    +0.000 A 
ATOM     10  C   UNL     1     112.425 132.491 143.443  0.00  0.00    +0.000 A 
ATOM     11  C   UNL     1     111.610 130.433 143.597  0.00  0.00    +0.000 A 
ATOM     12  C   UNL     1     112.197 130.619 142.245  0.00  0.00    +0.000 A 
ATOM     13  C   UNL     1     111.794 130.121 142.818  0.00  0.00    +0.000 A 
ENDROOT
BRANCH   5  20
ATOM     14  O   UNL     1     112.201 132.477 146.119  0.00  0.00    +0.000 OA
ATOM     15  O   UNL     1     110.460 133.148 144.987  0.00  0.00    +0.000 OA
ATOM     16  O   UNL     1     110.103 133.738 146.485  0.00  0.00    +0.000 OA
ATOM     17  O   UNL     1     111.145 133.487 147.741  0.00  0.00    +0.000 OA
ATOM     18  C   UNL     1     110.981 133.022 145.614  0.00  0.00    +0.000 C 
ATOM     19  C   UNL     1     110.803 133.317 146.364  0.00  0.00    +0.000 C 
ATOM     20  C   UNL     1     111.681 132.602 145.491  0.00  0.00    +0.000 C 
ATOM     21  C   UNL     1     111.324 133.192 146.992  0.00  0.00    +0.000 C 
ATOM     22  C   UNL     1     112.023 132.772 146.869  0.00  0.00    +0.000 C 
BRANCH  22  24
ATOM     23  O   UNL     1     113.183 132.132 147.405  0.00  0.00    +0.000 OA
ATOM     24  C   UNL     1     112.544 132.646 147.496  0.00  0.00    +0.000 C 
ENDBRANCH  22  24
ENDBRANCH   5  20
BRANCH  12  28
ATOM     25  O   UNL     1     112.919 129.451 139.244  0.00  0.00    +0.000 OA
ATOM     26  O   UNL     1     113.964 129.210 140.497  0.00  0.00    +0.000 OA
ATOM     27  C   UNL     1     111.855 130.448 140.868  0.00  0.00    +0.000 A 
ATOM     28  C   UNL     1     112.377 130.328 141.495  0.00  0.00    +0.000 A 
ATOM     29  C   UNL     1     112.035 130.157 140.118  0.00  0.00    +0.000 A 
ATOM     30  C   UNL     1     113.081 129.915 141.371  0.00  0.00    +0.000 A 
ATOM     31  C   UNL     1     112.738 129.744 139.995  0.00  0.00    +0.000 A 
ATOM     32  C   UNL     1     113.261 129.622 140.621  0.00  0.00    +0.000 A 
BRANCH  27  33
ATOM     33  O   UNL     1     111.150 130.862 140.992  0.00  0.00    +0.000 OA
BRANCH  33  41
ATOM     34  O   UNL     1     110.177 129.939 140.499  0.00  0.00    +0.000 OA
ATOM     35  O   UNL     1     109.138 131.747 139.166  0.00  0.00    +0.000 OA
ATOM     36  O   UNL     1     110.458 132.067 140.103  0.00  0.00    +0.000 OA
ATOM     37  O   UNL     1     108.511 130.222 139.117  0.00  0.00    +0.000 OA
ATOM     38  C   UNL     1     109.484 131.145 139.610  0.00  0.00    +0.000 C 
ATOM     39  C   UNL     1     110.145 131.305 140.079  0.00  0.00    +0.000 C 
ATOM     40  C   UNL     1     109.171 130.382 139.586  0.00  0.00    +0.000 C 
ATOM     41  C   UNL     1     110.491 130.702 140.523  0.00  0.00    +0.000 C 
ATOM     42  C   UNL     1     109.517 129.779 140.030  0.00  0.00    +0.000 C 
BRANCH  42  45
ATOM     43  O   UNL     1     109.410 128.504 139.394  0.00  0.00    +0.000 OA
ATOM     44  O   UNL     1     108.681 128.766 140.594  0.00  0.00    +0.000 OA
ATOM     45  C   UNL     1     109.203 129.016 140.006  0.00  0.00    +0.000 C 
ENDBRANCH  42  45
ENDBRANCH  33  41
ENDBRANCH  27  33
ENDBRANCH  12  28
TORSDOF 6
ENDMDL
MODEL 10
REMARK VINA RESULT:     -10.2      8.219     10.465
REMARK  Name = 131832576
REMARK  6 active torsions:
REMARK  status: ('A' for Active; 'I' for Inactive)
REMARK    1  A    between atoms: O_6  and  C_29
REMARK    2  A    between atoms: O_6  and  C_37
REMARK    3  A    between atoms: C_21  and  C_24
REMARK    4  A    between atoms: C_23  and  C_25
REMARK    5  A    between atoms: C_30  and  C_36
REMARK    6  A    between atoms: C_39  and  C_40
REMARK                            x       y       z     vdW  Elec       q    Type
REMARK                         _______ _______ _______ _____ _____    ______ ____
ROOT
ATOM      1  O   UNL     1     111.686 128.691 138.511  0.00  0.00    +0.000 OA
ATOM      2  O   UNL     1     111.668 130.355 136.143  0.00  0.00    +0.000 OA
ATOM      3  O   UNL     1     109.291 130.075 137.705  0.00  0.00    +0.000 OA
ATOM      4  O   UNL     1     112.888 129.678 136.513  0.00  0.00    +0.000 OA
ATOM      5  C   UNL     1     110.480 130.215 136.924  0.00  0.00    +0.000 A 
ATOM      6  C   UNL     1     111.274 130.035 136.793  0.00  0.00    +0.000 A 
ATOM      7  C   UNL     1     110.085 129.894 137.575  0.00  0.00    +0.000 A 
ATOM      8  C   UNL     1     111.675 129.534 137.313  0.00  0.00    +0.000 A 
ATOM      9  C   UNL     1     111.280 129.213 137.963  0.00  0.00    +0.000 A 
ATOM     10  C   UNL     1     110.486 129.394 138.093  0.00  0.00    +0.000 A 
ATOM     11  C   UNL     1     112.501 129.354 137.165  0.00  0.00    +0.000 A 
ATOM     12  C   UNL     1     112.513 128.499 138.381  0.00  0.00    +0.000 A 
ATOM     13  C   UNL     1     112.924 128.833 137.703  0.00  0.00    +0.000 A 
ENDROOT
BRANCH   5  20
ATOM     14  O   UNL     1     110.098 131.531 136.522  0.00  0.00    +0.000 OA
ATOM     15  O   UNL     1     109.642 129.583 135.650  0.00  0.00    +0.000 OA
ATOM     16  O   UNL     1     108.840 130.585 134.612  0.00  0.00    +0.000 OA
ATOM     17  O   UNL     1     108.877 132.218 134.848  0.00  0.00    +0.000 OA
ATOM     18  C   UNL     1     109.660 130.400 135.768  0.00  0.00    +0.000 C 
ATOM     19  C   UNL     1     109.260 130.901 135.249  0.00  0.00    +0.000 C 
ATOM     20  C   UNL     1     110.080 130.715 136.405  0.00  0.00    +0.000 C 
ATOM     21  C   UNL     1     109.278 131.717 135.366  0.00  0.00    +0.000 C 
ATOM     22  C   UNL     1     109.697 132.032 136.003  0.00  0.00    +0.000 C 
BRANCH  22  24
ATOM     23  O   UNL     1     110.243 133.175 136.666  0.00  0.00    +0.000 OA
ATOM     24  C   UNL     1     109.716 132.849 136.121  0.00  0.00    +0.000 C 
ENDBRANCH  22  24
ENDBRANCH   5  20
BRANCH  12  28
ATOM     25  O   UNL     1     114.105 126.496 140.466  0.00  0.00    +0.000 OA
ATOM     26  O   UNL     1     114.146 128.129 140.696  0.00  0.00    +0.000 OA
ATOM     27  C   UNL     1     112.891 127.182 138.786  0.00  0.00    +0.000 A 
ATOM     28  C   UNL     1     112.911 127.999 138.902  0.00  0.00    +0.000 A 
ATOM     29  C   UNL     1     113.288 126.681 139.307  0.00  0.00    +0.000 A 
ATOM     30  C   UNL     1     113.329 128.314 139.538  0.00  0.00    +0.000 A 
ATOM     31  C   UNL     1     113.707 126.997 139.944  0.00  0.00    +0.000 A 
ATOM     32  C   UNL     1     113.728 127.814 140.060  0.00  0.00    +0.000 A 
BRANCH  27  33
ATOM     33  O   UNL     1     112.472 126.865 138.149  0.00  0.00    +0.000 OA
BRANCH  33  41
ATOM     34  O   UNL     1     113.454 126.005 137.568  0.00  0.00    +0.000 OA
ATOM     35  O   UNL     1     111.787 124.181 137.450  0.00  0.00    +0.000 OA
ATOM     36  O   UNL     1     111.360 125.649 138.070  0.00  0.00    +0.000 OA
ATOM     37  O   UNL     1     113.324 123.928 136.908  0.00  0.00    +0.000 OA
ATOM     38  C   UNL     1     112.342 124.789 137.489  0.00  0.00    +0.000 C 
ATOM     39  C   UNL     1     112.129 125.524 137.799  0.00  0.00    +0.000 C 
ATOM     40  C   UNL     1     113.111 124.663 137.219  0.00  0.00    +0.000 C 
ATOM     41  C   UNL     1     112.685 126.132 137.839  0.00  0.00    +0.000 C 
ATOM     42  C   UNL     1     113.667 125.272 137.258  0.00  0.00    +0.000 C 
BRANCH  42  45
ATOM     43  O   UNL     1     114.664 125.423 136.245  0.00  0.00    +0.000 OA
ATOM     44  O   UNL     1     114.978 124.739 137.460  0.00  0.00    +0.000 OA
ATOM     45  C   UNL     1     114.436 125.145 136.987  0.00  0.00    +0.000 C 
ENDBRANCH  42  45
ENDBRANCH  33  41
ENDBRANCH  27  33
ENDBRANCH  12  28
TORSDOF 6
ENDMDL
