MODEL 1
REMARK VINA RESULT:      -9.6      0.000      0.000
REMARK  Name = 42607522
REMARK  9 active torsions:
REMARK  status: ('A' for Active; 'I' for Inactive)
REMARK    1  A    between atoms: O_7  and  C_23
REMARK    2  A    between atoms: O_7  and  C_27
REMARK    3  A    between atoms: O_8  and  C_24
REMARK    4  A    between atoms: O_8  and  C_28
REMARK    5  A    between atoms: C_19  and  C_25
REMARK    6  A    between atoms: C_21  and  C_26
REMARK    7  A    between atoms: C_35  and  C_39
REMARK    8  A    between atoms: C_38  and  C_40
REMARK    9  A    between atoms: C_39  and  C_41
REMARK                            x       y       z     vdW  Elec       q    Type
REMARK                         _______ _______ _______ _____ _____    ______ ____
ROOT
ATOM      1  O   UNL     1     109.165 126.233 135.010  0.00  0.00    +0.000 OA
ATOM      2  C   UNL     1     109.717 126.550 135.536  0.00  0.00    +0.000 C 
ENDROOT
BRANCH   2   9
ATOM      3  O   UNL     1     110.883 125.744 134.692  0.00  0.00    +0.000 OA
ATOM      4  C   UNL     1     111.293 125.057 136.722  0.00  0.00    +0.000 A 
ATOM      5  C   UNL     1     111.351 125.151 135.905  0.00  0.00    +0.000 A 
ATOM      6  C   UNL     1     110.711 125.460 137.144  0.00  0.00    +0.000 A 
ATOM      7  C   UNL     1     110.826 125.649 135.509  0.00  0.00    +0.000 A 
ATOM      8  C   UNL     1     110.185 125.958 136.749  0.00  0.00    +0.000 A 
ATOM      9  C   UNL     1     110.242 126.053 135.931  0.00  0.00    +0.000 A 
BRANCH   4  10
ATOM     10  O   UNL     1     111.819 124.559 137.118  0.00  0.00    +0.000 OA
BRANCH  10  19
ATOM     11  O   UNL     1     112.569 125.513 137.873  0.00  0.00    +0.000 OA
ATOM     12  O   UNL     1     114.721 125.725 138.172  0.00  0.00    +0.000 OA
ATOM     13  O   UNL     1     114.672 124.401 137.189  0.00  0.00    +0.000 OA
ATOM     14  O   UNL     1     113.221 123.818 136.662  0.00  0.00    +0.000 OA
ATOM     15  C   UNL     1     113.995 125.433 137.908  0.00  0.00    +0.000 C 
ATOM     16  C   UNL     1     113.971 124.772 137.417  0.00  0.00    +0.000 C 
ATOM     17  C   UNL     1     113.294 125.803 138.136  0.00  0.00    +0.000 C 
ATOM     18  C   UNL     1     113.246 124.480 137.153  0.00  0.00    +0.000 C 
ATOM     19  C   UNL     1     112.545 124.851 137.382  0.00  0.00    +0.000 C 
BRANCH  17  21
ATOM     20  O   UNL     1     112.922 126.457 139.352  0.00  0.00    +0.000 OA
ATOM     21  C   UNL     1     113.319 126.466 138.628  0.00  0.00    +0.000 C 
ENDBRANCH  17  21
ENDBRANCH  10  19
ENDBRANCH   4  10
ENDBRANCH   2   9
BRANCH   2  23
ATOM     22  C   UNL     1     109.215 127.862 135.272  0.00  0.00    +0.000 C 
ATOM     23  C   UNL     1     109.743 127.364 135.666  0.00  0.00    +0.000 C 
BRANCH  22  29
ATOM     24  C   UNL     1     109.293 130.305 135.662  0.00  0.00    +0.000 A 
ATOM     25  C   UNL     1     109.789 129.961 135.099  0.00  0.00    +0.000 A 
ATOM     26  C   UNL     1     108.772 129.835 136.095  0.00  0.00    +0.000 A 
ATOM     27  C   UNL     1     109.763 129.147 134.969  0.00  0.00    +0.000 A 
ATOM     28  C   UNL     1     108.746 129.020 135.965  0.00  0.00    +0.000 A 
ATOM     29  C   UNL     1     109.241 128.677 135.402  0.00  0.00    +0.000 A 
BRANCH  24  30
ATOM     30  O   UNL     1     109.319 131.119 135.792  0.00  0.00    +0.000 OA
BRANCH  30  39
ATOM     31  O   UNL     1     110.457 131.206 136.652  0.00  0.00    +0.000 OA
ATOM     32  O   UNL     1     110.764 132.310 138.509  0.00  0.00    +0.000 OA
ATOM     33  O   UNL     1     109.210 132.733 138.148  0.00  0.00    +0.000 OA
ATOM     34  O   UNL     1     108.488 132.137 136.789  0.00  0.00    +0.000 OA
ATOM     35  C   UNL     1     110.403 132.013 137.830  0.00  0.00    +0.000 C 
ATOM     36  C   UNL     1     109.626 132.224 137.650  0.00  0.00    +0.000 C 
ATOM     37  C   UNL     1     110.818 131.504 137.331  0.00  0.00    +0.000 C 
ATOM     38  C   UNL     1     109.264 131.927 136.970  0.00  0.00    +0.000 C 
ATOM     39  C   UNL     1     109.680 131.417 136.471  0.00  0.00    +0.000 C 
BRANCH  37  41
ATOM     40  O   UNL     1     112.194 131.415 136.958  0.00  0.00    +0.000 OA
ATOM     41  C   UNL     1     111.595 131.292 137.512  0.00  0.00    +0.000 C 
ENDBRANCH  37  41
ENDBRANCH  30  39
ENDBRANCH  24  30
ENDBRANCH  22  29
ENDBRANCH   2  23
TORSDOF 9
ENDMDL
MODEL 2
REMARK VINA RESULT:      -9.5      1.054      6.380
REMARK  Name = 42607522
REMARK  9 active torsions:
REMARK  status: ('A' for Active; 'I' for Inactive)
REMARK    1  A    between atoms: O_7  and  C_23
REMARK    2  A    between atoms: O_7  and  C_27
REMARK    3  A    between atoms: O_8  and  C_24
REMARK    4  A    between atoms: O_8  and  C_28
REMARK    5  A    between atoms: C_19  and  C_25
REMARK    6  A    between atoms: C_21  and  C_26
REMARK    7  A    between atoms: C_35  and  C_39
REMARK    8  A    between atoms: C_38  and  C_40
REMARK    9  A    between atoms: C_39  and  C_41
REMARK                            x       y       z     vdW  Elec       q    Type
REMARK                         _______ _______ _______ _____ _____    ______ ____
ROOT
ATOM      1  O   UNL     1     109.079 128.148 134.668  0.00  0.00    +0.000 OA
ATOM      2  C   UNL     1     109.470 128.339 135.369  0.00  0.00    +0.000 C 
ENDROOT
BRANCH   2   9
ATOM      3  O   UNL     1     107.975 128.874 135.821  0.00  0.00    +0.000 OA
ATOM      4  C   UNL     1     109.207 130.594 136.356  0.00  0.00    +0.000 A 
ATOM      5  C   UNL     1     108.547 130.110 136.253  0.00  0.00    +0.000 A 
ATOM      6  C   UNL     1     109.954 130.327 136.130  0.00  0.00    +0.000 A 
ATOM      7  C   UNL     1     108.635 129.359 135.924  0.00  0.00    +0.000 A 
ATOM      8  C   UNL     1     110.042 129.576 135.802  0.00  0.00    +0.000 A 
ATOM      9  C   UNL     1     109.382 129.091 135.698  0.00  0.00    +0.000 A 
BRANCH   4  10
ATOM     10  O   UNL     1     109.120 131.346 136.685  0.00  0.00    +0.000 OA
BRANCH  10  19
ATOM     11  O   UNL     1     109.157 130.921 138.049  0.00  0.00    +0.000 OA
ATOM     12  O   UNL     1     109.985 131.884 139.824  0.00  0.00    +0.000 OA
ATOM     13  O   UNL     1     110.343 133.004 138.665  0.00  0.00    +0.000 OA
ATOM     14  O   UNL     1     109.911 132.734 137.096  0.00  0.00    +0.000 OA
ATOM     15  C   UNL     1     109.769 131.750 139.039  0.00  0.00    +0.000 C 
ATOM     16  C   UNL     1     109.948 132.309 138.460  0.00  0.00    +0.000 C 
ATOM     17  C   UNL     1     109.373 131.056 138.833  0.00  0.00    +0.000 C 
ATOM     18  C   UNL     1     109.732 132.175 137.676  0.00  0.00    +0.000 C 
ATOM     19  C   UNL     1     109.337 131.481 137.470  0.00  0.00    +0.000 C 
BRANCH  17  21
ATOM     20  O   UNL     1     108.419 130.229 139.502  0.00  0.00    +0.000 OA
ATOM     21  C   UNL     1     109.194 130.496 139.412  0.00  0.00    +0.000 C 
ENDBRANCH  17  21
ENDBRANCH  10  19
ENDBRANCH   4  10
ENDBRANCH   2   9
BRANCH   2  23
ATOM     22  C   UNL     1     110.013 127.020 135.428  0.00  0.00    +0.000 C 
ATOM     23  C   UNL     1     109.947 127.780 135.741  0.00  0.00    +0.000 C 
BRANCH  22  29
ATOM     24  C   UNL     1     111.447 125.339 136.544  0.00  0.00    +0.000 A 
ATOM     25  C   UNL     1     110.726 125.556 136.881  0.00  0.00    +0.000 A 
ATOM     26  C   UNL     1     111.690 125.682 135.834  0.00  0.00    +0.000 A 
ATOM     27  C   UNL     1     110.248 126.116 136.510  0.00  0.00    +0.000 A 
ATOM     28  C   UNL     1     111.212 126.243 135.462  0.00  0.00    +0.000 A 
ATOM     29  C   UNL     1     110.491 126.459 135.800  0.00  0.00    +0.000 A 
BRANCH  24  30
ATOM     30  O   UNL     1     111.925 124.779 136.915  0.00  0.00    +0.000 OA
BRANCH  30  39
ATOM     31  O   UNL     1     112.607 125.633 137.837  0.00  0.00    +0.000 OA
ATOM     32  O   UNL     1     114.709 125.723 138.415  0.00  0.00    +0.000 OA
ATOM     33  O   UNL     1     114.739 124.487 137.322  0.00  0.00    +0.000 OA
ATOM     34  O   UNL     1     113.347 124.015 136.572  0.00  0.00    +0.000 OA
ATOM     35  C   UNL     1     114.013 125.487 138.040  0.00  0.00    +0.000 C 
ATOM     36  C   UNL     1     114.029 124.869 137.494  0.00  0.00    +0.000 C 
ATOM     37  C   UNL     1     113.303 125.869 138.212  0.00  0.00    +0.000 C 
ATOM     38  C   UNL     1     113.333 124.633 137.119  0.00  0.00    +0.000 C 
ATOM     39  C   UNL     1     112.621 125.015 137.290  0.00  0.00    +0.000 C 
BRANCH  37  41
ATOM     40  O   UNL     1     112.734 126.482 139.370  0.00  0.00    +0.000 OA
ATOM     41  C   UNL     1     113.288 126.487 138.758  0.00  0.00    +0.000 C 
ENDBRANCH  37  41
ENDBRANCH  30  39
ENDBRANCH  24  30
ENDBRANCH  22  29
ENDBRANCH   2  23
TORSDOF 9
ENDMDL
MODEL 3
REMARK VINA RESULT:      -9.3      1.075      1.642
REMARK  Name = 42607522
REMARK  9 active torsions:
REMARK  status: ('A' for Active; 'I' for Inactive)
REMARK    1  A    between atoms: O_7  and  C_23
REMARK    2  A    between atoms: O_7  and  C_27
REMARK    3  A    between atoms: O_8  and  C_24
REMARK    4  A    between atoms: O_8  and  C_28
REMARK    5  A    between atoms: C_19  and  C_25
REMARK    6  A    between atoms: C_21  and  C_26
REMARK    7  A    between atoms: C_35  and  C_39
REMARK    8  A    between atoms: C_38  and  C_40
REMARK    9  A    between atoms: C_39  and  C_41
REMARK                            x       y       z     vdW  Elec       q    Type
REMARK                         _______ _______ _______ _____ _____    ______ ____
ROOT
ATOM      1  O   UNL     1     110.696 126.502 134.681  0.00  0.00    +0.000 OA
ATOM      2  C   UNL     1     110.837 126.901 135.390  0.00  0.00    +0.000 C 
ENDROOT
BRANCH   2   9
ATOM      3  O   UNL     1     110.422 125.499 136.153  0.00  0.00    +0.000 OA
ATOM      4  C   UNL     1     112.353 125.918 137.080  0.00  0.00    +0.000 A 
ATOM      5  C   UNL     1     111.641 125.544 136.899  0.00  0.00    +0.000 A 
ATOM      6  C   UNL     1     112.561 126.619 136.699  0.00  0.00    +0.000 A 
ATOM      7  C   UNL     1     111.135 125.872 136.336  0.00  0.00    +0.000 A 
ATOM      8  C   UNL     1     112.055 126.947 136.135  0.00  0.00    +0.000 A 
ATOM      9  C   UNL     1     111.342 126.574 135.953  0.00  0.00    +0.000 A 
BRANCH   4  10
ATOM     10  O   UNL     1     112.859 125.590 137.644  0.00  0.00    +0.000 OA
BRANCH  10  19
ATOM     11  O   UNL     1     112.231 126.094 138.825  0.00  0.00    +0.000 OA
ATOM     12  O   UNL     1     113.084 126.944 140.645  0.00  0.00    +0.000 OA
ATOM     13  O   UNL     1     114.452 126.613 139.784  0.00  0.00    +0.000 OA
ATOM     14  O   UNL     1     114.340 125.936 138.284  0.00  0.00    +0.000 OA
ATOM     15  C   UNL     1     113.028 126.605 139.895  0.00  0.00    +0.000 C 
ATOM     16  C   UNL     1     113.712 126.440 139.465  0.00  0.00    +0.000 C 
ATOM     17  C   UNL     1     112.288 126.432 139.575  0.00  0.00    +0.000 C 
ATOM     18  C   UNL     1     113.656 126.102 138.715  0.00  0.00    +0.000 C 
ATOM     19  C   UNL     1     112.915 125.929 138.395  0.00  0.00    +0.000 C 
BRANCH  17  21
ATOM     20  O   UNL     1     111.065 125.995 140.173  0.00  0.00    +0.000 OA
ATOM     21  C   UNL     1     111.603 126.597 140.005  0.00  0.00    +0.000 C 
ENDBRANCH  17  21
ENDBRANCH  10  19
ENDBRANCH   4  10
ENDBRANCH   2   9
BRANCH   2  23
ATOM     22  C   UNL     1     110.018 127.985 134.947  0.00  0.00    +0.000 C 
ATOM     23  C   UNL     1     110.473 127.627 135.535  0.00  0.00    +0.000 C 
BRANCH  22  29
ATOM     24  C   UNL     1     108.926 130.164 135.382  0.00  0.00    +0.000 A 
ATOM     25  C   UNL     1     109.530 130.109 134.823  0.00  0.00    +0.000 A 
ATOM     26  C   UNL     1     108.686 129.492 135.796  0.00  0.00    +0.000 A 
ATOM     27  C   UNL     1     109.894 129.383 134.678  0.00  0.00    +0.000 A 
ATOM     28  C   UNL     1     109.050 128.765 135.651  0.00  0.00    +0.000 A 
ATOM     29  C   UNL     1     109.654 128.711 135.092  0.00  0.00    +0.000 A 
BRANCH  24  30
ATOM     30  O   UNL     1     108.562 130.889 135.526  0.00  0.00    +0.000 OA
BRANCH  30  39
ATOM     31  O   UNL     1     109.547 131.493 136.368  0.00  0.00    +0.000 OA
ATOM     32  O   UNL     1     109.344 132.616 138.227  0.00  0.00    +0.000 OA
ATOM     33  O   UNL     1     107.765 132.272 137.897  0.00  0.00    +0.000 OA
ATOM     34  O   UNL     1     107.374 131.409 136.546  0.00  0.00    +0.000 OA
ATOM     35  C   UNL     1     109.149 132.184 137.552  0.00  0.00    +0.000 C 
ATOM     36  C   UNL     1     108.358 132.013 137.387  0.00  0.00    +0.000 C 
ATOM     37  C   UNL     1     109.743 131.925 137.043  0.00  0.00    +0.000 C 
ATOM     38  C   UNL     1     108.163 131.581 136.712  0.00  0.00    +0.000 C 
ATOM     39  C   UNL     1     108.758 131.321 136.202  0.00  0.00    +0.000 C 
BRANCH  37  41
ATOM     40  O   UNL     1     111.071 131.483 137.327  0.00  0.00    +0.000 OA
ATOM     41  C   UNL     1     110.533 132.096 137.208  0.00  0.00    +0.000 C 
ENDBRANCH  37  41
ENDBRANCH  30  39
ENDBRANCH  24  30
ENDBRANCH  22  29
ENDBRANCH   2  23
TORSDOF 9
ENDMDL
MODEL 4
REMARK VINA RESULT:      -9.2      1.453      7.062
REMARK  Name = 42607522
REMARK  9 active torsions:
REMARK  status: ('A' for Active; 'I' for Inactive)
REMARK    1  A    between atoms: O_7  and  C_23
REMARK    2  A    between atoms: O_7  and  C_27
REMARK    3  A    between atoms: O_8  and  C_24
REMARK    4  A    between atoms: O_8  and  C_28
REMARK    5  A    between atoms: C_19  and  C_25
REMARK    6  A    between atoms: C_21  and  C_26
REMARK    7  A    between atoms: C_35  and  C_39
REMARK    8  A    between atoms: C_38  and  C_40
REMARK    9  A    between atoms: C_39  and  C_41
REMARK                            x       y       z     vdW  Elec       q    Type
REMARK                         _______ _______ _______ _____ _____    ______ ____
ROOT
ATOM      1  O   UNL     1     113.170 130.850 138.245  0.00  0.00    +0.000 OA
ATOM      2  C   UNL     1     112.529 130.529 137.838  0.00  0.00    +0.000 C 
ENDROOT
BRANCH   2   9
ATOM      3  O   UNL     1     112.603 131.839 136.839  0.00  0.00    +0.000 OA
ATOM      4  C   UNL     1     110.506 131.898 137.439  0.00  0.00    +0.000 A 
ATOM      5  C   UNL     1     111.217 132.097 137.072  0.00  0.00    +0.000 A 
ATOM      6  C   UNL     1     110.468 131.243 137.939  0.00  0.00    +0.000 A 
ATOM      7  C   UNL     1     111.892 131.641 137.205  0.00  0.00    +0.000 A 
ATOM      8  C   UNL     1     111.143 130.786 138.072  0.00  0.00    +0.000 A 
ATOM      9  C   UNL     1     111.854 130.985 137.705  0.00  0.00    +0.000 A 
BRANCH   4  10
ATOM     10  O   UNL     1     109.831 132.354 137.307  0.00  0.00    +0.000 OA
BRANCH  10  19
ATOM     11  O   UNL     1     109.429 131.855 136.029  0.00  0.00    +0.000 OA
ATOM     12  O   UNL     1     107.468 131.256 135.282  0.00  0.00    +0.000 OA
ATOM     13  O   UNL     1     107.090 131.704 136.824  0.00  0.00    +0.000 OA
ATOM     14  O   UNL     1     108.272 132.254 137.837  0.00  0.00    +0.000 OA
ATOM     15  C   UNL     1     108.059 131.530 135.789  0.00  0.00    +0.000 C 
ATOM     16  C   UNL     1     107.870 131.755 136.559  0.00  0.00    +0.000 C 
ATOM     17  C   UNL     1     108.838 131.581 135.524  0.00  0.00    +0.000 C 
ATOM     18  C   UNL     1     108.460 132.029 137.065  0.00  0.00    +0.000 C 
ATOM     19  C   UNL     1     109.240 132.079 136.800  0.00  0.00    +0.000 C 
BRANCH  17  21
ATOM     20  O   UNL     1     109.675 130.865 134.612  0.00  0.00    +0.000 OA
ATOM     21  C   UNL     1     109.027 131.356 134.752  0.00  0.00    +0.000 C 
ENDBRANCH  17  21
ENDBRANCH  10  19
ENDBRANCH   4  10
ENDBRANCH   2   9
BRANCH   2  23
ATOM     22  C   UNL     1     113.234 129.294 137.700  0.00  0.00    +0.000 C 
ATOM     23  C   UNL     1     112.561 129.752 137.564  0.00  0.00    +0.000 C 
BRANCH  22  29
ATOM     24  C   UNL     1     113.332 126.961 136.878  0.00  0.00    +0.000 A 
ATOM     25  C   UNL     1     113.527 127.585 136.374  0.00  0.00    +0.000 A 
ATOM     26  C   UNL     1     113.104 127.115 137.656  0.00  0.00    +0.000 A 
ATOM     27  C   UNL     1     113.494 128.362 136.648  0.00  0.00    +0.000 A 
ATOM     28  C   UNL     1     113.072 127.894 137.930  0.00  0.00    +0.000 A 
ATOM     29  C   UNL     1     113.267 128.516 137.426  0.00  0.00    +0.000 A 
BRANCH  24  30
ATOM     30  O   UNL     1     113.364 126.184 136.605  0.00  0.00    +0.000 OA
BRANCH  30  39
ATOM     31  O   UNL     1     112.074 126.217 135.992  0.00  0.00    +0.000 OA
ATOM     32  O   UNL     1     110.595 124.641 135.688  0.00  0.00    +0.000 OA
ATOM     33  O   UNL     1     111.791 123.803 136.456  0.00  0.00    +0.000 OA
ATOM     34  O   UNL     1     113.176 124.574 136.914  0.00  0.00    +0.000 OA
ATOM     35  C   UNL     1     111.287 125.027 135.917  0.00  0.00    +0.000 C 
ATOM     36  C   UNL     1     111.885 124.607 136.301  0.00  0.00    +0.000 C 
ATOM     37  C   UNL     1     111.381 125.831 135.763  0.00  0.00    +0.000 C 
ATOM     38  C   UNL     1     112.577 124.993 136.531  0.00  0.00    +0.000 C 
ATOM     39  C   UNL     1     112.672 125.798 136.376  0.00  0.00    +0.000 C 
BRANCH  37  41
ATOM     40  O   UNL     1     110.912 126.551 134.621  0.00  0.00    +0.000 OA
ATOM     41  C   UNL     1     110.784 126.251 135.379  0.00  0.00    +0.000 C 
ENDBRANCH  37  41
ENDBRANCH  30  39
ENDBRANCH  24  30
ENDBRANCH  22  29
ENDBRANCH   2  23
TORSDOF 9
ENDMDL
MODEL 5
REMARK VINA RESULT:      -9.1      2.571      6.621
REMARK  Name = 42607522
REMARK  9 active torsions:
REMARK  status: ('A' for Active; 'I' for Inactive)
REMARK    1  A    between atoms: O_7  and  C_23
REMARK    2  A    between atoms: O_7  and  C_27
REMARK    3  A    between atoms: O_8  and  C_24
REMARK    4  A    between atoms: O_8  and  C_28
REMARK    5  A    between atoms: C_19  and  C_25
REMARK    6  A    between atoms: C_21  and  C_26
REMARK    7  A    between atoms: C_35  and  C_39
REMARK    8  A    between atoms: C_38  and  C_40
REMARK    9  A    between atoms: C_39  and  C_41
REMARK                            x       y       z     vdW  Elec       q    Type
REMARK                         _______ _______ _______ _____ _____    ______ ____
ROOT
ATOM      1  O   UNL     1     114.326 126.894 140.724  0.00  0.00    +0.000 OA
ATOM      2  C   UNL     1     113.767 127.355 140.330  0.00  0.00    +0.000 C 
ENDROOT
BRANCH   2   9
ATOM      3  O   UNL     1     112.716 127.390 141.602  0.00  0.00    +0.000 OA
ATOM      4  C   UNL     1     113.056 129.523 141.289  0.00  0.00    +0.000 A 
ATOM      5  C   UNL     1     112.767 128.818 141.606  0.00  0.00    +0.000 A 
ATOM      6  C   UNL     1     113.581 129.506 140.654  0.00  0.00    +0.000 A 
ATOM      7  C   UNL     1     113.004 128.095 141.286  0.00  0.00    +0.000 A 
ATOM      8  C   UNL     1     113.818 128.783 140.334  0.00  0.00    +0.000 A 
ATOM      9  C   UNL     1     113.530 128.078 140.650  0.00  0.00    +0.000 A 
BRANCH   4  10
ATOM     10  O   UNL     1     112.819 130.246 141.609  0.00  0.00    +0.000 OA
BRANCH  10  19
ATOM     11  O   UNL     1     111.772 130.543 140.682  0.00  0.00    +0.000 OA
ATOM     12  O   UNL     1     109.793 131.410 140.992  0.00  0.00    +0.000 OA
ATOM     13  O   UNL     1     110.373 131.397 142.536  0.00  0.00    +0.000 OA
ATOM     14  O   UNL     1     111.886 130.815 142.845  0.00  0.00    +0.000 OA
ATOM     15  C   UNL     1     110.550 131.119 141.147  0.00  0.00    +0.000 C 
ATOM     16  C   UNL     1     110.840 131.112 141.918  0.00  0.00    +0.000 C 
ATOM     17  C   UNL     1     111.016 130.834 140.529  0.00  0.00    +0.000 C 
ATOM     18  C   UNL     1     111.595 130.821 142.073  0.00  0.00    +0.000 C 
ATOM     19  C   UNL     1     112.062 130.537 141.454  0.00  0.00    +0.000 C 
BRANCH  17  21
ATOM     20  O   UNL     1     111.129 131.256 139.167  0.00  0.00    +0.000 OA
ATOM     21  C   UNL     1     110.726 130.841 139.755  0.00  0.00    +0.000 C 
ENDBRANCH  17  21
ENDBRANCH  10  19
ENDBRANCH   4  10
ENDBRANCH   2   9
BRANCH   2  23
ATOM     22  C   UNL     1     113.730 126.406 139.263  0.00  0.00    +0.000 C 
ATOM     23  C   UNL     1     113.445 127.094 139.617  0.00  0.00    +0.000 C 
BRANCH  22  29
ATOM     24  C   UNL     1     112.765 125.622 137.123  0.00  0.00    +0.000 A 
ATOM     25  C   UNL     1     112.331 125.553 137.821  0.00  0.00    +0.000 A 
ATOM     26  C   UNL     1     113.521 125.953 137.138  0.00  0.00    +0.000 A 
ATOM     27  C   UNL     1     112.653 125.814 138.534  0.00  0.00    +0.000 A 
ATOM     28  C   UNL     1     113.843 126.214 137.852  0.00  0.00    +0.000 A 
ATOM     29  C   UNL     1     113.408 126.144 138.550  0.00  0.00    +0.000 A 
BRANCH  24  30
ATOM     30  O   UNL     1     112.444 125.362 136.410  0.00  0.00    +0.000 OA
BRANCH  30  39
ATOM     31  O   UNL     1     111.916 126.616 135.973  0.00  0.00    +0.000 OA
ATOM     32  O   UNL     1     110.055 127.103 134.942  0.00  0.00    +0.000 OA
ATOM     33  O   UNL     1     109.915 125.464 135.081  0.00  0.00    +0.000 OA
ATOM     34  O   UNL     1     111.110 124.594 135.815  0.00  0.00    +0.000 OA
ATOM     35  C   UNL     1     110.653 126.667 135.309  0.00  0.00    +0.000 C 
ATOM     36  C   UNL     1     110.582 125.848 135.378  0.00  0.00    +0.000 C 
ATOM     37  C   UNL     1     111.319 127.051 135.606  0.00  0.00    +0.000 C 
ATOM     38  C   UNL     1     111.179 125.413 135.745  0.00  0.00    +0.000 C 
ATOM     39  C   UNL     1     111.847 125.797 136.043  0.00  0.00    +0.000 C 
BRANCH  37  41
ATOM     40  O   UNL     1     112.064 128.198 135.193  0.00  0.00    +0.000 OA
ATOM     41  C   UNL     1     111.390 127.870 135.536  0.00  0.00    +0.000 C 
ENDBRANCH  37  41
ENDBRANCH  30  39
ENDBRANCH  24  30
ENDBRANCH  22  29
ENDBRANCH   2  23
TORSDOF 9
ENDMDL
MODEL 6
REMARK VINA RESULT:      -9.1      1.279      6.242
REMARK  Name = 42607522
REMARK  9 active torsions:
REMARK  status: ('A' for Active; 'I' for Inactive)
REMARK    1  A    between atoms: O_7  and  C_23
REMARK    2  A    between atoms: O_7  and  C_27
REMARK    3  A    between atoms: O_8  and  C_24
REMARK    4  A    between atoms: O_8  and  C_28
REMARK    5  A    between atoms: C_19  and  C_25
REMARK    6  A    between atoms: C_21  and  C_26
REMARK    7  A    between atoms: C_35  and  C_39
REMARK    8  A    between atoms: C_38  and  C_40
REMARK    9  A    between atoms: C_39  and  C_41
REMARK                            x       y       z     vdW  Elec       q    Type
REMARK                         _______ _______ _______ _____ _____    ______ ____
ROOT
ATOM      1  O   UNL     1     109.867 126.824 134.799  0.00  0.00    +0.000 OA
ATOM      2  C   UNL     1     110.020 127.367 135.401  0.00  0.00    +0.000 C 
ENDROOT
BRANCH   2   9
ATOM      3  O   UNL     1     108.547 127.614 136.102  0.00  0.00    +0.000 OA
ATOM      4  C   UNL     1     108.979 129.611 135.335  0.00  0.00    +0.000 A 
ATOM      5  C   UNL     1     108.589 128.987 135.708  0.00  0.00    +0.000 A 
ATOM      6  C   UNL     1     109.715 129.488 134.985  0.00  0.00    +0.000 A 
ATOM      7  C   UNL     1     108.936 128.239 135.730  0.00  0.00    +0.000 A 
ATOM      8  C   UNL     1     110.062 128.740 135.007  0.00  0.00    +0.000 A 
ATOM      9  C   UNL     1     109.673 128.115 135.379  0.00  0.00    +0.000 A 
BRANCH   4  10
ATOM     10  O   UNL     1     108.632 130.360 135.313  0.00  0.00    +0.000 OA
BRANCH  10  19
ATOM     11  O   UNL     1     109.390 131.015 136.331  0.00  0.00    +0.000 OA
ATOM     12  O   UNL     1     108.762 132.318 137.966  0.00  0.00    +0.000 OA
ATOM     13  O   UNL     1     107.310 131.987 137.255  0.00  0.00    +0.000 OA
ATOM     14  O   UNL     1     107.245 131.007 135.929  0.00  0.00    +0.000 OA
ATOM     15  C   UNL     1     108.728 131.828 137.302  0.00  0.00    +0.000 C 
ATOM     16  C   UNL     1     108.003 131.663 136.947  0.00  0.00    +0.000 C 
ATOM     17  C   UNL     1     109.422 131.504 136.995  0.00  0.00    +0.000 C 
ATOM     18  C   UNL     1     107.971 131.174 136.284  0.00  0.00    +0.000 C 
ATOM     19  C   UNL     1     108.664 130.850 135.977  0.00  0.00    +0.000 C 
BRANCH  17  21
ATOM     20  O   UNL     1     110.773 131.960 136.896  0.00  0.00    +0.000 OA
ATOM     21  C   UNL     1     110.148 131.670 137.350  0.00  0.00    +0.000 C 
ENDBRANCH  17  21
ENDBRANCH  10  19
ENDBRANCH   4  10
ENDBRANCH   2   9
BRANCH   2  23
ATOM     22  C   UNL     1     111.053 126.540 135.938  0.00  0.00    +0.000 C 
ATOM     23  C   UNL     1     110.520 127.163 136.024  0.00  0.00    +0.000 C 
BRANCH  22  29
ATOM     24  C   UNL     1     112.555 125.926 137.808  0.00  0.00    +0.000 A 
ATOM     25  C   UNL     1     111.882 125.475 137.653  0.00  0.00    +0.000 A 
ATOM     26  C   UNL     1     112.728 126.583 137.339  0.00  0.00    +0.000 A 
ATOM     27  C   UNL     1     111.382 125.679 137.031  0.00  0.00    +0.000 A 
ATOM     28  C   UNL     1     112.227 126.787 136.715  0.00  0.00    +0.000 A 
ATOM     29  C   UNL     1     111.554 126.335 136.561  0.00  0.00    +0.000 A 
BRANCH  24  30
ATOM     30  O   UNL     1     113.055 125.722 138.431  0.00  0.00    +0.000 OA
BRANCH  30  39
ATOM     31  O   UNL     1     112.287 126.228 139.525  0.00  0.00    +0.000 OA
ATOM     32  O   UNL     1     112.888 127.366 141.287  0.00  0.00    +0.000 OA
ATOM     33  O   UNL     1     114.340 127.177 140.528  0.00  0.00    +0.000 OA
ATOM     34  O   UNL     1     114.424 126.355 139.100  0.00  0.00    +0.000 OA
ATOM     35  C   UNL     1     112.930 126.955 140.573  0.00  0.00    +0.000 C 
ATOM     36  C   UNL     1     113.656 126.861 140.194  0.00  0.00    +0.000 C 
ATOM     37  C   UNL     1     112.246 126.639 140.239  0.00  0.00    +0.000 C 
ATOM     38  C   UNL     1     113.698 126.450 139.480  0.00  0.00    +0.000 C 
ATOM     39  C   UNL     1     113.013 126.133 139.145  0.00  0.00    +0.000 C 
BRANCH  37  41
ATOM     40  O   UNL     1     111.091 126.070 140.860  0.00  0.00    +0.000 OA
ATOM     41  C   UNL     1     111.519 126.733 140.618  0.00  0.00    +0.000 C 
ENDBRANCH  37  41
ENDBRANCH  30  39
ENDBRANCH  24  30
ENDBRANCH  22  29
ENDBRANCH   2  23
TORSDOF 9
ENDMDL
MODEL 7
REMARK VINA RESULT:      -8.9      1.394      3.384
REMARK  Name = 42607522
REMARK  9 active torsions:
REMARK  status: ('A' for Active; 'I' for Inactive)
REMARK    1  A    between atoms: O_7  and  C_23
REMARK    2  A    between atoms: O_7  and  C_27
REMARK    3  A    between atoms: O_8  and  C_24
REMARK    4  A    between atoms: O_8  and  C_28
REMARK    5  A    between atoms: C_19  and  C_25
REMARK    6  A    between atoms: C_21  and  C_26
REMARK    7  A    between atoms: C_35  and  C_39
REMARK    8  A    between atoms: C_38  and  C_40
REMARK    9  A    between atoms: C_39  and  C_41
REMARK                            x       y       z     vdW  Elec       q    Type
REMARK                         _______ _______ _______ _____ _____    ______ ____
ROOT
ATOM      1  O   UNL     1     113.477 129.242 138.860  0.00  0.00    +0.000 OA
ATOM      2  C   UNL     1     112.994 129.020 138.229  0.00  0.00    +0.000 C 
ENDROOT
BRANCH   2   9
ATOM      3  O   UNL     1     113.078 127.578 139.026  0.00  0.00    +0.000 OA
ATOM      4  C   UNL     1     113.474 126.940 136.977  0.00  0.00    +0.000 A 
ATOM      5  C   UNL     1     113.356 126.911 137.793  0.00  0.00    +0.000 A 
ATOM      6  C   UNL     1     113.433 127.660 136.579  0.00  0.00    +0.000 A 
ATOM      7  C   UNL     1     113.196 127.605 138.211  0.00  0.00    +0.000 A 
ATOM      8  C   UNL     1     113.272 128.354 136.996  0.00  0.00    +0.000 A 
ATOM      9  C   UNL     1     113.154 128.327 137.812  0.00  0.00    +0.000 A 
BRANCH   4  10
ATOM     10  O   UNL     1     113.635 126.246 136.560  0.00  0.00    +0.000 OA
BRANCH  10  19
ATOM     11  O   UNL     1     112.302 125.879 136.198  0.00  0.00    +0.000 OA
ATOM     12  O   UNL     1     111.295 123.943 136.227  0.00  0.00    +0.000 OA
ATOM     13  O   UNL     1     112.791 123.525 136.785  0.00  0.00    +0.000 OA
ATOM     14  O   UNL     1     113.960 124.677 136.951  0.00  0.00    +0.000 OA
ATOM     15  C   UNL     1     111.880 124.518 136.310  0.00  0.00    +0.000 C 
ATOM     16  C   UNL     1     112.628 124.310 136.589  0.00  0.00    +0.000 C 
ATOM     17  C   UNL     1     111.717 125.303 136.115  0.00  0.00    +0.000 C 
ATOM     18  C   UNL     1     113.212 124.885 136.672  0.00  0.00    +0.000 C 
ATOM     19  C   UNL     1     113.049 125.670 136.477  0.00  0.00    +0.000 C 
BRANCH  17  21
ATOM     20  O   UNL     1     110.887 125.845 135.085  0.00  0.00    +0.000 OA
ATOM     21  C   UNL     1     110.969 125.512 135.835  0.00  0.00    +0.000 C 
ENDBRANCH  17  21
ENDBRANCH  10  19
ENDBRANCH   4  10
ENDBRANCH   2   9
BRANCH   2  23
ATOM     22  C   UNL     1     112.223 130.211 138.396  0.00  0.00    +0.000 C 
ATOM     23  C   UNL     1     112.352 129.490 138.015  0.00  0.00    +0.000 C 
BRANCH  22  29
ATOM     24  C   UNL     1     110.295 131.625 137.755  0.00  0.00    +0.000 A 
ATOM     25  C   UNL     1     110.179 130.957 138.226  0.00  0.00    +0.000 A 
ATOM     26  C   UNL     1     111.054 131.821 137.498  0.00  0.00    +0.000 A 
ATOM     27  C   UNL     1     110.821 130.486 138.439  0.00  0.00    +0.000 A 
ATOM     28  C   UNL     1     111.697 131.350 137.712  0.00  0.00    +0.000 A 
ATOM     29  C   UNL     1     111.580 130.682 138.182  0.00  0.00    +0.000 A 
BRANCH  24  30
ATOM     30  O   UNL     1     109.653 132.096 137.541  0.00  0.00    +0.000 OA
BRANCH  30  39
ATOM     31  O   UNL     1     109.470 131.612 136.209  0.00  0.00    +0.000 OA
ATOM     32  O   UNL     1     107.653 131.146 135.094  0.00  0.00    +0.000 OA
ATOM     33  O   UNL     1     107.017 131.639 136.535  0.00  0.00    +0.000 OA
ATOM     34  O   UNL     1     108.017 132.114 137.758  0.00  0.00    +0.000 OA
ATOM     35  C   UNL     1     108.153 131.384 135.706  0.00  0.00    +0.000 C 
ATOM     36  C   UNL     1     107.834 131.630 136.426  0.00  0.00    +0.000 C 
ATOM     37  C   UNL     1     108.970 131.375 135.597  0.00  0.00    +0.000 C 
ATOM     38  C   UNL     1     108.334 131.867 137.038  0.00  0.00    +0.000 C 
ATOM     39  C   UNL     1     109.153 131.858 136.929  0.00  0.00    +0.000 C 
BRANCH  37  41
ATOM     40  O   UNL     1     109.697 130.413 134.830  0.00  0.00    +0.000 OA
ATOM     41  C   UNL     1     109.289 131.128 134.877  0.00  0.00    +0.000 C 
ENDBRANCH  37  41
ENDBRANCH  30  39
ENDBRANCH  24  30
ENDBRANCH  22  29
ENDBRANCH   2  23
TORSDOF 9
ENDMDL
MODEL 8
REMARK VINA RESULT:      -8.8      8.613      9.596
REMARK  Name = 42607522
REMARK  9 active torsions:
REMARK  status: ('A' for Active; 'I' for Inactive)
REMARK    1  A    between atoms: O_7  and  C_23
REMARK    2  A    between atoms: O_7  and  C_27
REMARK    3  A    between atoms: O_8  and  C_24
REMARK    4  A    between atoms: O_8  and  C_28
REMARK    5  A    between atoms: C_19  and  C_25
REMARK    6  A    between atoms: C_21  and  C_26
REMARK    7  A    between atoms: C_35  and  C_39
REMARK    8  A    between atoms: C_38  and  C_40
REMARK    9  A    between atoms: C_39  and  C_41
REMARK                            x       y       z     vdW  Elec       q    Type
REMARK                         _______ _______ _______ _____ _____    ______ ____
ROOT
ATOM      1  O   UNL     1     105.852 127.153 141.506  0.00  0.00    +0.000 OA
ATOM      2  C   UNL     1     105.553 127.406 142.233  0.00  0.00    +0.000 C 
ENDROOT
BRANCH   2   9
ATOM      3  O   UNL     1     105.403 125.807 142.608  0.00  0.00    +0.000 OA
ATOM      4  C   UNL     1     106.518 126.533 144.338  0.00  0.00    +0.000 A 
ATOM      5  C   UNL     1     106.121 126.024 143.824  0.00  0.00    +0.000 A 
ATOM      6  C   UNL     1     106.593 127.332 144.151  0.00  0.00    +0.000 A 
ATOM      7  C   UNL     1     105.800 126.315 143.123  0.00  0.00    +0.000 A 
ATOM      8  C   UNL     1     106.272 127.623 143.449  0.00  0.00    +0.000 A 
ATOM      9  C   UNL     1     105.875 127.115 142.934  0.00  0.00    +0.000 A 
BRANCH   4  10
ATOM     10  O   UNL     1     106.839 126.242 145.040  0.00  0.00    +0.000 OA
BRANCH  10  19
ATOM     11  O   UNL     1     105.777 126.606 145.924  0.00  0.00    +0.000 OA
ATOM     12  O   UNL     1     104.865 125.522 147.585  0.00  0.00    +0.000 OA
ATOM     13  O   UNL     1     106.002 124.434 147.089  0.00  0.00    +0.000 OA
ATOM     14  O   UNL     1     106.989 124.794 145.816  0.00  0.00    +0.000 OA
ATOM     15  C   UNL     1     105.359 125.701 146.949  0.00  0.00    +0.000 C 
ATOM     16  C   UNL     1     105.927 125.158 146.701  0.00  0.00    +0.000 C 
ATOM     17  C   UNL     1     105.284 126.425 146.561  0.00  0.00    +0.000 C 
ATOM     18  C   UNL     1     106.420 125.338 146.065  0.00  0.00    +0.000 C 
ATOM     19  C   UNL     1     106.345 126.062 145.677  0.00  0.00    +0.000 C 
BRANCH  17  21
ATOM     20  O   UNL     1     104.938 127.742 146.998  0.00  0.00    +0.000 OA
ATOM     21  C   UNL     1     104.716 126.970 146.809  0.00  0.00    +0.000 C 
ENDBRANCH  17  21
ENDBRANCH  10  19
ENDBRANCH   4  10
ENDBRANCH   2   9
BRANCH   2  23
ATOM     22  C   UNL     1     104.697 128.337 141.568  0.00  0.00    +0.000 C 
ATOM     23  C   UNL     1     104.934 127.950 142.257  0.00  0.00    +0.000 C 
BRANCH  22  29
ATOM     24  C   UNL     1     102.838 129.969 141.641  0.00  0.00    +0.000 A 
ATOM     25  C   UNL     1     103.371 129.922 142.269  0.00  0.00    +0.000 A 
ATOM     26  C   UNL     1     102.925 129.472 140.989  0.00  0.00    +0.000 A 
ATOM     27  C   UNL     1     103.990 129.379 142.245  0.00  0.00    +0.000 A 
ATOM     28  C   UNL     1     103.545 128.927 140.964  0.00  0.00    +0.000 A 
ATOM     29  C   UNL     1     104.077 128.881 141.593  0.00  0.00    +0.000 A 
BRANCH  24  30
ATOM     30  O   UNL     1     102.218 130.513 141.665  0.00  0.00    +0.000 OA
BRANCH  30  39
ATOM     31  O   UNL     1     102.977 131.548 141.036  0.00  0.00    +0.000 OA
ATOM     32  O   UNL     1     102.818 133.720 141.171  0.00  0.00    +0.000 OA
ATOM     33  O   UNL     1     101.600 133.255 142.183  0.00  0.00    +0.000 OA
ATOM     34  O   UNL     1     101.300 131.651 142.430  0.00  0.00    +0.000 OA
ATOM     35  C   UNL     1     102.668 132.918 141.295  0.00  0.00    +0.000 C 
ATOM     36  C   UNL     1     102.059 132.686 141.801  0.00  0.00    +0.000 C 
ATOM     37  C   UNL     1     103.127 132.350 140.913  0.00  0.00    +0.000 C 
ATOM     38  C   UNL     1     101.909 131.884 141.924  0.00  0.00    +0.000 C 
ATOM     39  C   UNL     1     102.368 131.314 141.541  0.00  0.00    +0.000 C 
BRANCH  37  41
ATOM     40  O   UNL     1     103.793 132.252 139.652  0.00  0.00    +0.000 OA
ATOM     41  C   UNL     1     103.736 132.582 140.407  0.00  0.00    +0.000 C 
ENDBRANCH  37  41
ENDBRANCH  30  39
ENDBRANCH  24  30
ENDBRANCH  22  29
ENDBRANCH   2  23
TORSDOF 9
ENDMDL
MODEL 9
REMARK VINA RESULT:      -8.8     11.027     12.223
REMARK  Name = 42607522
REMARK  9 active torsions:
REMARK  status: ('A' for Active; 'I' for Inactive)
REMARK    1  A    between atoms: O_7  and  C_23
REMARK    2  A    between atoms: O_7  and  C_27
REMARK    3  A    between atoms: O_8  and  C_24
REMARK    4  A    between atoms: O_8  and  C_28
REMARK    5  A    between atoms: C_19  and  C_25
REMARK    6  A    between atoms: C_21  and  C_26
REMARK    7  A    between atoms: C_35  and  C_39
REMARK    8  A    between atoms: C_38  and  C_40
REMARK    9  A    between atoms: C_39  and  C_41
REMARK                            x       y       z     vdW  Elec       q    Type
REMARK                         _______ _______ _______ _____ _____    ______ ____
ROOT
ATOM      1  O   UNL     1     105.031 126.630 149.158  0.00  0.00    +0.000 OA
ATOM      2  C   UNL     1     104.907 126.356 148.389  0.00  0.00    +0.000 C 
ENDROOT
BRANCH   2   9
ATOM      3  O   UNL     1     105.110 124.799 148.894  0.00  0.00    +0.000 OA
ATOM      4  C   UNL     1     103.147 124.672 147.947  0.00  0.00    +0.000 A 
ATOM      5  C   UNL     1     103.835 124.454 148.347  0.00  0.00    +0.000 A 
ATOM      6  C   UNL     1     103.046 125.451 147.695  0.00  0.00    +0.000 A 
ATOM      7  C   UNL     1     104.422 125.016 148.495  0.00  0.00    +0.000 A 
ATOM      8  C   UNL     1     103.632 126.012 147.842  0.00  0.00    +0.000 A 
ATOM      9  C   UNL     1     104.320 125.795 148.242  0.00  0.00    +0.000 A 
BRANCH   4  10
ATOM     10  O   UNL     1     102.561 124.111 147.800  0.00  0.00    +0.000 OA
BRANCH  10  19
ATOM     11  O   UNL     1     103.127 123.427 146.680  0.00  0.00    +0.000 OA
ATOM     12  O   UNL     1     102.239 122.814 144.783  0.00  0.00    +0.000 OA
ATOM     13  O   UNL     1     100.947 123.533 145.514  0.00  0.00    +0.000 OA
ATOM     14  O   UNL     1     101.108 124.182 147.022  0.00  0.00    +0.000 OA
ATOM     15  C   UNL     1     102.319 123.138 145.537  0.00  0.00    +0.000 C 
ATOM     16  C   UNL     1     101.673 123.498 145.902  0.00  0.00    +0.000 C 
ATOM     17  C   UNL     1     103.046 123.103 145.926  0.00  0.00    +0.000 C 
ATOM     18  C   UNL     1     101.754 123.822 146.656  0.00  0.00    +0.000 C 
ATOM     19  C   UNL     1     102.480 123.786 147.045  0.00  0.00    +0.000 C 
BRANCH  17  21
ATOM     20  O   UNL     1     104.381 123.175 145.419  0.00  0.00    +0.000 OA
ATOM     21  C   UNL     1     103.693 122.743 145.561  0.00  0.00    +0.000 C 
ENDBRANCH  17  21
ENDBRANCH  10  19
ENDBRANCH   4  10
ENDBRANCH   2   9
BRANCH   2  23
ATOM     22  C   UNL     1     105.860 127.294 147.888  0.00  0.00    +0.000 C 
ATOM     23  C   UNL     1     105.367 126.643 147.769  0.00  0.00    +0.000 C 
BRANCH  22  29
ATOM     24  C   UNL     1     107.244 128.157 146.025  0.00  0.00    +0.000 A 
ATOM     25  C   UNL     1     106.564 128.563 146.257  0.00  0.00    +0.000 A 
ATOM     26  C   UNL     1     107.462 127.463 146.415  0.00  0.00    +0.000 A 
ATOM     27  C   UNL     1     106.103 128.276 146.877  0.00  0.00    +0.000 A 
ATOM     28  C   UNL     1     107.001 127.175 147.036  0.00  0.00    +0.000 A 
ATOM     29  C   UNL     1     106.321 127.582 147.267  0.00  0.00    +0.000 A 
BRANCH  24  30
ATOM     30  O   UNL     1     107.705 128.444 145.405  0.00  0.00    +0.000 OA
BRANCH  30  39
ATOM     31  O   UNL     1     107.185 127.619 144.361  0.00  0.00    +0.000 OA
ATOM     32  O   UNL     1     106.686 128.083 142.288  0.00  0.00    +0.000 OA
ATOM     33  O   UNL     1     107.216 129.553 142.817  0.00  0.00    +0.000 OA
ATOM     34  O   UNL     1     107.726 129.733 144.376  0.00  0.00    +0.000 OA
ATOM     35  C   UNL     1     106.941 128.173 143.067  0.00  0.00    +0.000 C 
ATOM     36  C   UNL     1     107.206 128.909 143.331  0.00  0.00    +0.000 C 
ATOM     37  C   UNL     1     106.930 127.529 143.581  0.00  0.00    +0.000 C 
ATOM     38  C   UNL     1     107.461 128.999 144.111  0.00  0.00    +0.000 C 
ATOM     39  C   UNL     1     107.450 128.354 144.626  0.00  0.00    +0.000 C 
BRANCH  37  41
ATOM     40  O   UNL     1     107.140 126.126 143.411  0.00  0.00    +0.000 OA
ATOM     41  C   UNL     1     106.665 126.794 143.317  0.00  0.00    +0.000 C 
ENDBRANCH  37  41
ENDBRANCH  30  39
ENDBRANCH  24  30
ENDBRANCH  22  29
ENDBRANCH   2  23
TORSDOF 9
ENDMDL
MODEL 10
REMARK VINA RESULT:      -8.7      2.600      4.979
REMARK  Name = 42607522
REMARK  9 active torsions:
REMARK  status: ('A' for Active; 'I' for Inactive)
REMARK    1  A    between atoms: O_7  and  C_23
REMARK    2  A    between atoms: O_7  and  C_27
REMARK    3  A    between atoms: O_8  and  C_24
REMARK    4  A    between atoms: O_8  and  C_28
REMARK    5  A    between atoms: C_19  and  C_25
REMARK    6  A    between atoms: C_21  and  C_26
REMARK    7  A    between atoms: C_35  and  C_39
REMARK    8  A    between atoms: C_38  and  C_40
REMARK    9  A    between atoms: C_39  and  C_41
REMARK                            x       y       z     vdW  Elec       q    Type
REMARK                         _______ _______ _______ _____ _____    ______ ____
ROOT
ATOM      1  O   UNL     1     114.337 125.879 138.914  0.00  0.00    +0.000 OA
ATOM      2  C   UNL     1     113.620 126.248 138.739  0.00  0.00    +0.000 C 
ENDROOT
BRANCH   2   9
ATOM      3  O   UNL     1     114.350 126.484 137.278  0.00  0.00    +0.000 OA
ATOM      4  C   UNL     1     112.419 125.683 136.650  0.00  0.00    +0.000 A 
ATOM      5  C   UNL     1     113.184 125.990 136.615  0.00  0.00    +0.000 A 
ATOM      6  C   UNL     1     112.054 125.565 137.379  0.00  0.00    +0.000 A 
ATOM      7  C   UNL     1     113.584 126.178 137.311  0.00  0.00    +0.000 A 
ATOM      8  C   UNL     1     112.454 125.753 138.076  0.00  0.00    +0.000 A 
ATOM      9  C   UNL     1     113.219 126.060 138.042  0.00  0.00    +0.000 A 
BRANCH   4  10
ATOM     10  O   UNL     1     112.018 125.495 135.953  0.00  0.00    +0.000 OA
BRANCH  10  19
ATOM     11  O   UNL     1     111.567 126.812 135.633  0.00  0.00    +0.000 OA
ATOM     12  O   UNL     1     109.673 127.511 134.802  0.00  0.00    +0.000 OA
ATOM     13  O   UNL     1     109.404 125.884 134.867  0.00  0.00    +0.000 OA
ATOM     14  O   UNL     1     110.576 124.876 135.443  0.00  0.00    +0.000 OA
ATOM     15  C   UNL     1     110.259 127.006 135.090  0.00  0.00    +0.000 C 
ATOM     16  C   UNL     1     110.125 126.194 135.122  0.00  0.00    +0.000 C 
ATOM     17  C   UNL     1     110.980 127.316 135.345  0.00  0.00    +0.000 C 
ATOM     18  C   UNL     1     110.710 125.690 135.410  0.00  0.00    +0.000 C 
ATOM     19  C   UNL     1     111.431 125.999 135.665  0.00  0.00    +0.000 C 
BRANCH  17  21
ATOM     20  O   UNL     1     111.808 128.420 134.971  0.00  0.00    +0.000 OA
ATOM     21  C   UNL     1     111.115 128.130 135.312  0.00  0.00    +0.000 C 
ENDBRANCH  17  21
ENDBRANCH  10  19
ENDBRANCH   4  10
ENDBRANCH   2   9
BRANCH   2  23
ATOM     22  C   UNL     1     113.685 126.966 139.972  0.00  0.00    +0.000 C 
ATOM     23  C   UNL     1     113.303 126.804 139.259  0.00  0.00    +0.000 C 
BRANCH  22  29
ATOM     24  C   UNL     1     112.735 128.635 141.534  0.00  0.00    +0.000 A 
ATOM     25  C   UNL     1     112.521 127.841 141.598  0.00  0.00    +0.000 A 
ATOM     26  C   UNL     1     113.266 128.873 140.949  0.00  0.00    +0.000 A 
ATOM     27  C   UNL     1     112.837 127.285 141.078  0.00  0.00    +0.000 A 
ATOM     28  C   UNL     1     113.583 128.316 140.428  0.00  0.00    +0.000 A 
ATOM     29  C   UNL     1     113.368 127.523 140.493  0.00  0.00    +0.000 A 
BRANCH  24  30
ATOM     30  O   UNL     1     112.419 129.191 142.054  0.00  0.00    +0.000 OA
BRANCH  30  39
ATOM     31  O   UNL     1     111.217 129.445 141.323  0.00  0.00    +0.000 OA
ATOM     32  O   UNL     1     110.096 131.291 141.011  0.00  0.00    +0.000 OA
ATOM     33  O   UNL     1     111.338 131.835 141.951  0.00  0.00    +0.000 OA
ATOM     34  O   UNL     1     112.500 130.785 142.473  0.00  0.00    +0.000 OA
ATOM     35  C   UNL     1     110.677 130.766 141.272  0.00  0.00    +0.000 C 
ATOM     36  C   UNL     1     111.298 131.039 141.742  0.00  0.00    +0.000 C 
ATOM     37  C   UNL     1     110.637 129.970 141.062  0.00  0.00    +0.000 C 
ATOM     38  C   UNL     1     111.878 130.514 142.002  0.00  0.00    +0.000 C 
ATOM     39  C   UNL     1     111.838 129.716 141.793  0.00  0.00    +0.000 C 
BRANCH  37  41
ATOM     40  O   UNL     1     109.545 129.072 140.853  0.00  0.00    +0.000 OA
ATOM     41  C   UNL     1     110.016 129.697 140.592  0.00  0.00    +0.000 C 
ENDBRANCH  37  41
ENDBRANCH  30  39
ENDBRANCH  24  30
ENDBRANCH  22  29
ENDBRANCH   2  23
TORSDOF 9
ENDMDL
