MODEL 1
REMARK VINA RESULT:      -8.0      0.000      0.000
REMARK  Name = 11741090
REMARK  5 active torsions:
REMARK  status: ('A' for Active; 'I' for Inactive)
REMARK    1  A    between atoms: O_2  and  C_14
REMARK    2  A    between atoms: O_3  and  C_17
REMARK    3  A    between atoms: O_4  and  C_19
REMARK    4  A    between atoms: O_8  and  C_24
REMARK    5  A    between atoms: C_11  and  C_13
REMARK                            x       y       z     vdW  Elec       q    Type
REMARK                         _______ _______ _______ _____ _____    ______ ____
ROOT
ATOM      1  O   UNL     1     104.771 124.022 146.817  0.00  0.00    +0.000 OA
ATOM      2  O   UNL     1     101.956 124.638 147.027  0.00  0.00    +0.000 OA
ATOM      3  O   UNL     1     102.921 125.253 147.905  0.00  0.00    +0.000 OA
ATOM      4  O   UNL     1     102.883 122.741 145.008  0.00  0.00    +0.000 OA
ATOM      5  C   UNL     1     103.380 124.326 146.920  0.00  0.00    +0.000 A 
ATOM      6  C   UNL     1     104.931 124.539 147.440  0.00  0.00    +0.000 A 
ATOM      7  C   UNL     1     103.997 123.915 146.557  0.00  0.00    +0.000 A 
ATOM      8  C   UNL     1     104.314 124.949 147.803  0.00  0.00    +0.000 A 
ATOM      9  C   UNL     1     103.538 124.843 147.543  0.00  0.00    +0.000 A 
ATOM     10  C   UNL     1     102.567 124.223 146.658  0.00  0.00    +0.000 A 
ATOM     11  C   UNL     1     103.844 123.374 145.907  0.00  0.00    +0.000 A 
ATOM     12  C   UNL     1     102.395 123.687 146.010  0.00  0.00    +0.000 A 
ATOM     13  C   UNL     1     103.038 123.259 145.631  0.00  0.00    +0.000 A 
ENDROOT
BRANCH   6  15
ATOM     14  O   UNL     1     106.988 124.041 149.360  0.00  0.00    +0.000 OA
ATOM     15  C   UNL     1     105.706 124.646 147.700  0.00  0.00    +0.000 A 
ATOM     16  C   UNL     1     106.228 125.109 147.261  0.00  0.00    +0.000 A 
ATOM     17  C   UNL     1     105.959 124.290 148.400  0.00  0.00    +0.000 A 
ATOM     18  C   UNL     1     107.004 125.216 147.521  0.00  0.00    +0.000 A 
ATOM     19  C   UNL     1     106.734 124.397 148.660  0.00  0.00    +0.000 A 
ATOM     20  C   UNL     1     107.257 124.859 148.221  0.00  0.00    +0.000 A 
BRANCH  16  21
ATOM     21  O   UNL     1     105.976 125.465 146.561  0.00  0.00    +0.000 OA
ATOM     22  C   UNL     1     106.495 125.935 146.127  0.00  0.00    +0.000 C 
ENDBRANCH  16  21
BRANCH  20  23
ATOM     23  O   UNL     1     108.033 124.967 148.481  0.00  0.00    +0.000 OA
ATOM     24  C   UNL     1     108.658 124.918 147.946  0.00  0.00    +0.000 C 
ENDBRANCH  20  23
ENDBRANCH   6  15
BRANCH   8  25
ATOM     25  O   UNL     1     104.472 125.466 148.426  0.00  0.00    +0.000 OA
ATOM     26  C   UNL     1     103.854 125.753 148.892  0.00  0.00    +0.000 C 
ENDBRANCH   8  25
BRANCH  12  27
ATOM     27  O   UNL     1     101.619 123.582 145.751  0.00  0.00    +0.000 OA
ATOM     28  C   UNL     1     101.190 122.920 145.993  0.00  0.00    +0.000 C 
ENDBRANCH  12  27
TORSDOF 5
ENDMDL
MODEL 2
REMARK VINA RESULT:      -7.6     12.061     14.216
REMARK  Name = 11741090
REMARK  5 active torsions:
REMARK  status: ('A' for Active; 'I' for Inactive)
REMARK    1  A    between atoms: O_2  and  C_14
REMARK    2  A    between atoms: O_3  and  C_17
REMARK    3  A    between atoms: O_4  and  C_19
REMARK    4  A    between atoms: O_8  and  C_24
REMARK    5  A    between atoms: C_11  and  C_13
REMARK                            x       y       z     vdW  Elec       q    Type
REMARK                         _______ _______ _______ _____ _____    ______ ____
ROOT
ATOM      1  O   UNL     1     113.299 127.210 136.115  0.00  0.00    +0.000 OA
ATOM      2  O   UNL     1     112.915 129.780 137.379  0.00  0.00    +0.000 OA
ATOM      3  O   UNL     1     112.224 128.606 137.853  0.00  0.00    +0.000 OA
ATOM      4  O   UNL     1     114.728 129.536 135.102  0.00  0.00    +0.000 OA
ATOM      5  C   UNL     1     113.110 128.481 136.739  0.00  0.00    +0.000 A 
ATOM      6  C   UNL     1     112.771 126.869 136.650  0.00  0.00    +0.000 A 
ATOM      7  C   UNL     1     113.468 128.016 136.159  0.00  0.00    +0.000 A 
ATOM      8  C   UNL     1     112.413 127.334 137.229  0.00  0.00    +0.000 A 
ATOM      9  C   UNL     1     112.582 128.141 137.274  0.00  0.00    +0.000 A 
ATOM     10  C   UNL     1     113.278 129.323 136.796  0.00  0.00    +0.000 A 
ATOM     11  C   UNL     1     114.020 128.359 135.596  0.00  0.00    +0.000 A 
ATOM     12  C   UNL     1     113.826 129.683 136.242  0.00  0.00    +0.000 A 
ATOM     13  C   UNL     1     114.200 129.198 135.638  0.00  0.00    +0.000 A 
ENDROOT
BRANCH   6  15
ATOM     14  O   UNL     1     111.029 124.745 135.860  0.00  0.00    +0.000 OA
ATOM     15  C   UNL     1     112.602 126.063 136.606  0.00  0.00    +0.000 A 
ATOM     16  C   UNL     1     113.134 125.512 136.912  0.00  0.00    +0.000 A 
ATOM     17  C   UNL     1     111.900 125.807 136.255  0.00  0.00    +0.000 A 
ATOM     18  C   UNL     1     112.965 124.705 136.868  0.00  0.00    +0.000 A 
ATOM     19  C   UNL     1     111.731 125.001 136.211  0.00  0.00    +0.000 A 
ATOM     20  C   UNL     1     112.263 124.451 136.517  0.00  0.00    +0.000 A 
BRANCH  16  21
ATOM     21  O   UNL     1     113.836 125.767 137.263  0.00  0.00    +0.000 OA
ATOM     22  C   UNL     1     114.401 125.217 137.501  0.00  0.00    +0.000 C 
ENDBRANCH  16  21
BRANCH  20  23
ATOM     23  O   UNL     1     112.094 123.644 136.473  0.00  0.00    +0.000 OA
ATOM     24  C   UNL     1     112.027 123.198 137.163  0.00  0.00    +0.000 C 
ENDBRANCH  20  23
ENDBRANCH   6  15
BRANCH   8  25
ATOM     25  O   UNL     1     111.885 126.994 137.764  0.00  0.00    +0.000 OA
ATOM     26  C   UNL     1     111.387 127.473 138.214  0.00  0.00    +0.000 C 
ENDBRANCH   8  25
BRANCH  12  27
ATOM     27  O   UNL     1     113.994 130.490 136.288  0.00  0.00    +0.000 OA
ATOM     28  C   UNL     1     114.696 130.746 136.638  0.00  0.00    +0.000 C 
ENDBRANCH  12  27
TORSDOF 5
ENDMDL
MODEL 3
REMARK VINA RESULT:      -7.6     12.732     14.023
REMARK  Name = 11741090
REMARK  5 active torsions:
REMARK  status: ('A' for Active; 'I' for Inactive)
REMARK    1  A    between atoms: O_2  and  C_14
REMARK    2  A    between atoms: O_3  and  C_17
REMARK    3  A    between atoms: O_4  and  C_19
REMARK    4  A    between atoms: O_8  and  C_24
REMARK    5  A    between atoms: C_11  and  C_13
REMARK                            x       y       z     vdW  Elec       q    Type
REMARK                         _______ _______ _______ _____ _____    ______ ____
ROOT
ATOM      1  O   UNL     1     113.422 126.776 136.688  0.00  0.00    +0.000 OA
ATOM      2  O   UNL     1     111.313 124.945 135.948  0.00  0.00    +0.000 OA
ATOM      3  O   UNL     1     111.178 126.364 135.728  0.00  0.00    +0.000 OA
ATOM      4  O   UNL     1     113.765 123.924 137.162  0.00  0.00    +0.000 OA
ATOM      5  C   UNL     1     112.380 125.870 136.323  0.00  0.00    +0.000 A 
ATOM      6  C   UNL     1     112.968 127.409 136.414  0.00  0.00    +0.000 A 
ATOM      7  C   UNL     1     113.128 126.008 136.643  0.00  0.00    +0.000 A 
ATOM      8  C   UNL     1     112.220 127.272 136.094  0.00  0.00    +0.000 A 
ATOM      9  C   UNL     1     111.926 126.502 136.048  0.00  0.00    +0.000 A 
ATOM     10  C   UNL     1     112.062 125.073 136.270  0.00  0.00    +0.000 A 
ATOM     11  C   UNL     1     113.610 125.357 136.932  0.00  0.00    +0.000 A 
ATOM     12  C   UNL     1     112.530 124.411 136.554  0.00  0.00    +0.000 A 
ATOM     13  C   UNL     1     113.309 124.554 136.887  0.00  0.00    +0.000 A 
ENDROOT
BRANCH   6  15
ATOM     14  O   UNL     1     114.205 129.664 135.167  0.00  0.00    +0.000 OA
ATOM     15  C   UNL     1     113.262 128.178 136.459  0.00  0.00    +0.000 A 
ATOM     16  C   UNL     1     113.232 128.589 137.174  0.00  0.00    +0.000 A 
ATOM     17  C   UNL     1     113.587 128.537 135.791  0.00  0.00    +0.000 A 
ATOM     18  C   UNL     1     113.526 129.360 137.219  0.00  0.00    +0.000 A 
ATOM     19  C   UNL     1     113.880 129.306 135.836  0.00  0.00    +0.000 A 
ATOM     20  C   UNL     1     113.850 129.717 136.550  0.00  0.00    +0.000 A 
BRANCH  16  21
ATOM     21  O   UNL     1     112.908 128.232 137.843  0.00  0.00    +0.000 OA
ATOM     22  C   UNL     1     112.953 128.608 138.574  0.00  0.00    +0.000 C 
ENDBRANCH  16  21
BRANCH  20  23
ATOM     23  O   UNL     1     114.144 130.487 136.596  0.00  0.00    +0.000 OA
ATOM     24  C   UNL     1     113.668 131.094 136.886  0.00  0.00    +0.000 C 
ENDBRANCH  20  23
ENDBRANCH   6  15
BRANCH   8  25
ATOM     25  O   UNL     1     111.766 127.903 135.819  0.00  0.00    +0.000 OA
ATOM     26  C   UNL     1     111.133 127.765 135.309  0.00  0.00    +0.000 C 
ENDBRANCH   8  25
BRANCH  12  27
ATOM     27  O   UNL     1     112.233 123.642 136.507  0.00  0.00    +0.000 OA
ATOM     28  C   UNL     1     111.892 123.291 137.171  0.00  0.00    +0.000 C 
ENDBRANCH  12  27
TORSDOF 5
ENDMDL
MODEL 4
REMARK VINA RESULT:      -7.5      7.372      8.940
REMARK  Name = 11741090
REMARK  5 active torsions:
REMARK  status: ('A' for Active; 'I' for Inactive)
REMARK    1  A    between atoms: O_2  and  C_14
REMARK    2  A    between atoms: O_3  and  C_17
REMARK    3  A    between atoms: O_4  and  C_19
REMARK    4  A    between atoms: O_8  and  C_24
REMARK    5  A    between atoms: C_11  and  C_13
REMARK                            x       y       z     vdW  Elec       q    Type
REMARK                         _______ _______ _______ _____ _____    ______ ____
ROOT
ATOM      1  O   UNL     1     103.599 130.128 142.235  0.00  0.00    +0.000 OA
ATOM      2  O   UNL     1     104.244 127.639 140.917  0.00  0.00    +0.000 OA
ATOM      3  O   UNL     1     103.345 128.591 140.312  0.00  0.00    +0.000 OA
ATOM      4  O   UNL     1     105.421 128.253 143.518  0.00  0.00    +0.000 OA
ATOM      5  C   UNL     1     103.918 128.897 141.585  0.00  0.00    +0.000 A 
ATOM      6  C   UNL     1     103.110 130.335 141.604  0.00  0.00    +0.000 A 
ATOM      7  C   UNL     1     104.003 129.409 142.226  0.00  0.00    +0.000 A 
ATOM      8  C   UNL     1     103.025 129.823 140.962  0.00  0.00    +0.000 A 
ATOM      9  C   UNL     1     103.430 129.103 140.953  0.00  0.00    +0.000 A 
ATOM     10  C   UNL     1     104.334 128.145 141.562  0.00  0.00    +0.000 A 
ATOM     11  C   UNL     1     104.509 129.205 142.890  0.00  0.00    +0.000 A 
ATOM     12  C   UNL     1     104.845 127.924 142.217  0.00  0.00    +0.000 A 
ATOM     13  C   UNL     1     104.933 128.458 142.885  0.00  0.00    +0.000 A 
ENDROOT
BRANCH   6  15
ATOM     14  O   UNL     1     100.710 131.820 142.057  0.00  0.00    +0.000 OA
ATOM     15  C   UNL     1     102.706 131.054 141.613  0.00  0.00    +0.000 A 
ATOM     16  C   UNL     1     103.097 131.750 141.405  0.00  0.00    +0.000 A 
ATOM     17  C   UNL     1     101.910 131.078 141.830  0.00  0.00    +0.000 A 
ATOM     18  C   UNL     1     102.693 132.470 141.415  0.00  0.00    +0.000 A 
ATOM     19  C   UNL     1     101.506 131.796 141.840  0.00  0.00    +0.000 A 
ATOM     20  C   UNL     1     101.897 132.492 141.632  0.00  0.00    +0.000 A 
BRANCH  16  21
ATOM     21  O   UNL     1     103.892 131.727 141.188  0.00  0.00    +0.000 OA
ATOM     22  C   UNL     1     104.285 132.423 140.988  0.00  0.00    +0.000 C 
ENDBRANCH  16  21
BRANCH  20  23
ATOM     23  O   UNL     1     101.493 133.212 141.641  0.00  0.00    +0.000 OA
ATOM     24  C   UNL     1     101.742 133.818 142.140  0.00  0.00    +0.000 C 
ENDBRANCH  20  23
ENDBRANCH   6  15
BRANCH   8  25
ATOM     25  O   UNL     1     102.537 130.029 140.331  0.00  0.00    +0.000 OA
ATOM     26  C   UNL     1     102.231 129.444 139.836  0.00  0.00    +0.000 C 
ENDBRANCH   8  25
BRANCH  12  27
ATOM     27  O   UNL     1     105.248 127.204 142.205  0.00  0.00    +0.000 OA
ATOM     28  C   UNL     1     106.061 127.189 142.064  0.00  0.00    +0.000 C 
ENDBRANCH  12  27
TORSDOF 5
ENDMDL
MODEL 5
REMARK VINA RESULT:      -7.5      9.882     11.090
REMARK  Name = 11741090
REMARK  5 active torsions:
REMARK  status: ('A' for Active; 'I' for Inactive)
REMARK    1  A    between atoms: O_2  and  C_14
REMARK    2  A    between atoms: O_3  and  C_17
REMARK    3  A    between atoms: O_4  and  C_19
REMARK    4  A    between atoms: O_8  and  C_24
REMARK    5  A    between atoms: C_11  and  C_13
REMARK                            x       y       z     vdW  Elec       q    Type
REMARK                         _______ _______ _______ _____ _____    ______ ____
ROOT
ATOM      1  O   UNL     1     111.568 131.605 145.189  0.00  0.00    +0.000 OA
ATOM      2  O   UNL     1     112.070 132.091 142.386  0.00  0.00    +0.000 OA
ATOM      3  O   UNL     1     111.988 133.180 143.327  0.00  0.00    +0.000 OA
ATOM      4  O   UNL     1     111.722 129.355 143.347  0.00  0.00    +0.000 OA
ATOM      5  C   UNL     1     111.816 131.844 143.803  0.00  0.00    +0.000 A 
ATOM      6  C   UNL     1     111.599 132.416 145.335  0.00  0.00    +0.000 A 
ATOM      7  C   UNL     1     111.677 131.318 144.424  0.00  0.00    +0.000 A 
ATOM      8  C   UNL     1     111.739 132.941 144.715  0.00  0.00    +0.000 A 
ATOM      9  C   UNL     1     111.848 132.655 143.948  0.00  0.00    +0.000 A 
ATOM     10  C   UNL     1     111.931 131.558 143.000  0.00  0.00    +0.000 A 
ATOM     11  C   UNL     1     111.642 130.471 144.285  0.00  0.00    +0.000 A 
ATOM     12  C   UNL     1     111.900 130.714 142.843  0.00  0.00    +0.000 A 
ATOM     13  C   UNL     1     111.754 130.167 143.490  0.00  0.00    +0.000 A 
ENDROOT
BRANCH   6  15
ATOM     14  O   UNL     1     109.955 133.702 147.288  0.00  0.00    +0.000 OA
ATOM     15  C   UNL     1     111.491 132.703 146.101  0.00  0.00    +0.000 A 
ATOM     16  C   UNL     1     112.097 132.633 146.657  0.00  0.00    +0.000 A 
ATOM     17  C   UNL     1     110.777 133.059 146.312  0.00  0.00    +0.000 A 
ATOM     18  C   UNL     1     111.988 132.920 147.423  0.00  0.00    +0.000 A 
ATOM     19  C   UNL     1     110.669 133.345 147.077  0.00  0.00    +0.000 A 
ATOM     20  C   UNL     1     111.274 133.276 147.633  0.00  0.00    +0.000 A 
BRANCH  16  21
ATOM     21  O   UNL     1     112.811 132.277 146.447  0.00  0.00    +0.000 OA
ATOM     22  C   UNL     1     113.400 132.170 147.013  0.00  0.00    +0.000 C 
ENDBRANCH  16  21
BRANCH  20  23
ATOM     23  O   UNL     1     111.166 133.563 148.400  0.00  0.00    +0.000 OA
ATOM     24  C   UNL     1     111.673 133.325 149.004  0.00  0.00    +0.000 C 
ENDBRANCH  20  23
ENDBRANCH   6  15
BRANCH   8  25
ATOM     25  O   UNL     1     111.771 133.753 144.859  0.00  0.00    +0.000 OA
ATOM     26  C   UNL     1     111.919 134.277 144.240  0.00  0.00    +0.000 C 
ENDBRANCH   8  25
BRANCH  12  27
ATOM     27  O   UNL     1     112.008 130.430 142.076  0.00  0.00    +0.000 OA
ATOM     28  C   UNL     1     112.732 130.099 141.857  0.00  0.00    +0.000 C 
ENDBRANCH  12  27
TORSDOF 5
ENDMDL
MODEL 6
REMARK VINA RESULT:      -7.5      2.181      3.467
REMARK  Name = 11741090
REMARK  5 active torsions:
REMARK  status: ('A' for Active; 'I' for Inactive)
REMARK    1  A    between atoms: O_2  and  C_14
REMARK    2  A    between atoms: O_3  and  C_17
REMARK    3  A    between atoms: O_4  and  C_19
REMARK    4  A    between atoms: O_8  and  C_24
REMARK    5  A    between atoms: C_11  and  C_13
REMARK                            x       y       z     vdW  Elec       q    Type
REMARK                         _______ _______ _______ _____ _____    ______ ____
ROOT
ATOM      1  O   UNL     1     106.399 124.991 145.740  0.00  0.00    +0.000 OA
ATOM      2  O   UNL     1     105.952 127.181 143.908  0.00  0.00    +0.000 OA
ATOM      3  O   UNL     1     106.409 127.418 145.255  0.00  0.00    +0.000 OA
ATOM      4  O   UNL     1     105.475 124.434 143.035  0.00  0.00    +0.000 OA
ATOM      5  C   UNL     1     106.177 126.073 144.833  0.00  0.00    +0.000 A 
ATOM      6  C   UNL     1     106.627 125.527 146.324  0.00  0.00    +0.000 A 
ATOM      7  C   UNL     1     106.174 125.264 144.995  0.00  0.00    +0.000 A 
ATOM      8  C   UNL     1     106.630 126.336 146.163  0.00  0.00    +0.000 A 
ATOM      9  C   UNL     1     106.405 126.609 145.417  0.00  0.00    +0.000 A 
ATOM     10  C   UNL     1     105.945 126.370 144.060  0.00  0.00    +0.000 A 
ATOM     11  C   UNL     1     105.938 124.695 144.395  0.00  0.00    +0.000 A 
ATOM     12  C   UNL     1     105.706 125.816 143.448  0.00  0.00    +0.000 A 
ATOM     13  C   UNL     1     105.703 124.973 143.617  0.00  0.00    +0.000 A 
ENDROOT
BRANCH   6  15
ATOM     14  O   UNL     1     108.675 124.906 148.219  0.00  0.00    +0.000 OA
ATOM     15  C   UNL     1     106.852 125.255 147.069  0.00  0.00    +0.000 A 
ATOM     16  C   UNL     1     106.277 125.021 147.613  0.00  0.00    +0.000 A 
ATOM     17  C   UNL     1     107.651 125.217 147.272  0.00  0.00    +0.000 A 
ATOM     18  C   UNL     1     106.502 124.748 148.359  0.00  0.00    +0.000 A 
ATOM     19  C   UNL     1     107.876 124.944 148.016  0.00  0.00    +0.000 A 
ATOM     20  C   UNL     1     107.301 124.710 148.560  0.00  0.00    +0.000 A 
BRANCH  16  21
ATOM     21  O   UNL     1     105.478 125.059 147.412  0.00  0.00    +0.000 OA
ATOM     22  C   UNL     1     104.905 124.815 147.952  0.00  0.00    +0.000 C 
ENDBRANCH  16  21
BRANCH  20  23
ATOM     23  O   UNL     1     107.526 124.437 149.307  0.00  0.00    +0.000 OA
ATOM     24  C   UNL     1     107.191 123.749 149.612  0.00  0.00    +0.000 C 
ENDBRANCH  20  23
ENDBRANCH   6  15
BRANCH   8  25
ATOM     25  O   UNL     1     106.859 126.873 146.746  0.00  0.00    +0.000 OA
ATOM     26  C   UNL     1     107.020 127.657 146.546  0.00  0.00    +0.000 C 
ENDBRANCH   8  25
BRANCH  12  27
ATOM     27  O   UNL     1     105.482 126.092 142.704  0.00  0.00    +0.000 OA
ATOM     28  C   UNL     1     106.011 126.049 142.072  0.00  0.00    +0.000 C 
ENDBRANCH  12  27
TORSDOF 5
ENDMDL
MODEL 7
REMARK VINA RESULT:      -7.5     12.492     13.626
REMARK  Name = 11741090
REMARK  5 active torsions:
REMARK  status: ('A' for Active; 'I' for Inactive)
REMARK    1  A    between atoms: O_2  and  C_14
REMARK    2  A    between atoms: O_3  and  C_17
REMARK    3  A    between atoms: O_4  and  C_19
REMARK    4  A    between atoms: O_8  and  C_24
REMARK    5  A    between atoms: C_11  and  C_13
REMARK                            x       y       z     vdW  Elec       q    Type
REMARK                         _______ _______ _______ _____ _____    ______ ____
ROOT
ATOM      1  O   UNL     1     111.048 127.145 136.525  0.00  0.00    +0.000 OA
ATOM      2  O   UNL     1     111.554 124.330 136.113  0.00  0.00    +0.000 OA
ATOM      3  O   UNL     1     110.598 125.042 135.301  0.00  0.00    +0.000 OA
ATOM      4  O   UNL     1     112.992 125.775 138.205  0.00  0.00    +0.000 OA
ATOM      5  C   UNL     1     111.299 125.754 136.323  0.00  0.00    +0.000 A 
ATOM      6  C   UNL     1     110.496 127.136 135.912  0.00  0.00    +0.000 A 
ATOM      7  C   UNL     1     111.449 126.455 136.731  0.00  0.00    +0.000 A 
ATOM      8  C   UNL     1     110.347 126.435 135.503  0.00  0.00    +0.000 A 
ATOM      9  C   UNL     1     110.748 125.743 135.709  0.00  0.00    +0.000 A 
ATOM     10  C   UNL     1     111.711 125.027 136.527  0.00  0.00    +0.000 A 
ATOM     11  C   UNL     1     112.021 126.478 137.372  0.00  0.00    +0.000 A 
ATOM     12  C   UNL     1     112.286 125.031 137.165  0.00  0.00    +0.000 A 
ATOM     13  C   UNL     1     112.442 125.762 137.591  0.00  0.00    +0.000 A 
ENDROOT
BRANCH   6  15
ATOM     14  O   UNL     1     108.115 128.716 135.937  0.00  0.00    +0.000 OA
ATOM     15  C   UNL     1     110.095 127.826 135.706  0.00  0.00    +0.000 A 
ATOM     16  C   UNL     1     110.483 128.418 135.282  0.00  0.00    +0.000 A 
ATOM     17  C   UNL     1     109.306 127.926 135.924  0.00  0.00    +0.000 A 
ATOM     18  C   UNL     1     110.082 129.109 135.076  0.00  0.00    +0.000 A 
ATOM     19  C   UNL     1     108.905 128.616 135.719  0.00  0.00    +0.000 A 
ATOM     20  C   UNL     1     109.293 129.208 135.295  0.00  0.00    +0.000 A 
BRANCH  16  21
ATOM     21  O   UNL     1     111.272 128.319 135.063  0.00  0.00    +0.000 OA
ATOM     22  C   UNL     1     111.670 128.923 134.668  0.00  0.00    +0.000 C 
ENDBRANCH  16  21
BRANCH  20  23
ATOM     23  O   UNL     1     108.891 129.899 135.089  0.00  0.00    +0.000 OA
ATOM     24  C   UNL     1     109.197 130.633 135.304  0.00  0.00    +0.000 C 
ENDBRANCH  20  23
ENDBRANCH   6  15
BRANCH   8  25
ATOM     25  O   UNL     1     109.796 126.424 134.890  0.00  0.00    +0.000 OA
ATOM     26  C   UNL     1     109.500 125.705 134.613  0.00  0.00    +0.000 C 
ENDBRANCH   8  25
BRANCH  12  27
ATOM     27  O   UNL     1     112.686 124.339 137.369  0.00  0.00    +0.000 OA
ATOM     28  C   UNL     1     113.438 124.193 137.064  0.00  0.00    +0.000 C 
ENDBRANCH  12  27
TORSDOF 5
ENDMDL
MODEL 8
REMARK VINA RESULT:      -7.5      1.960      4.513
REMARK  Name = 11741090
REMARK  5 active torsions:
REMARK  status: ('A' for Active; 'I' for Inactive)
REMARK    1  A    between atoms: O_2  and  C_14
REMARK    2  A    between atoms: O_3  and  C_17
REMARK    3  A    between atoms: O_4  and  C_19
REMARK    4  A    between atoms: O_8  and  C_24
REMARK    5  A    between atoms: C_11  and  C_13
REMARK                            x       y       z     vdW  Elec       q    Type
REMARK                         _______ _______ _______ _____ _____    ______ ____
ROOT
ATOM      1  O   UNL     1     103.905 125.287 146.760  0.00  0.00    +0.000 OA
ATOM      2  O   UNL     1     106.039 124.513 144.972  0.00  0.00    +0.000 OA
ATOM      3  O   UNL     1     105.017 123.573 145.362  0.00  0.00    +0.000 OA
ATOM      4  O   UNL     1     105.934 127.239 146.016  0.00  0.00    +0.000 OA
ATOM      5  C   UNL     1     104.960 124.906 145.876  0.00  0.00    +0.000 A 
ATOM      6  C   UNL     1     103.590 124.526 146.712  0.00  0.00    +0.000 A 
ATOM      7  C   UNL     1     104.590 125.477 146.342  0.00  0.00    +0.000 A 
ATOM      8  C   UNL     1     103.960 123.955 146.247  0.00  0.00    +0.000 A 
ATOM      9  C   UNL     1     104.646 124.145 145.828  0.00  0.00    +0.000 A 
ATOM     10  C   UNL     1     105.676 125.091 145.435  0.00  0.00    +0.000 A 
ATOM     11  C   UNL     1     104.908 126.273 146.400  0.00  0.00    +0.000 A 
ATOM     12  C   UNL     1     106.008 125.882 145.481  0.00  0.00    +0.000 A 
ATOM     13  C   UNL     1     105.622 126.477 145.967  0.00  0.00    +0.000 A 
ENDROOT
BRANCH   6  15
ATOM     14  O   UNL     1     100.785 123.976 146.750  0.00  0.00    +0.000 OA
ATOM     15  C   UNL     1     102.905 124.336 147.130  0.00  0.00    +0.000 A 
ATOM     16  C   UNL     1     102.936 124.230 147.948  0.00  0.00    +0.000 A 
ATOM     17  C   UNL     1     102.187 124.251 146.731  0.00  0.00    +0.000 A 
ATOM     18  C   UNL     1     102.251 124.040 148.366  0.00  0.00    +0.000 A 
ATOM     19  C   UNL     1     101.503 124.061 147.149  0.00  0.00    +0.000 A 
ATOM     20  C   UNL     1     101.534 123.956 147.966  0.00  0.00    +0.000 A 
BRANCH  16  21
ATOM     21  O   UNL     1     103.653 124.315 148.348  0.00  0.00    +0.000 OA
ATOM     22  C   UNL     1     103.667 124.322 149.172  0.00  0.00    +0.000 C 
ENDBRANCH  16  21
BRANCH  20  23
ATOM     23  O   UNL     1     100.848 123.765 148.385  0.00  0.00    +0.000 OA
ATOM     24  C   UNL     1     100.809 123.063 148.815  0.00  0.00    +0.000 C 
ENDBRANCH  20  23
ENDBRANCH   6  15
BRANCH   8  25
ATOM     25  O   UNL     1     103.646 123.194 146.198  0.00  0.00    +0.000 OA
ATOM     26  C   UNL     1     103.766 122.739 145.520  0.00  0.00    +0.000 C 
ENDBRANCH   8  25
BRANCH  12  27
ATOM     27  O   UNL     1     106.693 126.069 145.062  0.00  0.00    +0.000 OA
ATOM     28  C   UNL     1     106.645 126.516 144.371  0.00  0.00    +0.000 C 
ENDBRANCH  12  27
TORSDOF 5
ENDMDL
MODEL 9
REMARK VINA RESULT:      -7.4      1.874      4.428
REMARK  Name = 11741090
REMARK  5 active torsions:
REMARK  status: ('A' for Active; 'I' for Inactive)
REMARK    1  A    between atoms: O_2  and  C_14
REMARK    2  A    between atoms: O_3  and  C_17
REMARK    3  A    between atoms: O_4  and  C_19
REMARK    4  A    between atoms: O_8  and  C_24
REMARK    5  A    between atoms: C_11  and  C_13
REMARK                            x       y       z     vdW  Elec       q    Type
REMARK                         _______ _______ _______ _____ _____    ______ ____
ROOT
ATOM      1  O   UNL     1     106.805 125.304 146.107  0.00  0.00    +0.000 OA
ATOM      2  O   UNL     1     105.629 124.646 148.663  0.00  0.00    +0.000 OA
ATOM      3  O   UNL     1     104.808 124.839 147.493  0.00  0.00    +0.000 OA
ATOM      4  O   UNL     1     108.526 124.931 148.425  0.00  0.00    +0.000 OA
ATOM      5  C   UNL     1     106.225 124.979 147.371  0.00  0.00    +0.000 A 
ATOM      6  C   UNL     1     106.054 125.319 145.765  0.00  0.00    +0.000 A 
ATOM      7  C   UNL     1     106.891 125.134 146.909  0.00  0.00    +0.000 A 
ATOM      8  C   UNL     1     105.388 125.164 146.227  0.00  0.00    +0.000 A 
ATOM      9  C   UNL     1     105.474 124.994 147.031  0.00  0.00    +0.000 A 
ATOM     10  C   UNL     1     106.301 124.800 148.209  0.00  0.00    +0.000 A 
ATOM     11  C   UNL     1     107.679 125.122 147.252  0.00  0.00    +0.000 A 
ATOM     12  C   UNL     1     107.080 124.783 148.569  0.00  0.00    +0.000 A 
ATOM     13  C   UNL     1     107.774 124.945 148.087  0.00  0.00    +0.000 A 
ENDROOT
BRANCH   6  15
ATOM     14  O   UNL     1     105.545 124.448 143.091  0.00  0.00    +0.000 OA
ATOM     15  C   UNL     1     105.968 125.489 144.963  0.00  0.00    +0.000 A 
ATOM     16  C   UNL     1     106.050 126.265 144.695  0.00  0.00    +0.000 A 
ATOM     17  C   UNL     1     105.799 124.884 144.428  0.00  0.00    +0.000 A 
ATOM     18  C   UNL     1     105.965 126.435 143.892  0.00  0.00    +0.000 A 
ATOM     19  C   UNL     1     105.713 125.054 143.626  0.00  0.00    +0.000 A 
ATOM     20  C   UNL     1     105.796 125.829 143.358  0.00  0.00    +0.000 A 
BRANCH  16  21
ATOM     21  O   UNL     1     106.219 126.871 145.229  0.00  0.00    +0.000 OA
ATOM     22  C   UNL     1     106.292 127.647 144.962  0.00  0.00    +0.000 C 
ENDBRANCH  16  21
BRANCH  20  23
ATOM     23  O   UNL     1     105.710 126.000 142.554  0.00  0.00    +0.000 OA
ATOM     24  C   UNL     1     106.296 126.423 142.158  0.00  0.00    +0.000 C 
ENDBRANCH  20  23
ENDBRANCH   6  15
BRANCH   8  25
ATOM     25  O   UNL     1     104.637 125.179 145.887  0.00  0.00    +0.000 OA
ATOM     26  C   UNL     1     103.996 124.847 146.287  0.00  0.00    +0.000 C 
ENDBRANCH   8  25
BRANCH  12  27
ATOM     27  O   UNL     1     107.163 124.613 149.372  0.00  0.00    +0.000 OA
ATOM     28  C   UNL     1     107.410 123.863 149.611  0.00  0.00    +0.000 C 
ENDBRANCH  12  27
TORSDOF 5
ENDMDL
MODEL 10
REMARK VINA RESULT:      -7.3      1.336      2.227
REMARK  Name = 11741090
REMARK  5 active torsions:
REMARK  status: ('A' for Active; 'I' for Inactive)
REMARK    1  A    between atoms: O_2  and  C_14
REMARK    2  A    between atoms: O_3  and  C_17
REMARK    3  A    between atoms: O_4  and  C_19
REMARK    4  A    between atoms: O_8  and  C_24
REMARK    5  A    between atoms: C_11  and  C_13
REMARK                            x       y       z     vdW  Elec       q    Type
REMARK                         _______ _______ _______ _____ _____    ______ ____
ROOT
ATOM      1  O   UNL     1     104.500 124.833 147.315  0.00  0.00    +0.000 OA
ATOM      2  O   UNL     1     102.819 123.146 145.679  0.00  0.00    +0.000 OA
ATOM      3  O   UNL     1     104.005 123.764 145.139  0.00  0.00    +0.000 OA
ATOM      4  O   UNL     1     102.121 123.620 148.476  0.00  0.00    +0.000 OA
ATOM      5  C   UNL     1     103.668 123.999 146.507  0.00  0.00    +0.000 A 
ATOM      6  C   UNL     1     105.003 124.955 146.672  0.00  0.00    +0.000 A 
ATOM      7  C   UNL     1     103.834 124.356 147.233  0.00  0.00    +0.000 A 
ATOM      8  C   UNL     1     104.838 124.599 145.946  0.00  0.00    +0.000 A 
ATOM      9  C   UNL     1     104.170 124.120 145.864  0.00  0.00    +0.000 A 
ATOM     10  C   UNL     1     102.976 123.498 146.409  0.00  0.00    +0.000 A 
ATOM     11  C   UNL     1     103.318 124.236 147.910  0.00  0.00    +0.000 A 
ATOM     12  C   UNL     1     102.450 123.368 147.075  0.00  0.00    +0.000 A 
ATOM     13  C   UNL     1     102.622 123.740 147.831  0.00  0.00    +0.000 A 
ENDROOT
BRANCH   6  15
ATOM     14  O   UNL     1     107.831 125.226 146.982  0.00  0.00    +0.000 OA
ATOM     15  C   UNL     1     105.670 125.433 146.754  0.00  0.00    +0.000 A 
ATOM     16  C   UNL     1     105.590 126.254 146.763  0.00  0.00    +0.000 A 
ATOM     17  C   UNL     1     106.417 125.091 146.827  0.00  0.00    +0.000 A 
ATOM     18  C   UNL     1     106.258 126.733 146.845  0.00  0.00    +0.000 A 
ATOM     19  C   UNL     1     107.084 125.569 146.909  0.00  0.00    +0.000 A 
ATOM     20  C   UNL     1     107.004 126.390 146.918  0.00  0.00    +0.000 A 
BRANCH  16  21
ATOM     21  O   UNL     1     104.844 126.598 146.690  0.00  0.00    +0.000 OA
ATOM     22  C   UNL     1     104.755 127.413 146.772  0.00  0.00    +0.000 C 
ENDBRANCH  16  21
BRANCH  20  23
ATOM     23  O   UNL     1     107.672 126.869 147.000  0.00  0.00    +0.000 OA
ATOM     24  C   UNL     1     107.710 127.593 146.609  0.00  0.00    +0.000 C 
ENDBRANCH  20  23
ENDBRANCH   6  15
BRANCH   8  25
ATOM     25  O   UNL     1     105.339 124.720 145.303  0.00  0.00    +0.000 OA
ATOM     26  C   UNL     1     105.271 124.247 144.631  0.00  0.00    +0.000 C 
ENDBRANCH   8  25
BRANCH  12  27
ATOM     27  O   UNL     1     101.783 122.889 146.990  0.00  0.00    +0.000 OA
ATOM     28  C   UNL     1     101.043 123.231 146.861  0.00  0.00    +0.000 C 
ENDBRANCH  12  27
TORSDOF 5
ENDMDL
