MODEL 1
REMARK VINA RESULT:     -10.1      0.000      0.000
REMARK  Name = 44257078
REMARK  3 active torsions:
REMARK  status: ('A' for Active; 'I' for Inactive)
REMARK    1  A    between atoms: O_1  and  C_12
REMARK    2  A    between atoms: O_1  and  C_15
REMARK    3  A    between atoms: C_17  and  C_21
REMARK                            x       y       z     vdW  Elec       q    Type
REMARK                         _______ _______ _______ _____ _____    ______ ____
ROOT
ATOM      1  O   UNL     1     105.493 124.407 147.738  0.00  0.00    +0.000 OA
ATOM      2  O   UNL     1     108.009 125.584 146.945  0.00  0.00    +0.000 OA
ATOM      3  O   UNL     1     107.722 124.428 149.612  0.00  0.00    +0.000 OA
ATOM      4  C   UNL     1     105.638 124.974 146.435  0.00  0.00    +0.000 C 
ATOM      5  C   UNL     1     105.175 124.591 147.000  0.00  0.00    +0.000 C 
ATOM      6  C   UNL     1     106.420 125.173 146.609  0.00  0.00    +0.000 C 
ATOM      7  C   UNL     1     106.738 124.989 147.347  0.00  0.00    +0.000 A 
ATOM      8  C   UNL     1     106.273 124.606 147.912  0.00  0.00    +0.000 A 
ATOM      9  C   UNL     1     107.552 125.201 147.517  0.00  0.00    +0.000 A 
ATOM     10  C   UNL     1     106.593 124.409 148.685  0.00  0.00    +0.000 A 
ATOM     11  C   UNL     1     107.889 125.012 148.284  0.00  0.00    +0.000 A 
ATOM     12  C   UNL     1     107.407 124.613 148.872  0.00  0.00    +0.000 A 
ENDROOT
BRANCH   5  15
ATOM     13  O   UNL     1     103.278 122.807 145.821  0.00  0.00    +0.000 OA
ATOM     14  O   UNL     1     102.048 123.795 146.304  0.00  0.00    +0.000 OA
ATOM     15  C   UNL     1     104.392 124.392 146.826  0.00  0.00    +0.000 A 
ATOM     16  C   UNL     1     104.226 123.698 146.410  0.00  0.00    +0.000 A 
ATOM     17  C   UNL     1     103.778 124.886 147.067  0.00  0.00    +0.000 A 
ATOM     18  C   UNL     1     103.445 123.500 146.237  0.00  0.00    +0.000 A 
ATOM     19  C   UNL     1     102.996 124.687 146.893  0.00  0.00    +0.000 A 
ATOM     20  C   UNL     1     102.829 123.994 146.478  0.00  0.00    +0.000 A 
ENDBRANCH   5  15
BRANCH   4  21
ATOM     21  O   UNL     1     105.320 125.157 145.696  0.00  0.00    +0.000 OA
BRANCH  21  27
ATOM     22  O   UNL     1     105.482 126.574 145.606  0.00  0.00    +0.000 OA
ATOM     23  O   UNL     1     106.066 124.979 144.235  0.00  0.00    +0.000 OA
ATOM     24  O   UNL     1     106.601 126.306 143.414  0.00  0.00    +0.000 OA
ATOM     25  O   UNL     1     106.391 127.813 144.055  0.00  0.00    +0.000 OA
ATOM     26  C   UNL     1     105.960 125.733 144.555  0.00  0.00    +0.000 C 
ATOM     27  C   UNL     1     105.587 125.822 145.286  0.00  0.00    +0.000 C 
ATOM     28  C   UNL     1     106.228 126.396 144.145  0.00  0.00    +0.000 C 
ATOM     29  C   UNL     1     106.123 127.148 144.465  0.00  0.00    +0.000 C 
ATOM     30  C   UNL     1     105.750 127.238 145.196  0.00  0.00    +0.000 C 
ATOM     31  C   UNL     1     105.645 127.991 145.516  0.00  0.00    +0.000 C 
ENDBRANCH  21  27
ENDBRANCH   4  21
TORSDOF 3
ENDMDL
MODEL 2
REMARK VINA RESULT:      -9.8     11.924     13.035
REMARK  Name = 44257078
REMARK  3 active torsions:
REMARK  status: ('A' for Active; 'I' for Inactive)
REMARK    1  A    between atoms: O_1  and  C_12
REMARK    2  A    between atoms: O_1  and  C_15
REMARK    3  A    between atoms: C_17  and  C_21
REMARK                            x       y       z     vdW  Elec       q    Type
REMARK                         _______ _______ _______ _____ _____    ______ ____
ROOT
ATOM      1  O   UNL     1     112.012 125.784 136.034  0.00  0.00    +0.000 OA
ATOM      2  O   UNL     1     110.507 128.214 135.616  0.00  0.00    +0.000 OA
ATOM      3  O   UNL     1     109.472 125.675 134.612  0.00  0.00    +0.000 OA
ATOM      4  C   UNL     1     112.514 127.029 136.523  0.00  0.00    +0.000 C 
ATOM      5  C   UNL     1     112.595 126.214 136.429  0.00  0.00    +0.000 C 
ATOM      6  C   UNL     1     111.849 127.415 136.221  0.00  0.00    +0.000 C 
ATOM      7  C   UNL     1     111.266 126.985 135.826  0.00  0.00    +0.000 A 
ATOM      8  C   UNL     1     111.348 126.169 135.733  0.00  0.00    +0.000 A 
ATOM      9  C   UNL     1     110.580 127.398 135.517  0.00  0.00    +0.000 A 
ATOM     10  C   UNL     1     110.748 125.711 135.323  0.00  0.00    +0.000 A 
ATOM     11  C   UNL     1     109.969 126.957 135.105  0.00  0.00    +0.000 A 
ATOM     12  C   UNL     1     110.053 126.107 135.007  0.00  0.00    +0.000 A 
ENDROOT
BRANCH   5  15
ATOM     13  O   UNL     1     115.190 125.083 136.038  0.00  0.00    +0.000 OA
ATOM     14  O   UNL     1     115.251 124.671 137.634  0.00  0.00    +0.000 OA
ATOM     15  C   UNL     1     113.259 125.828 136.730  0.00  0.00    +0.000 A 
ATOM     16  C   UNL     1     113.893 125.648 136.233  0.00  0.00    +0.000 A 
ATOM     17  C   UNL     1     113.289 125.622 137.528  0.00  0.00    +0.000 A 
ATOM     18  C   UNL     1     114.556 125.263 136.534  0.00  0.00    +0.000 A 
ATOM     19  C   UNL     1     113.954 125.236 137.830  0.00  0.00    +0.000 A 
ATOM     20  C   UNL     1     114.588 125.056 137.333  0.00  0.00    +0.000 A 
ENDBRANCH   5  15
BRANCH   4  21
ATOM     21  O   UNL     1     113.097 127.459 136.918  0.00  0.00    +0.000 OA
BRANCH  21  27
ATOM     22  O   UNL     1     113.542 128.353 135.896  0.00  0.00    +0.000 OA
ATOM     23  O   UNL     1     112.962 128.725 137.968  0.00  0.00    +0.000 OA
ATOM     24  O   UNL     1     113.339 130.252 137.471  0.00  0.00    +0.000 OA
ATOM     25  O   UNL     1     113.851 130.514 135.924  0.00  0.00    +0.000 OA
ATOM     26  C   UNL     1     113.218 128.856 137.194  0.00  0.00    +0.000 C 
ATOM     27  C   UNL     1     113.286 128.223 136.669  0.00  0.00    +0.000 C 
ATOM     28  C   UNL     1     113.407 129.619 136.946  0.00  0.00    +0.000 C 
ATOM     29  C   UNL     1     113.663 129.750 136.173  0.00  0.00    +0.000 C 
ATOM     30  C   UNL     1     113.730 129.117 135.648  0.00  0.00    +0.000 C 
ATOM     31  C   UNL     1     113.987 129.248 134.875  0.00  0.00    +0.000 C 
ENDBRANCH  21  27
ENDBRANCH   4  21
TORSDOF 3
ENDMDL
MODEL 3
REMARK VINA RESULT:      -9.4     10.724     12.899
REMARK  Name = 44257078
REMARK  3 active torsions:
REMARK  status: ('A' for Active; 'I' for Inactive)
REMARK    1  A    between atoms: O_1  and  C_12
REMARK    2  A    between atoms: O_1  and  C_15
REMARK    3  A    between atoms: C_17  and  C_21
REMARK                            x       y       z     vdW  Elec       q    Type
REMARK                         _______ _______ _______ _____ _____    ______ ____
ROOT
ATOM      1  O   UNL     1     113.934 127.553 136.186  0.00  0.00    +0.000 OA
ATOM      2  O   UNL     1     111.752 129.374 135.667  0.00  0.00    +0.000 OA
ATOM      3  O   UNL     1     114.480 130.133 134.951  0.00  0.00    +0.000 OA
ATOM      4  C   UNL     1     112.597 127.186 136.535  0.00  0.00    +0.000 C 
ATOM      5  C   UNL     1     113.402 127.008 136.504  0.00  0.00    +0.000 C 
ATOM      6  C   UNL     1     112.324 127.910 136.247  0.00  0.00    +0.000 C 
ATOM      7  C   UNL     1     112.856 128.455 135.929  0.00  0.00    +0.000 A 
ATOM      8  C   UNL     1     113.660 128.275 135.899  0.00  0.00    +0.000 A 
ATOM      9  C   UNL     1     112.559 129.204 135.633  0.00  0.00    +0.000 A 
ATOM     10  C   UNL     1     114.224 128.834 135.570  0.00  0.00    +0.000 A 
ATOM     11  C   UNL     1     113.107 129.776 135.300  0.00  0.00    +0.000 A 
ATOM     12  C   UNL     1     113.946 129.590 135.268  0.00  0.00    +0.000 A 
ENDROOT
BRANCH   5  15
ATOM     13  O   UNL     1     114.172 124.294 136.047  0.00  0.00    +0.000 OA
ATOM     14  O   UNL     1     114.495 124.114 137.656  0.00  0.00    +0.000 OA
ATOM     15  C   UNL     1     113.675 126.284 136.792  0.00  0.00    +0.000 A 
ATOM     16  C   UNL     1     113.787 125.650 136.276  0.00  0.00    +0.000 A 
ATOM     17  C   UNL     1     113.836 126.195 137.596  0.00  0.00    +0.000 A 
ATOM     18  C   UNL     1     114.060 124.928 136.564  0.00  0.00    +0.000 A 
ATOM     19  C   UNL     1     114.110 125.471 137.884  0.00  0.00    +0.000 A 
ATOM     20  C   UNL     1     114.222 124.837 137.368  0.00  0.00    +0.000 A 
ENDBRANCH   5  15
BRANCH   4  21
ATOM     21  O   UNL     1     112.066 126.641 136.853  0.00  0.00    +0.000 OA
BRANCH  21  27
ATOM     22  O   UNL     1     111.218 126.381 135.733  0.00  0.00    +0.000 OA
ATOM     23  O   UNL     1     110.738 126.864 137.806  0.00  0.00    +0.000 OA
ATOM     24  O   UNL     1     109.226 126.715 137.163  0.00  0.00    +0.000 OA
ATOM     25  O   UNL     1     109.042 126.343 135.566  0.00  0.00    +0.000 OA
ATOM     26  C   UNL     1     110.646 126.678 137.007  0.00  0.00    +0.000 C 
ATOM     27  C   UNL     1     111.310 126.566 136.530  0.00  0.00    +0.000 C 
ATOM     28  C   UNL     1     109.890 126.603 136.686  0.00  0.00    +0.000 C 
ATOM     29  C   UNL     1     109.798 126.418 135.888  0.00  0.00    +0.000 C 
ATOM     30  C   UNL     1     110.462 126.306 135.411  0.00  0.00    +0.000 C 
ATOM     31  C   UNL     1     110.370 126.120 134.612  0.00  0.00    +0.000 C 
ENDBRANCH  21  27
ENDBRANCH   4  21
TORSDOF 3
ENDMDL
MODEL 4
REMARK VINA RESULT:      -9.3     10.618     11.643
REMARK  Name = 44257078
REMARK  3 active torsions:
REMARK  status: ('A' for Active; 'I' for Inactive)
REMARK    1  A    between atoms: O_1  and  C_12
REMARK    2  A    between atoms: O_1  and  C_15
REMARK    3  A    between atoms: C_17  and  C_21
REMARK                            x       y       z     vdW  Elec       q    Type
REMARK                         _______ _______ _______ _____ _____    ______ ____
ROOT
ATOM      1  O   UNL     1     113.172 126.073 138.893  0.00  0.00    +0.000 OA
ATOM      2  O   UNL     1     113.264 128.946 139.182  0.00  0.00    +0.000 OA
ATOM      3  O   UNL     1     114.393 127.240 141.266  0.00  0.00    +0.000 OA
ATOM      4  C   UNL     1     112.621 126.912 137.876  0.00  0.00    +0.000 C 
ATOM      5  C   UNL     1     112.790 126.159 138.167  0.00  0.00    +0.000 C 
ATOM      6  C   UNL     1     112.836 127.580 138.311  0.00  0.00    +0.000 C 
ATOM      7  C   UNL     1     113.218 127.494 139.037  0.00  0.00    +0.000 A 
ATOM      8  C   UNL     1     113.386 126.740 139.328  0.00  0.00    +0.000 A 
ATOM      9  C   UNL     1     113.436 128.196 139.481  0.00  0.00    +0.000 A 
ATOM     10  C   UNL     1     113.784 126.637 140.082  0.00  0.00    +0.000 A 
ATOM     11  C   UNL     1     113.835 128.113 140.237  0.00  0.00    +0.000 A 
ATOM     12  C   UNL     1     114.010 127.329 140.540  0.00  0.00    +0.000 A 
ENDROOT
BRANCH   5  15
ATOM     13  O   UNL     1     113.483 124.049 136.369  0.00  0.00    +0.000 OA
ATOM     14  O   UNL     1     111.932 123.489 136.427  0.00  0.00    +0.000 OA
ATOM     15  C   UNL     1     112.575 125.491 137.732  0.00  0.00    +0.000 A 
ATOM     16  C   UNL     1     113.136 125.103 137.268  0.00  0.00    +0.000 A 
ATOM     17  C   UNL     1     111.800 125.212 137.762  0.00  0.00    +0.000 A 
ATOM     18  C   UNL     1     112.922 124.436 136.833  0.00  0.00    +0.000 A 
ATOM     19  C   UNL     1     111.585 124.544 137.326  0.00  0.00    +0.000 A 
ATOM     20  C   UNL     1     112.146 124.156 136.862  0.00  0.00    +0.000 A 
ENDBRANCH   5  15
BRANCH   4  21
ATOM     21  O   UNL     1     112.239 126.998 137.150  0.00  0.00    +0.000 OA
BRANCH  21  27
ATOM     22  O   UNL     1     113.224 127.724 136.413  0.00  0.00    +0.000 OA
ATOM     23  O   UNL     1     111.075 128.040 136.620  0.00  0.00    +0.000 OA
ATOM     24  O   UNL     1     111.478 129.287 135.618  0.00  0.00    +0.000 OA
ATOM     25  O   UNL     1     113.046 129.492 135.146  0.00  0.00    +0.000 OA
ATOM     26  C   UNL     1     111.859 128.142 136.384  0.00  0.00    +0.000 C 
ATOM     27  C   UNL     1     112.441 127.621 136.649  0.00  0.00    +0.000 C 
ATOM     28  C   UNL     1     112.060 128.766 135.883  0.00  0.00    +0.000 C 
ATOM     29  C   UNL     1     112.844 128.868 135.647  0.00  0.00    +0.000 C 
ATOM     30  C   UNL     1     113.426 128.347 135.913  0.00  0.00    +0.000 C 
ATOM     31  C   UNL     1     114.210 128.451 135.677  0.00  0.00    +0.000 C 
ENDBRANCH  21  27
ENDBRANCH   4  21
TORSDOF 3
ENDMDL
MODEL 5
REMARK VINA RESULT:      -9.3     10.195     12.280
REMARK  Name = 44257078
REMARK  3 active torsions:
REMARK  status: ('A' for Active; 'I' for Inactive)
REMARK    1  A    between atoms: O_1  and  C_12
REMARK    2  A    between atoms: O_1  and  C_15
REMARK    3  A    between atoms: C_17  and  C_21
REMARK                            x       y       z     vdW  Elec       q    Type
REMARK                         _______ _______ _______ _____ _____    ______ ____
ROOT
ATOM      1  O   UNL     1     111.689 128.898 135.609  0.00  0.00    +0.000 OA
ATOM      2  O   UNL     1     113.867 127.315 136.657  0.00  0.00    +0.000 OA
ATOM      3  O   UNL     1     114.420 129.493 134.791  0.00  0.00    +0.000 OA
ATOM      4  C   UNL     1     111.423 127.831 136.522  0.00  0.00    +0.000 C 
ATOM      5  C   UNL     1     111.153 128.448 136.045  0.00  0.00    +0.000 C 
ATOM      6  C   UNL     1     112.231 127.665 136.563  0.00  0.00    +0.000 C 
ATOM      7  C   UNL     1     112.767 128.116 136.127  0.00  0.00    +0.000 A 
ATOM      8  C   UNL     1     112.496 128.732 135.650  0.00  0.00    +0.000 A 
ATOM      9  C   UNL     1     113.605 127.933 136.177  0.00  0.00    +0.000 A 
ATOM     10  C   UNL     1     113.044 129.208 135.191  0.00  0.00    +0.000 A 
ATOM     11  C   UNL     1     114.168 128.399 135.725  0.00  0.00    +0.000 A 
ATOM     12  C   UNL     1     113.886 129.041 135.229  0.00  0.00    +0.000 A 
ENDROOT
BRANCH   5  15
ATOM     13  O   UNL     1     108.832 129.728 137.114  0.00  0.00    +0.000 OA
ATOM     14  O   UNL     1     107.924 129.110 135.883  0.00  0.00    +0.000 OA
ATOM     15  C   UNL     1     110.345 128.613 136.005  0.00  0.00    +0.000 A 
ATOM     16  C   UNL     1     109.992 129.088 136.580  0.00  0.00    +0.000 A 
ATOM     17  C   UNL     1     109.892 128.304 135.389  0.00  0.00    +0.000 A 
ATOM     18  C   UNL     1     109.185 129.254 136.539  0.00  0.00    +0.000 A 
ATOM     19  C   UNL     1     109.084 128.470 135.349  0.00  0.00    +0.000 A 
ATOM     20  C   UNL     1     108.731 128.945 135.923  0.00  0.00    +0.000 A 
ENDBRANCH   5  15
BRANCH   4  21
ATOM     21  O   UNL     1     110.887 127.381 136.958  0.00  0.00    +0.000 OA
BRANCH  21  27
ATOM     22  O   UNL     1     111.132 126.070 136.444  0.00  0.00    +0.000 OA
ATOM     23  O   UNL     1     110.972 126.793 138.498  0.00  0.00    +0.000 OA
ATOM     24  O   UNL     1     111.260 125.188 138.753  0.00  0.00    +0.000 OA
ATOM     25  O   UNL     1     111.462 124.172 137.469  0.00  0.00    +0.000 OA
ATOM     26  C   UNL     1     111.073 126.284 137.855  0.00  0.00    +0.000 C 
ATOM     27  C   UNL     1     111.031 126.578 137.086  0.00  0.00    +0.000 C 
ATOM     28  C   UNL     1     111.217 125.482 137.984  0.00  0.00    +0.000 C 
ATOM     29  C   UNL     1     111.318 124.974 137.341  0.00  0.00    +0.000 C 
ATOM     30  C   UNL     1     111.275 125.269 136.572  0.00  0.00    +0.000 C 
ATOM     31  C   UNL     1     111.376 124.760 135.930  0.00  0.00    +0.000 C 
ENDBRANCH  21  27
ENDBRANCH   4  21
TORSDOF 3
ENDMDL
MODEL 6
REMARK VINA RESULT:      -9.3      9.277     11.964
REMARK  Name = 44257078
REMARK  3 active torsions:
REMARK  status: ('A' for Active; 'I' for Inactive)
REMARK    1  A    between atoms: O_1  and  C_12
REMARK    2  A    between atoms: O_1  and  C_15
REMARK    3  A    between atoms: C_17  and  C_21
REMARK                            x       y       z     vdW  Elec       q    Type
REMARK                         _______ _______ _______ _____ _____    ______ ____
ROOT
ATOM      1  O   UNL     1     113.420 127.246 136.528  0.00  0.00    +0.000 OA
ATOM      2  O   UNL     1     112.941 129.479 138.297  0.00  0.00    +0.000 OA
ATOM      3  O   UNL     1     114.001 129.951 135.617  0.00  0.00    +0.000 OA
ATOM      4  C   UNL     1     112.902 127.020 137.840  0.00  0.00    +0.000 C 
ATOM      5  C   UNL     1     113.153 126.727 137.112  0.00  0.00    +0.000 C 
ATOM      6  C   UNL     1     112.917 127.833 137.986  0.00  0.00    +0.000 C 
ATOM      7  C   UNL     1     113.183 128.351 137.402  0.00  0.00    +0.000 A 
ATOM      8  C   UNL     1     113.435 128.057 136.673  0.00  0.00    +0.000 A 
ATOM      9  C   UNL     1     113.194 129.194 137.565  0.00  0.00    +0.000 A 
ATOM     10  C   UNL     1     113.715 128.587 136.058  0.00  0.00    +0.000 A 
ATOM     11  C   UNL     1     113.471 129.740 136.962  0.00  0.00    +0.000 A 
ATOM     12  C   UNL     1     113.733 129.434 136.203  0.00  0.00    +0.000 A 
ENDROOT
BRANCH   5  15
ATOM     13  O   UNL     1     111.745 124.391 136.261  0.00  0.00    +0.000 OA
ATOM     14  O   UNL     1     113.094 123.479 136.531  0.00  0.00    +0.000 OA
ATOM     15  C   UNL     1     113.138 125.915 136.966  0.00  0.00    +0.000 A 
ATOM     16  C   UNL     1     112.449 125.558 136.686  0.00  0.00    +0.000 A 
ATOM     17  C   UNL     1     113.813 125.460 137.102  0.00  0.00    +0.000 A 
ATOM     18  C   UNL     1     112.434 124.747 136.541  0.00  0.00    +0.000 A 
ATOM     19  C   UNL     1     113.798 124.647 136.956  0.00  0.00    +0.000 A 
ATOM     20  C   UNL     1     113.109 124.291 136.676  0.00  0.00    +0.000 A 
ENDBRANCH   5  15
BRANCH   4  21
ATOM     21  O   UNL     1     112.635 126.501 138.424  0.00  0.00    +0.000 OA
BRANCH  21  27
ATOM     22  O   UNL     1     113.540 126.809 139.486  0.00  0.00    +0.000 OA
ATOM     23  O   UNL     1     111.371 126.565 139.483  0.00  0.00    +0.000 OA
ATOM     24  O   UNL     1     111.644 126.903 141.074  0.00  0.00    +0.000 OA
ATOM     25  O   UNL     1     113.181 127.179 141.607  0.00  0.00    +0.000 OA
ATOM     26  C   UNL     1     112.140 126.703 139.749  0.00  0.00    +0.000 C 
ATOM     27  C   UNL     1     112.772 126.671 139.220  0.00  0.00    +0.000 C 
ATOM     28  C   UNL     1     112.276 126.872 140.545  0.00  0.00    +0.000 C 
ATOM     29  C   UNL     1     113.044 127.009 140.811  0.00  0.00    +0.000 C 
ATOM     30  C   UNL     1     113.676 126.978 140.281  0.00  0.00    +0.000 C 
ATOM     31  C   UNL     1     114.445 127.116 140.549  0.00  0.00    +0.000 C 
ENDBRANCH  21  27
ENDBRANCH   4  21
TORSDOF 3
ENDMDL
MODEL 7
REMARK VINA RESULT:      -9.3     10.498     12.078
REMARK  Name = 44257078
REMARK  3 active torsions:
REMARK  status: ('A' for Active; 'I' for Inactive)
REMARK    1  A    between atoms: O_1  and  C_12
REMARK    2  A    between atoms: O_1  and  C_15
REMARK    3  A    between atoms: C_17  and  C_21
REMARK                            x       y       z     vdW  Elec       q    Type
REMARK                         _______ _______ _______ _____ _____    ______ ____
ROOT
ATOM      1  O   UNL     1     111.616 125.467 136.545  0.00  0.00    +0.000 OA
ATOM      2  O   UNL     1     114.421 126.159 136.522  0.00  0.00    +0.000 OA
ATOM      3  O   UNL     1     113.602 123.432 137.172  0.00  0.00    +0.000 OA
ATOM      4  C   UNL     1     112.022 126.800 136.228  0.00  0.00    +0.000 C 
ATOM      5  C   UNL     1     111.424 126.242 136.337  0.00  0.00    +0.000 C 
ATOM      6  C   UNL     1     112.812 126.583 136.326  0.00  0.00    +0.000 C 
ATOM      7  C   UNL     1     113.004 125.808 136.534  0.00  0.00    +0.000 A 
ATOM      8  C   UNL     1     112.405 125.250 136.644  0.00  0.00    +0.000 A 
ATOM      9  C   UNL     1     113.829 125.594 136.634  0.00  0.00    +0.000 A 
ATOM     10  C   UNL     1     112.592 124.440 136.860  0.00  0.00    +0.000 A 
ATOM     11  C   UNL     1     114.036 124.789 136.850  0.00  0.00    +0.000 A 
ATOM     12  C   UNL     1     113.413 124.207 136.964  0.00  0.00    +0.000 A 
ENDROOT
BRANCH   5  15
ATOM     13  O   UNL     1     108.923 127.055 137.455  0.00  0.00    +0.000 OA
ATOM     14  O   UNL     1     108.265 127.112 135.942  0.00  0.00    +0.000 OA
ATOM     15  C   UNL     1     110.634 126.460 136.239  0.00  0.00    +0.000 A 
ATOM     16  C   UNL     1     110.173 126.649 136.896  0.00  0.00    +0.000 A 
ATOM     17  C   UNL     1     110.306 126.488 135.482  0.00  0.00    +0.000 A 
ATOM     18  C   UNL     1     109.384 126.866 136.797  0.00  0.00    +0.000 A 
ATOM     19  C   UNL     1     109.515 126.705 135.384  0.00  0.00    +0.000 A 
ATOM     20  C   UNL     1     109.054 126.894 136.041  0.00  0.00    +0.000 A 
ENDBRANCH   5  15
BRANCH   4  21
ATOM     21  O   UNL     1     111.830 127.575 136.020  0.00  0.00    +0.000 OA
BRANCH  21  27
ATOM     22  O   UNL     1     112.376 128.299 137.124  0.00  0.00    +0.000 OA
ATOM     23  O   UNL     1     112.533 128.640 134.974  0.00  0.00    +0.000 OA
ATOM     24  O   UNL     1     113.432 129.896 135.555  0.00  0.00    +0.000 OA
ATOM     25  O   UNL     1     113.627 130.087 137.183  0.00  0.00    +0.000 OA
ATOM     26  C   UNL     1     112.631 128.736 135.788  0.00  0.00    +0.000 C 
ATOM     27  C   UNL     1     112.279 128.203 136.311  0.00  0.00    +0.000 C 
ATOM     28  C   UNL     1     113.080 129.364 136.078  0.00  0.00    +0.000 C 
ATOM     29  C   UNL     1     113.177 129.459 136.892  0.00  0.00    +0.000 C 
ATOM     30  C   UNL     1     112.825 128.926 137.415  0.00  0.00    +0.000 C 
ATOM     31  C   UNL     1     112.923 129.023 138.229  0.00  0.00    +0.000 C 
ENDBRANCH  21  27
ENDBRANCH   4  21
TORSDOF 3
ENDMDL
MODEL 8
REMARK VINA RESULT:      -9.2      1.154      3.370
REMARK  Name = 44257078
REMARK  3 active torsions:
REMARK  status: ('A' for Active; 'I' for Inactive)
REMARK    1  A    between atoms: O_1  and  C_12
REMARK    2  A    between atoms: O_1  and  C_15
REMARK    3  A    between atoms: C_17  and  C_21
REMARK                            x       y       z     vdW  Elec       q    Type
REMARK                         _______ _______ _______ _____ _____    ______ ____
ROOT
ATOM      1  O   UNL     1     106.793 125.184 146.921  0.00  0.00    +0.000 OA
ATOM      2  O   UNL     1     105.606 124.218 149.372  0.00  0.00    +0.000 OA
ATOM      3  O   UNL     1     108.495 124.615 149.215  0.00  0.00    +0.000 OA
ATOM      4  C   UNL     1     105.379 124.988 147.003  0.00  0.00    +0.000 C 
ATOM      5  C   UNL     1     106.046 125.212 146.572  0.00  0.00    +0.000 C 
ATOM      6  C   UNL     1     105.460 124.735 147.785  0.00  0.00    +0.000 C 
ATOM      7  C   UNL     1     106.207 124.706 148.134  0.00  0.00    +0.000 A 
ATOM      8  C   UNL     1     106.873 124.931 147.702  0.00  0.00    +0.000 A 
ATOM      9  C   UNL     1     106.278 124.441 148.948  0.00  0.00    +0.000 A 
ATOM     10  C   UNL     1     107.656 124.905 148.055  0.00  0.00    +0.000 A 
ATOM     11  C   UNL     1     107.053 124.409 149.318  0.00  0.00    +0.000 A 
ATOM     12  C   UNL     1     107.747 124.643 148.868  0.00  0.00    +0.000 A 
ENDROOT
BRANCH   5  15
ATOM     13  O   UNL     1     105.894 124.618 143.781  0.00  0.00    +0.000 OA
ATOM     14  O   UNL     1     105.723 126.225 143.448  0.00  0.00    +0.000 OA
ATOM     15  C   UNL     1     105.965 125.465 145.790  0.00  0.00    +0.000 A 
ATOM     16  C   UNL     1     105.970 124.915 145.176  0.00  0.00    +0.000 A 
ATOM     17  C   UNL     1     105.880 126.269 145.624  0.00  0.00    +0.000 A 
ATOM     18  C   UNL     1     105.889 125.168 144.395  0.00  0.00    +0.000 A 
ATOM     19  C   UNL     1     105.799 126.522 144.843  0.00  0.00    +0.000 A 
ATOM     20  C   UNL     1     105.804 125.972 144.228  0.00  0.00    +0.000 A 
ENDBRANCH   5  15
BRANCH   4  21
ATOM     21  O   UNL     1     104.633 125.017 146.654  0.00  0.00    +0.000 OA
BRANCH  21  27
ATOM     22  O   UNL     1     103.946 125.899 147.543  0.00  0.00    +0.000 OA
ATOM     23  O   UNL     1     103.356 123.972 146.704  0.00  0.00    +0.000 OA
ATOM     24  O   UNL     1     102.031 124.332 147.619  0.00  0.00    +0.000 OA
ATOM     25  O   UNL     1     101.982 125.737 148.483  0.00  0.00    +0.000 OA
ATOM     26  C   UNL     1     103.332 124.675 147.137  0.00  0.00    +0.000 C 
ATOM     27  C   UNL     1     103.970 125.197 147.111  0.00  0.00    +0.000 C 
ATOM     28  C   UNL     1     102.669 124.855 147.594  0.00  0.00    +0.000 C 
ATOM     29  C   UNL     1     102.646 125.557 148.026  0.00  0.00    +0.000 C 
ATOM     30  C   UNL     1     103.284 126.079 148.000  0.00  0.00    +0.000 C 
ATOM     31  C   UNL     1     103.259 126.782 148.433  0.00  0.00    +0.000 C 
ENDBRANCH  21  27
ENDBRANCH   4  21
TORSDOF 3
ENDMDL
MODEL 9
REMARK VINA RESULT:      -9.2      8.893     10.970
REMARK  Name = 44257078
REMARK  3 active torsions:
REMARK  status: ('A' for Active; 'I' for Inactive)
REMARK    1  A    between atoms: O_1  and  C_12
REMARK    2  A    between atoms: O_1  and  C_15
REMARK    3  A    between atoms: C_17  and  C_21
REMARK                            x       y       z     vdW  Elec       q    Type
REMARK                         _______ _______ _______ _____ _____    ______ ____
ROOT
ATOM      1  O   UNL     1     113.839 126.245 138.649  0.00  0.00    +0.000 OA
ATOM      2  O   UNL     1     112.209 124.511 137.012  0.00  0.00    +0.000 OA
ATOM      3  O   UNL     1     115.109 124.536 136.662  0.00  0.00    +0.000 OA
ATOM      4  C   UNL     1     112.420 126.230 138.817  0.00  0.00    +0.000 C 
ATOM      5  C   UNL     1     113.162 126.521 139.031  0.00  0.00    +0.000 C 
ATOM      6  C   UNL     1     112.357 125.662 138.220  0.00  0.00    +0.000 C 
ATOM      7  C   UNL     1     113.034 125.387 137.839  0.00  0.00    +0.000 A 
ATOM      8  C   UNL     1     113.776 125.679 138.054  0.00  0.00    +0.000 A 
ATOM      9  C   UNL     1     112.955 124.797 137.220  0.00  0.00    +0.000 A 
ATOM     10  C   UNL     1     114.489 125.400 137.664  0.00  0.00    +0.000 A 
ATOM     11  C   UNL     1     113.657 124.506 136.819  0.00  0.00    +0.000 A 
ATOM     12  C   UNL     1     114.429 124.810 137.042  0.00  0.00    +0.000 A 
ENDROOT
BRANCH   5  15
ATOM     13  O   UNL     1     113.412 129.252 139.833  0.00  0.00    +0.000 OA
ATOM     14  O   UNL     1     113.415 128.787 141.416  0.00  0.00    +0.000 OA
ATOM     15  C   UNL     1     113.225 127.088 139.627  0.00  0.00    +0.000 A 
ATOM     16  C   UNL     1     113.287 127.887 139.432  0.00  0.00    +0.000 A 
ATOM     17  C   UNL     1     113.226 126.855 140.419  0.00  0.00    +0.000 A 
ATOM     18  C   UNL     1     113.350 128.453 140.028  0.00  0.00    +0.000 A 
ATOM     19  C   UNL     1     113.290 127.422 141.015  0.00  0.00    +0.000 A 
ATOM     20  C   UNL     1     113.352 128.221 140.820  0.00  0.00    +0.000 A 
ENDBRANCH   5  15
BRANCH   4  21
ATOM     21  O   UNL     1     111.742 126.505 139.198  0.00  0.00    +0.000 OA
BRANCH  21  27
ATOM     22  O   UNL     1     111.039 127.079 138.094  0.00  0.00    +0.000 OA
ATOM     23  O   UNL     1     110.352 125.775 139.704  0.00  0.00    +0.000 OA
ATOM     24  O   UNL     1     108.954 125.983 138.852  0.00  0.00    +0.000 OA
ATOM     25  O   UNL     1     108.946 126.922 137.496  0.00  0.00    +0.000 OA
ATOM     26  C   UNL     1     110.348 126.244 139.025  0.00  0.00    +0.000 C 
ATOM     27  C   UNL     1     111.043 126.610 138.772  0.00  0.00    +0.000 C 
ATOM     28  C   UNL     1     109.649 126.348 138.600  0.00  0.00    +0.000 C 
ATOM     29  C   UNL     1     109.646 126.818 137.921  0.00  0.00    +0.000 C 
ATOM     30  C   UNL     1     110.341 127.183 137.669  0.00  0.00    +0.000 C 
ATOM     31  C   UNL     1     110.337 127.652 136.990  0.00  0.00    +0.000 C 
ENDBRANCH  21  27
ENDBRANCH   4  21
TORSDOF 3
ENDMDL
MODEL 10
REMARK VINA RESULT:      -9.2      9.767     12.153
REMARK  Name = 44257078
REMARK  3 active torsions:
REMARK  status: ('A' for Active; 'I' for Inactive)
REMARK    1  A    between atoms: O_1  and  C_12
REMARK    2  A    between atoms: O_1  and  C_15
REMARK    3  A    between atoms: C_17  and  C_21
REMARK                            x       y       z     vdW  Elec       q    Type
REMARK                         _______ _______ _______ _____ _____    ______ ____
ROOT
ATOM      1  O   UNL     1     113.063 128.395 138.265  0.00  0.00    +0.000 OA
ATOM      2  O   UNL     1     112.323 126.115 139.879  0.00  0.00    +0.000 OA
ATOM      3  O   UNL     1     113.220 128.578 141.167  0.00  0.00    +0.000 OA
ATOM      4  C   UNL     1     112.624 127.187 137.639  0.00  0.00    +0.000 C 
ATOM      5  C   UNL     1     112.892 127.965 137.582  0.00  0.00    +0.000 C 
ATOM      6  C   UNL     1     112.527 126.839 138.381  0.00  0.00    +0.000 C 
ATOM      7  C   UNL     1     112.698 127.268 139.065  0.00  0.00    +0.000 A 
ATOM      8  C   UNL     1     112.966 128.046 139.006  0.00  0.00    +0.000 A 
ATOM      9  C   UNL     1     112.592 126.894 139.830  0.00  0.00    +0.000 A 
ATOM     10  C   UNL     1     113.148 128.503 139.710  0.00  0.00    +0.000 A 
ATOM     11  C   UNL     1     112.769 127.336 140.546  0.00  0.00    +0.000 A 
ATOM     12  C   UNL     1     113.048 128.146 140.486  0.00  0.00    +0.000 A 
ENDROOT
BRANCH   5  15
ATOM     13  O   UNL     1     114.579 128.703 135.396  0.00  0.00    +0.000 OA
ATOM     14  O   UNL     1     113.281 129.359 134.616  0.00  0.00    +0.000 OA
ATOM     15  C   UNL     1     112.990 128.314 136.840  0.00  0.00    +0.000 A 
ATOM     16  C   UNL     1     113.736 128.334 136.488  0.00  0.00    +0.000 A 
ATOM     17  C   UNL     1     112.341 128.642 136.450  0.00  0.00    +0.000 A 
ATOM     18  C   UNL     1     113.833 128.683 135.747  0.00  0.00    +0.000 A 
ATOM     19  C   UNL     1     112.438 128.991 135.708  0.00  0.00    +0.000 A 
ATOM     20  C   UNL     1     113.184 129.011 135.357  0.00  0.00    +0.000 A 
ENDBRANCH   5  15
BRANCH   4  21
ATOM     21  O   UNL     1     112.453 126.758 136.956  0.00  0.00    +0.000 OA
BRANCH  21  27
ATOM     22  O   UNL     1     113.373 125.672 137.084  0.00  0.00    +0.000 OA
ATOM     23  O   UNL     1     111.249 125.694 136.581  0.00  0.00    +0.000 OA
ATOM     24  O   UNL     1     111.567 124.075 136.523  0.00  0.00    +0.000 OA
ATOM     25  O   UNL     1     113.089 123.522 136.839  0.00  0.00    +0.000 OA
ATOM     26  C   UNL     1     112.011 125.417 136.740  0.00  0.00    +0.000 C 
ATOM     27  C   UNL     1     112.613 125.949 136.927  0.00  0.00    +0.000 C 
ATOM     28  C   UNL     1     112.169 124.608 136.710  0.00  0.00    +0.000 C 
ATOM     29  C   UNL     1     112.930 124.332 136.868  0.00  0.00    +0.000 C 
ATOM     30  C   UNL     1     113.532 124.864 137.055  0.00  0.00    +0.000 C 
ATOM     31  C   UNL     1     114.293 124.586 137.213  0.00  0.00    +0.000 C 
ENDBRANCH  21  27
ENDBRANCH   4  21
TORSDOF 3
ENDMDL
