MODEL 1
REMARK VINA RESULT:     -11.5      0.000      0.000
REMARK  Name = 131833356
REMARK  10 active torsions:
REMARK  status: ('A' for Active; 'I' for Inactive)
REMARK    1  A    between atoms: O_3  and  C_36
REMARK    2  A    between atoms: O_3  and  C_43
REMARK    3  A    between atoms: O_4  and  C_40
REMARK    4  A    between atoms: O_4  and  C_50
REMARK    5  A    between atoms: C_27  and  C_30
REMARK    6  A    between atoms: C_28  and  C_32
REMARK    7  A    between atoms: C_37  and  C_46
REMARK    8  A    between atoms: C_39  and  C_48
REMARK    9  A    between atoms: C_55  and  C_59
REMARK   10  A    between atoms: C_57  and  C_60
REMARK                            x       y       z     vdW  Elec       q    Type
REMARK                         _______ _______ _______ _____ _____    ______ ____
ROOT
ATOM      1  O   UNL     1     112.330 127.480 137.553  0.00  0.00    +0.000 OA
ATOM      2  O   UNL     1     111.124 126.594 139.556  0.00  0.00    +0.000 OA
ATOM      3  C   UNL     1     110.821 129.152 138.658  0.00  0.00    +0.000 A 
ATOM      4  C   UNL     1     111.751 128.810 137.629  0.00  0.00    +0.000 A 
ATOM      5  C   UNL     1     111.256 129.362 137.990  0.00  0.00    +0.000 A 
ATOM      6  C   UNL     1     110.880 128.389 138.966  0.00  0.00    +0.000 A 
ATOM      7  C   UNL     1     111.811 128.047 137.937  0.00  0.00    +0.000 A 
ATOM      8  C   UNL     1     111.376 127.836 138.605  0.00  0.00    +0.000 A 
ATOM      9  C   UNL     1     111.429 127.044 138.935  0.00  0.00    +0.000 A 
ATOM     10  C   UNL     1     112.397 126.683 137.868  0.00  0.00    +0.000 A 
ATOM     11  C   UNL     1     111.943 126.465 138.564  0.00  0.00    +0.000 A 
ENDROOT
BRANCH   3  16
ATOM     12  O   UNL     1     110.641 130.267 139.535  0.00  0.00    +0.000 OA
ATOM     13  O   UNL     1     109.201 129.134 138.348  0.00  0.00    +0.000 OA
ATOM     14  O   UNL     1     108.210 130.239 139.067  0.00  0.00    +0.000 OA
ATOM     15  O   UNL     1     108.840 131.363 140.099  0.00  0.00    +0.000 OA
ATOM     16  C   UNL     1     110.325 129.705 139.019  0.00  0.00    +0.000 C 
ATOM     17  C   UNL     1     109.516 129.696 138.863  0.00  0.00    +0.000 C 
ATOM     18  C   UNL     1     109.021 130.249 139.223  0.00  0.00    +0.000 C 
ATOM     19  C   UNL     1     109.335 130.810 139.739  0.00  0.00    +0.000 C 
ATOM     20  C   UNL     1     110.146 130.820 139.895  0.00  0.00    +0.000 C 
BRANCH  20  22
ATOM     21  O   UNL     1     111.250 131.333 140.641  0.00  0.00    +0.000 OA
ATOM     22  C   UNL     1     110.460 131.382 140.410  0.00  0.00    +0.000 C 
ENDBRANCH  20  22
ENDBRANCH   3  16
BRANCH   4  27
ATOM     23  O   UNL     1     111.872 128.900 136.208  0.00  0.00    +0.000 OA
ATOM     24  O   UNL     1     113.254 129.472 137.799  0.00  0.00    +0.000 OA
ATOM     25  O   UNL     1     114.125 129.893 136.463  0.00  0.00    +0.000 OA
ATOM     26  O   UNL     1     113.495 129.653 134.957  0.00  0.00    +0.000 OA
ATOM     27  C   UNL     1     112.187 129.020 136.961  0.00  0.00    +0.000 C 
ATOM     28  C   UNL     1     112.939 129.352 137.046  0.00  0.00    +0.000 C 
ATOM     29  C   UNL     1     113.374 129.562 136.378  0.00  0.00    +0.000 C 
ATOM     30  C   UNL     1     113.059 129.442 135.625  0.00  0.00    +0.000 C 
ATOM     31  C   UNL     1     112.308 129.111 135.541  0.00  0.00    +0.000 C 
BRANCH  31  33
ATOM     32  O   UNL     1     111.475 128.364 134.651  0.00  0.00    +0.000 OA
ATOM     33  C   UNL     1     111.993 128.991 134.787  0.00  0.00    +0.000 C 
ENDBRANCH  31  33
ENDBRANCH   4  27
BRANCH  10  36
ATOM     34  O   UNL     1     114.909 125.329 137.731  0.00  0.00    +0.000 OA
ATOM     35  O   UNL     1     114.380 124.481 136.418  0.00  0.00    +0.000 OA
ATOM     36  C   UNL     1     112.893 126.133 137.506  0.00  0.00    +0.000 A 
ATOM     37  C   UNL     1     113.653 126.006 137.800  0.00  0.00    +0.000 A 
ATOM     38  C   UNL     1     112.628 125.709 136.850  0.00  0.00    +0.000 A 
ATOM     39  C   UNL     1     114.149 125.455 137.437  0.00  0.00    +0.000 A 
ATOM     40  C   UNL     1     113.124 125.158 136.487  0.00  0.00    +0.000 A 
ATOM     41  C   UNL     1     113.884 125.032 136.781  0.00  0.00    +0.000 A 
ENDBRANCH  10  36
BRANCH   5  42
ATOM     42  O   UNL     1     111.197 130.125 137.682  0.00  0.00    +0.000 OA
BRANCH  42  47
ATOM     43  O   UNL     1     110.286 130.658 136.718  0.00  0.00    +0.000 OA
ATOM     44  O   UNL     1     111.911 131.606 137.826  0.00  0.00    +0.000 OA
ATOM     45  O   UNL     1     111.357 132.879 136.935  0.00  0.00    +0.000 OA
ATOM     46  O   UNL     1     110.090 132.672 135.899  0.00  0.00    +0.000 OA
ATOM     47  C   UNL     1     110.920 130.763 137.236  0.00  0.00    +0.000 C 
ATOM     48  C   UNL     1     111.277 131.503 137.308  0.00  0.00    +0.000 C 
ATOM     49  C   UNL     1     111.000 132.139 136.863  0.00  0.00    +0.000 C 
ATOM     50  C   UNL     1     110.367 132.036 136.344  0.00  0.00    +0.000 C 
ATOM     51  C   UNL     1     110.010 131.296 136.272  0.00  0.00    +0.000 C 
ATOM     52  C   UNL     1     109.376 131.191 135.755  0.00  0.00    +0.000 C 
ENDBRANCH  42  47
ENDBRANCH   5  42
BRANCH   6  53
ATOM     53  O   UNL     1     110.445 128.179 139.634  0.00  0.00    +0.000 OA
BRANCH  53  58
ATOM     54  O   UNL     1     111.260 128.266 140.805  0.00  0.00    +0.000 OA
ATOM     55  O   UNL     1     109.237 127.494 140.525  0.00  0.00    +0.000 OA
ATOM     56  O   UNL     1     109.447 127.239 142.142  0.00  0.00    +0.000 OA
ATOM     57  O   UNL     1     110.866 127.668 142.867  0.00  0.00    +0.000 OA
ATOM     58  C   UNL     1     110.550 128.051 140.443  0.00  0.00    +0.000 C 
ATOM     59  C   UNL     1     109.946 127.709 140.888  0.00  0.00    +0.000 C 
ATOM     60  C   UNL     1     110.052 127.581 141.697  0.00  0.00    +0.000 C 
ATOM     61  C   UNL     1     110.761 127.796 142.059  0.00  0.00    +0.000 C 
ATOM     62  C   UNL     1     111.365 128.138 141.613  0.00  0.00    +0.000 C 
BRANCH  62  65
ATOM     63  O   UNL     1     112.738 127.868 141.904  0.00  0.00    +0.000 OA
ATOM     64  O   UNL     1     112.120 129.053 142.411  0.00  0.00    +0.000 OA
ATOM     65  C   UNL     1     112.074 128.353 141.975  0.00  0.00    +0.000 C 
ENDBRANCH  62  65
ENDBRANCH  53  58
ENDBRANCH   6  53
TORSDOF 10
ENDMDL
MODEL 2
REMARK VINA RESULT:     -11.3      1.225      2.170
REMARK  Name = 131833356
REMARK  10 active torsions:
REMARK  status: ('A' for Active; 'I' for Inactive)
REMARK    1  A    between atoms: O_3  and  C_36
REMARK    2  A    between atoms: O_3  and  C_43
REMARK    3  A    between atoms: O_4  and  C_40
REMARK    4  A    between atoms: O_4  and  C_50
REMARK    5  A    between atoms: C_27  and  C_30
REMARK    6  A    between atoms: C_28  and  C_32
REMARK    7  A    between atoms: C_37  and  C_46
REMARK    8  A    between atoms: C_39  and  C_48
REMARK    9  A    between atoms: C_55  and  C_59
REMARK   10  A    between atoms: C_57  and  C_60
REMARK                            x       y       z     vdW  Elec       q    Type
REMARK                         _______ _______ _______ _____ _____    ______ ____
ROOT
ATOM      1  O   UNL     1     112.362 127.462 137.717  0.00  0.00    +0.000 OA
ATOM      2  O   UNL     1     113.088 128.088 140.026  0.00  0.00    +0.000 OA
ATOM      3  C   UNL     1     110.996 129.292 138.756  0.00  0.00    +0.000 A 
ATOM      4  C   UNL     1     111.274 128.422 137.657  0.00  0.00    +0.000 A 
ATOM      5  C   UNL     1     110.823 129.024 137.995  0.00  0.00    +0.000 A 
ATOM      6  C   UNL     1     111.620 128.957 139.179  0.00  0.00    +0.000 A 
ATOM      7  C   UNL     1     111.898 128.088 138.080  0.00  0.00    +0.000 A 
ATOM      8  C   UNL     1     112.071 128.355 138.840  0.00  0.00    +0.000 A 
ATOM      9  C   UNL     1     112.719 128.015 139.291  0.00  0.00    +0.000 A 
ATOM     10  C   UNL     1     113.013 127.109 138.152  0.00  0.00    +0.000 A 
ATOM     11  C   UNL     1     113.193 127.388 138.945  0.00  0.00    +0.000 A 
ENDROOT
BRANCH   3  16
ATOM     12  O   UNL     1     109.811 129.720 139.432  0.00  0.00    +0.000 OA
ATOM     13  O   UNL     1     111.557 130.843 138.756  0.00  0.00    +0.000 OA
ATOM     14  O   UNL     1     110.655 132.048 139.431  0.00  0.00    +0.000 OA
ATOM     15  O   UNL     1     109.190 131.700 140.107  0.00  0.00    +0.000 OA
ATOM     16  C   UNL     1     110.544 129.894 139.094  0.00  0.00    +0.000 C 
ATOM     17  C   UNL     1     110.825 130.669 139.094  0.00  0.00    +0.000 C 
ATOM     18  C   UNL     1     110.373 131.271 139.432  0.00  0.00    +0.000 C 
ATOM     19  C   UNL     1     109.641 131.098 139.770  0.00  0.00    +0.000 C 
ATOM     20  C   UNL     1     109.360 130.322 139.770  0.00  0.00    +0.000 C 
BRANCH  20  22
ATOM     21  O   UNL     1     108.350 129.372 140.117  0.00  0.00    +0.000 OA
ATOM     22  C   UNL     1     108.627 130.149 140.108  0.00  0.00    +0.000 C 
ENDBRANCH  20  22
ENDBRANCH   3  16
BRANCH   4  27
ATOM     23  O   UNL     1     111.469 128.500 136.243  0.00  0.00    +0.000 OA
ATOM     24  O   UNL     1     110.191 127.196 137.440  0.00  0.00    +0.000 OA
ATOM     25  O   UNL     1     109.845 126.661 135.919  0.00  0.00    +0.000 OA
ATOM     26  O   UNL     1     110.581 127.352 134.613  0.00  0.00    +0.000 OA
ATOM     27  C   UNL     1     111.101 128.155 136.896  0.00  0.00    +0.000 C 
ATOM     28  C   UNL     1     110.559 127.542 136.788  0.00  0.00    +0.000 C 
ATOM     29  C   UNL     1     110.386 127.274 136.027  0.00  0.00    +0.000 C 
ATOM     30  C   UNL     1     110.754 127.620 135.374  0.00  0.00    +0.000 C 
ATOM     31  C   UNL     1     111.295 128.232 135.483  0.00  0.00    +0.000 C 
BRANCH  31  33
ATOM     32  O   UNL     1     112.429 128.877 134.897  0.00  0.00    +0.000 OA
ATOM     33  C   UNL     1     111.663 128.578 134.830  0.00  0.00    +0.000 C 
ENDBRANCH  31  33
ENDBRANCH   4  27
BRANCH  10  36
ATOM     34  O   UNL     1     114.821 126.213 136.128  0.00  0.00    +0.000 OA
ATOM     35  O   UNL     1     114.812 124.701 136.790  0.00  0.00    +0.000 OA
ATOM     36  C   UNL     1     113.463 126.507 137.812  0.00  0.00    +0.000 A 
ATOM     37  C   UNL     1     113.917 126.661 137.140  0.00  0.00    +0.000 A 
ATOM     38  C   UNL     1     113.459 125.751 138.143  0.00  0.00    +0.000 A 
ATOM     39  C   UNL     1     114.367 126.059 136.799  0.00  0.00    +0.000 A 
ATOM     40  C   UNL     1     113.909 125.150 137.802  0.00  0.00    +0.000 A 
ATOM     41  C   UNL     1     114.363 125.304 137.130  0.00  0.00    +0.000 A 
ENDBRANCH  10  36
BRANCH   5  42
ATOM     42  O   UNL     1     110.198 129.359 137.572  0.00  0.00    +0.000 OA
BRANCH  42  47
ATOM     43  O   UNL     1     110.180 130.496 136.707  0.00  0.00    +0.000 OA
ATOM     44  O   UNL     1     108.593 129.111 137.281  0.00  0.00    +0.000 OA
ATOM     45  O   UNL     1     107.772 130.125 136.270  0.00  0.00    +0.000 OA
ATOM     46  O   UNL     1     108.557 131.386 135.551  0.00  0.00    +0.000 OA
ATOM     47  C   UNL     1     109.788 129.866 137.067  0.00  0.00    +0.000 C 
ATOM     48  C   UNL     1     108.985 129.742 136.921  0.00  0.00    +0.000 C 
ATOM     49  C   UNL     1     108.575 130.248 136.416  0.00  0.00    +0.000 C 
ATOM     50  C   UNL     1     108.967 130.879 136.056  0.00  0.00    +0.000 C 
ATOM     51  C   UNL     1     109.769 131.003 136.201  0.00  0.00    +0.000 C 
ATOM     52  C   UNL     1     110.162 131.633 135.842  0.00  0.00    +0.000 C 
ENDBRANCH  42  47
ENDBRANCH   5  42
BRANCH   6  53
ATOM     53  O   UNL     1     111.792 129.225 139.940  0.00  0.00    +0.000 OA
BRANCH  53  58
ATOM     54  O   UNL     1     111.216 128.355 140.916  0.00  0.00    +0.000 OA
ATOM     55  O   UNL     1     112.592 130.035 141.135  0.00  0.00    +0.000 OA
ATOM     56  O   UNL     1     112.415 129.570 142.708  0.00  0.00    +0.000 OA
ATOM     57  O   UNL     1     111.439 128.294 143.086  0.00  0.00    +0.000 OA
ATOM     58  C   UNL     1     111.704 128.992 140.727  0.00  0.00    +0.000 C 
ATOM     59  C   UNL     1     112.104 129.397 141.324  0.00  0.00    +0.000 C 
ATOM     60  C   UNL     1     112.015 129.164 142.111  0.00  0.00    +0.000 C 
ATOM     61  C   UNL     1     111.527 128.527 142.300  0.00  0.00    +0.000 C 
ATOM     62  C   UNL     1     111.128 128.122 141.702  0.00  0.00    +0.000 C 
BRANCH  62  65
ATOM     63  O   UNL     1     109.862 127.617 142.132  0.00  0.00    +0.000 OA
ATOM     64  O   UNL     1     110.929 126.713 141.840  0.00  0.00    +0.000 OA
ATOM     65  C   UNL     1     110.639 127.485 141.891  0.00  0.00    +0.000 C 
ENDBRANCH  62  65
ENDBRANCH  53  58
ENDBRANCH   6  53
TORSDOF 10
ENDMDL
MODEL 3
REMARK VINA RESULT:     -11.3      1.254      4.465
REMARK  Name = 131833356
REMARK  10 active torsions:
REMARK  status: ('A' for Active; 'I' for Inactive)
REMARK    1  A    between atoms: O_3  and  C_36
REMARK    2  A    between atoms: O_3  and  C_43
REMARK    3  A    between atoms: O_4  and  C_40
REMARK    4  A    between atoms: O_4  and  C_50
REMARK    5  A    between atoms: C_27  and  C_30
REMARK    6  A    between atoms: C_28  and  C_32
REMARK    7  A    between atoms: C_37  and  C_46
REMARK    8  A    between atoms: C_39  and  C_48
REMARK    9  A    between atoms: C_55  and  C_59
REMARK   10  A    between atoms: C_57  and  C_60
REMARK                            x       y       z     vdW  Elec       q    Type
REMARK                         _______ _______ _______ _____ _____    ______ ____
ROOT
ATOM      1  O   UNL     1     109.995 129.916 136.992  0.00  0.00    +0.000 OA
ATOM      2  O   UNL     1     108.569 130.302 139.009  0.00  0.00    +0.000 OA
ATOM      3  C   UNL     1     110.423 128.306 138.869  0.00  0.00    +0.000 A 
ATOM      4  C   UNL     1     110.707 128.780 137.551  0.00  0.00    +0.000 A 
ATOM      5  C   UNL     1     110.851 128.249 138.166  0.00  0.00    +0.000 A 
ATOM      6  C   UNL     1     109.851 128.894 138.957  0.00  0.00    +0.000 A 
ATOM      7  C   UNL     1     110.136 129.368 137.639  0.00  0.00    +0.000 A 
ATOM      8  C   UNL     1     109.708 129.425 138.342  0.00  0.00    +0.000 A 
ATOM      9  C   UNL     1     109.110 130.034 138.446  0.00  0.00    +0.000 A 
ATOM     10  C   UNL     1     109.401 130.531 137.078  0.00  0.00    +0.000 A 
ATOM     11  C   UNL     1     108.956 130.589 137.810  0.00  0.00    +0.000 A 
ENDROOT
BRANCH   3  16
ATOM     12  O   UNL     1     111.208 127.892 139.990  0.00  0.00    +0.000 OA
ATOM     13  O   UNL     1     109.429 127.007 139.085  0.00  0.00    +0.000 OA
ATOM     14  O   UNL     1     109.716 125.944 140.313  0.00  0.00    +0.000 OA
ATOM     15  O   UNL     1     110.997 126.180 141.326  0.00  0.00    +0.000 OA
ATOM     16  C   UNL     1     110.567 127.774 139.484  0.00  0.00    +0.000 C 
ATOM     17  C   UNL     1     110.070 127.125 139.591  0.00  0.00    +0.000 C 
ATOM     18  C   UNL     1     110.213 126.594 140.205  0.00  0.00    +0.000 C 
ATOM     19  C   UNL     1     110.854 126.711 140.712  0.00  0.00    +0.000 C 
ATOM     20  C   UNL     1     111.351 127.361 140.604  0.00  0.00    +0.000 C 
BRANCH  20  22
ATOM     21  O   UNL     1     112.456 128.156 141.038  0.00  0.00    +0.000 OA
ATOM     22  C   UNL     1     111.992 127.479 141.110  0.00  0.00    +0.000 C 
ENDBRANCH  20  22
ENDBRANCH   3  16
BRANCH   4  27
ATOM     23  O   UNL     1     110.846 128.268 136.224  0.00  0.00    +0.000 OA
ATOM     24  O   UNL     1     112.145 129.576 137.394  0.00  0.00    +0.000 OA
ATOM     25  O   UNL     1     113.001 129.462 135.989  0.00  0.00    +0.000 OA
ATOM     26  O   UNL     1     112.422 128.552 134.740  0.00  0.00    +0.000 OA
ATOM     27  C   UNL     1     111.136 128.723 136.848  0.00  0.00    +0.000 C 
ATOM     28  C   UNL     1     111.855 129.121 136.770  0.00  0.00    +0.000 C 
ATOM     29  C   UNL     1     112.283 129.064 136.067  0.00  0.00    +0.000 C 
ATOM     30  C   UNL     1     111.993 128.609 135.443  0.00  0.00    +0.000 C 
ATOM     31  C   UNL     1     111.275 128.211 135.522  0.00  0.00    +0.000 C 
BRANCH  31  33
ATOM     32  O   UNL     1     110.174 127.716 134.757  0.00  0.00    +0.000 OA
ATOM     33  C   UNL     1     110.985 127.756 134.897  0.00  0.00    +0.000 C 
ENDBRANCH  31  33
ENDBRANCH   4  27
BRANCH  10  36
ATOM     34  O   UNL     1     109.861 133.064 135.837  0.00  0.00    +0.000 OA
ATOM     35  O   UNL     1     108.835 132.650 134.612  0.00  0.00    +0.000 OA
ATOM     36  C   UNL     1     109.260 131.061 136.461  0.00  0.00    +0.000 A 
ATOM     37  C   UNL     1     109.631 131.797 136.457  0.00  0.00    +0.000 A 
ATOM     38  C   UNL     1     108.747 130.854 135.849  0.00  0.00    +0.000 A 
ATOM     39  C   UNL     1     109.490 132.327 135.841  0.00  0.00    +0.000 A 
ATOM     40  C   UNL     1     108.606 131.383 135.233  0.00  0.00    +0.000 A 
ATOM     41  C   UNL     1     108.977 132.120 135.229  0.00  0.00    +0.000 A 
ENDBRANCH  10  36
BRANCH   5  42
ATOM     42  O   UNL     1     111.423 127.661 138.077  0.00  0.00    +0.000 OA
BRANCH  42  47
ATOM     43  O   UNL     1     111.298 126.326 137.581  0.00  0.00    +0.000 OA
ATOM     44  O   UNL     1     113.037 127.421 138.318  0.00  0.00    +0.000 OA
ATOM     45  O   UNL     1     113.720 125.966 137.942  0.00  0.00    +0.000 OA
ATOM     46  O   UNL     1     112.788 124.752 137.325  0.00  0.00    +0.000 OA
ATOM     47  C   UNL     1     111.764 126.933 137.889  0.00  0.00    +0.000 C 
ATOM     48  C   UNL     1     112.572 126.813 138.009  0.00  0.00    +0.000 C 
ATOM     49  C   UNL     1     112.913 126.086 137.821  0.00  0.00    +0.000 C 
ATOM     50  C   UNL     1     112.447 125.479 137.513  0.00  0.00    +0.000 C 
ATOM     51  C   UNL     1     111.640 125.599 137.393  0.00  0.00    +0.000 C 
ATOM     52  C   UNL     1     111.174 124.992 137.085  0.00  0.00    +0.000 C 
ENDBRANCH  42  47
ENDBRANCH   5  42
BRANCH   6  53
ATOM     53  O   UNL     1     109.424 128.950 139.660  0.00  0.00    +0.000 OA
BRANCH  53  58
ATOM     54  O   UNL     1     109.978 129.964 140.502  0.00  0.00    +0.000 OA
ATOM     55  O   UNL     1     108.134 128.809 140.680  0.00  0.00    +0.000 OA
ATOM     56  O   UNL     1     108.044 129.752 142.031  0.00  0.00    +0.000 OA
ATOM     57  O   UNL     1     109.243 130.836 142.362  0.00  0.00    +0.000 OA
ATOM     58  C   UNL     1     109.378 129.422 140.336  0.00  0.00    +0.000 C 
ATOM     59  C   UNL     1     108.734 129.351 140.845  0.00  0.00    +0.000 C 
ATOM     60  C   UNL     1     108.688 129.823 141.521  0.00  0.00    +0.000 C 
ATOM     61  C   UNL     1     109.288 130.365 141.687  0.00  0.00    +0.000 C 
ATOM     62  C   UNL     1     109.933 130.435 141.177  0.00  0.00    +0.000 C 
BRANCH  62  65
ATOM     63  O   UNL     1     111.148 130.769 141.850  0.00  0.00    +0.000 OA
ATOM     64  O   UNL     1     110.516 131.728 141.001  0.00  0.00    +0.000 OA
ATOM     65  C   UNL     1     110.532 130.977 141.343  0.00  0.00    +0.000 C 
ENDBRANCH  62  65
ENDBRANCH  53  58
ENDBRANCH   6  53
TORSDOF 10
ENDMDL
MODEL 4
REMARK VINA RESULT:     -11.2      1.562      4.955
REMARK  Name = 131833356
REMARK  10 active torsions:
REMARK  status: ('A' for Active; 'I' for Inactive)
REMARK    1  A    between atoms: O_3  and  C_36
REMARK    2  A    between atoms: O_3  and  C_43
REMARK    3  A    between atoms: O_4  and  C_40
REMARK    4  A    between atoms: O_4  and  C_50
REMARK    5  A    between atoms: C_27  and  C_30
REMARK    6  A    between atoms: C_28  and  C_32
REMARK    7  A    between atoms: C_37  and  C_46
REMARK    8  A    between atoms: C_39  and  C_48
REMARK    9  A    between atoms: C_55  and  C_59
REMARK   10  A    between atoms: C_57  and  C_60
REMARK                            x       y       z     vdW  Elec       q    Type
REMARK                         _______ _______ _______ _____ _____    ______ ____
ROOT
ATOM      1  O   UNL     1     109.795 129.719 137.041  0.00  0.00    +0.000 OA
ATOM      2  O   UNL     1     110.322 131.246 138.950  0.00  0.00    +0.000 OA
ATOM      3  C   UNL     1     111.095 128.631 138.891  0.00  0.00    +0.000 A 
ATOM      4  C   UNL     1     110.452 128.559 137.617  0.00  0.00    +0.000 A 
ATOM      5  C   UNL     1     110.879 128.197 138.223  0.00  0.00    +0.000 A 
ATOM      6  C   UNL     1     110.883 129.426 138.953  0.00  0.00    +0.000 A 
ATOM      7  C   UNL     1     110.240 129.354 137.679  0.00  0.00    +0.000 A 
ATOM      8  C   UNL     1     110.456 129.787 138.346  0.00  0.00    +0.000 A 
ATOM      9  C   UNL     1     110.241 130.616 138.423  0.00  0.00    +0.000 A 
ATOM     10  C   UNL     1     109.572 130.547 137.099  0.00  0.00    +0.000 A 
ATOM     11  C   UNL     1     109.796 130.998 137.796  0.00  0.00    +0.000 A 
ENDROOT
BRANCH   3  16
ATOM     12  O   UNL     1     111.132 127.802 140.055  0.00  0.00    +0.000 OA
ATOM     13  O   UNL     1     112.728 128.840 138.987  0.00  0.00    +0.000 OA
ATOM     14  O   UNL     1     113.583 128.116 140.198  0.00  0.00    +0.000 OA
ATOM     15  O   UNL     1     112.804 127.183 141.314  0.00  0.00    +0.000 OA
ATOM     16  C   UNL     1     111.522 128.269 139.497  0.00  0.00    +0.000 C 
ATOM     17  C   UNL     1     112.339 128.373 139.545  0.00  0.00    +0.000 C 
ATOM     18  C   UNL     1     112.766 128.011 140.150  0.00  0.00    +0.000 C 
ATOM     19  C   UNL     1     112.377 127.545 140.708  0.00  0.00    +0.000 C 
ATOM     20  C   UNL     1     111.559 127.440 140.661  0.00  0.00    +0.000 C 
BRANCH  20  22
ATOM     21  O   UNL     1     110.346 126.949 141.233  0.00  0.00    +0.000 OA
ATOM     22  C   UNL     1     111.170 126.973 141.219  0.00  0.00    +0.000 C 
ENDBRANCH  20  22
ENDBRANCH   3  16
BRANCH   4  27
ATOM     23  O   UNL     1     110.732 128.111 136.289  0.00  0.00    +0.000 OA
ATOM     24  O   UNL     1     109.030 127.721 137.600  0.00  0.00    +0.000 OA
ATOM     25  O   UNL     1     108.599 126.855 136.265  0.00  0.00    +0.000 OA
ATOM     26  O   UNL     1     109.589 126.825 134.945  0.00  0.00    +0.000 OA
ATOM     27  C   UNL     1     110.236 128.125 136.948  0.00  0.00    +0.000 C 
ATOM     28  C   UNL     1     109.525 127.706 136.941  0.00  0.00    +0.000 C 
ATOM     29  C   UNL     1     109.310 127.273 136.273  0.00  0.00    +0.000 C 
ATOM     30  C   UNL     1     109.805 127.258 135.613  0.00  0.00    +0.000 C 
ATOM     31  C   UNL     1     110.515 127.677 135.622  0.00  0.00    +0.000 C 
BRANCH  31  33
ATOM     32  O   UNL     1     111.472 128.319 134.776  0.00  0.00    +0.000 OA
ATOM     33  C   UNL     1     111.010 127.662 134.961  0.00  0.00    +0.000 C 
ENDBRANCH  31  33
ENDBRANCH   4  27
BRANCH  10  36
ATOM     34  O   UNL     1     107.068 131.238 135.908  0.00  0.00    +0.000 OA
ATOM     35  O   UNL     1     107.864 131.984 134.669  0.00  0.00    +0.000 OA
ATOM     36  C   UNL     1     109.144 130.906 136.492  0.00  0.00    +0.000 A 
ATOM     37  C   UNL     1     108.320 130.893 136.504  0.00  0.00    +0.000 A 
ATOM     38  C   UNL     1     109.542 131.279 135.873  0.00  0.00    +0.000 A 
ATOM     39  C   UNL     1     107.892 131.252 135.897  0.00  0.00    +0.000 A 
ATOM     40  C   UNL     1     109.115 131.638 135.265  0.00  0.00    +0.000 A 
ATOM     41  C   UNL     1     108.290 131.624 135.277  0.00  0.00    +0.000 A 
ENDBRANCH  10  36
BRANCH   5  42
ATOM     42  O   UNL     1     111.091 127.403 138.161  0.00  0.00    +0.000 OA
BRANCH  42  47
ATOM     43  O   UNL     1     112.267 126.806 137.612  0.00  0.00    +0.000 OA
ATOM     44  O   UNL     1     110.499 125.905 138.520  0.00  0.00    +0.000 OA
ATOM     45  O   UNL     1     111.380 124.559 138.151  0.00  0.00    +0.000 OA
ATOM     46  O   UNL     1     112.852 124.711 137.422  0.00  0.00    +0.000 OA
ATOM     47  C   UNL     1     111.531 126.729 137.976  0.00  0.00    +0.000 C 
ATOM     48  C   UNL     1     111.236 125.980 138.156  0.00  0.00    +0.000 C 
ATOM     49  C   UNL     1     111.676 125.308 137.971  0.00  0.00    +0.000 C 
ATOM     50  C   UNL     1     112.412 125.384 137.607  0.00  0.00    +0.000 C 
ATOM     51  C   UNL     1     112.708 126.132 137.427  0.00  0.00    +0.000 C 
ATOM     52  C   UNL     1     113.444 126.209 137.062  0.00  0.00    +0.000 C 
ENDBRANCH  42  47
ENDBRANCH   5  42
BRANCH   6  53
ATOM     53  O   UNL     1     111.099 129.858 139.621  0.00  0.00    +0.000 OA
BRANCH  53  58
ATOM     54  O   UNL     1     110.002 129.950 140.534  0.00  0.00    +0.000 OA
ATOM     55  O   UNL     1     111.939 130.957 140.520  0.00  0.00    +0.000 OA
ATOM     56  O   UNL     1     111.264 131.598 141.882  0.00  0.00    +0.000 OA
ATOM     57  O   UNL     1     109.747 131.141 142.345  0.00  0.00    +0.000 OA
ATOM     58  C   UNL     1     110.760 130.179 140.303  0.00  0.00    +0.000 C 
ATOM     59  C   UNL     1     111.181 130.728 140.752  0.00  0.00    +0.000 C 
ATOM     60  C   UNL     1     110.843 131.049 141.433  0.00  0.00    +0.000 C 
ATOM     61  C   UNL     1     110.085 130.820 141.665  0.00  0.00    +0.000 C 
ATOM     62  C   UNL     1     109.665 130.271 141.214  0.00  0.00    +0.000 C 
BRANCH  62  65
ATOM     63  O   UNL     1     108.807 129.410 141.966  0.00  0.00    +0.000 OA
ATOM     64  O   UNL     1     108.247 130.446 141.157  0.00  0.00    +0.000 OA
ATOM     65  C   UNL     1     108.907 130.042 141.446  0.00  0.00    +0.000 C 
ENDBRANCH  62  65
ENDBRANCH  53  58
ENDBRANCH   6  53
TORSDOF 10
ENDMDL
MODEL 5
REMARK VINA RESULT:     -11.1      1.515      4.516
REMARK  Name = 131833356
REMARK  10 active torsions:
REMARK  status: ('A' for Active; 'I' for Inactive)
REMARK    1  A    between atoms: O_3  and  C_36
REMARK    2  A    between atoms: O_3  and  C_43
REMARK    3  A    between atoms: O_4  and  C_40
REMARK    4  A    between atoms: O_4  and  C_50
REMARK    5  A    between atoms: C_27  and  C_30
REMARK    6  A    between atoms: C_28  and  C_32
REMARK    7  A    between atoms: C_37  and  C_46
REMARK    8  A    between atoms: C_39  and  C_48
REMARK    9  A    between atoms: C_55  and  C_59
REMARK   10  A    between atoms: C_57  and  C_60
REMARK                            x       y       z     vdW  Elec       q    Type
REMARK                         _______ _______ _______ _____ _____    ______ ____
ROOT
ATOM      1  O   UNL     1     112.520 127.024 138.175  0.00  0.00    +0.000 OA
ATOM      2  O   UNL     1     111.934 128.188 136.042  0.00  0.00    +0.000 OA
ATOM      3  C   UNL     1     111.302 129.194 138.496  0.00  0.00    +0.000 A 
ATOM      4  C   UNL     1     111.933 128.033 139.040  0.00  0.00    +0.000 A 
ATOM      5  C   UNL     1     111.532 128.745 139.150  0.00  0.00    +0.000 A 
ATOM      6  C   UNL     1     111.471 128.929 137.734  0.00  0.00    +0.000 A 
ATOM      7  C   UNL     1     112.102 127.768 138.277  0.00  0.00    +0.000 A 
ATOM      8  C   UNL     1     111.872 128.216 137.625  0.00  0.00    +0.000 A 
ATOM      9  C   UNL     1     112.043 127.952 136.824  0.00  0.00    +0.000 A 
ATOM     10  C   UNL     1     112.700 126.743 137.383  0.00  0.00    +0.000 A 
ATOM     11  C   UNL     1     112.459 127.211 136.704  0.00  0.00    +0.000 A 
ENDROOT
BRANCH   3  16
ATOM     12  O   UNL     1     110.091 129.905 138.768  0.00  0.00    +0.000 OA
ATOM     13  O   UNL     1     112.119 130.623 138.397  0.00  0.00    +0.000 OA
ATOM     14  O   UNL     1     111.320 132.049 138.617  0.00  0.00    +0.000 OA
ATOM     15  O   UNL     1     109.701 132.045 138.938  0.00  0.00    +0.000 OA
ATOM     16  C   UNL     1     110.901 129.907 138.607  0.00  0.00    +0.000 C 
ATOM     17  C   UNL     1     111.310 130.621 138.557  0.00  0.00    +0.000 C 
ATOM     18  C   UNL     1     110.910 131.334 138.667  0.00  0.00    +0.000 C 
ATOM     19  C   UNL     1     110.101 131.333 138.828  0.00  0.00    +0.000 C 
ATOM     20  C   UNL     1     109.691 130.618 138.878  0.00  0.00    +0.000 C 
BRANCH  20  22
ATOM     21  O   UNL     1     108.454 129.912 138.997  0.00  0.00    +0.000 OA
ATOM     22  C   UNL     1     108.882 130.616 139.038  0.00  0.00    +0.000 C 
ENDBRANCH  20  22
ENDBRANCH   3  16
BRANCH   4  27
ATOM     23  O   UNL     1     112.912 127.691 140.023  0.00  0.00    +0.000 OA
ATOM     24  O   UNL     1     110.896 126.923 139.687  0.00  0.00    +0.000 OA
ATOM     25  O   UNL     1     111.357 126.027 140.992  0.00  0.00    +0.000 OA
ATOM     26  O   UNL     1     112.855 126.239 141.652  0.00  0.00    +0.000 OA
ATOM     27  C   UNL     1     112.164 127.584 139.693  0.00  0.00    +0.000 C 
ATOM     28  C   UNL     1     111.645 127.029 140.016  0.00  0.00    +0.000 C 
ATOM     29  C   UNL     1     111.875 126.581 140.669  0.00  0.00    +0.000 C 
ATOM     30  C   UNL     1     112.624 126.687 140.999  0.00  0.00    +0.000 C 
ATOM     31  C   UNL     1     113.142 127.242 140.676  0.00  0.00    +0.000 C 
BRANCH  31  33
ATOM     32  O   UNL     1     114.565 127.207 140.553  0.00  0.00    +0.000 OA
ATOM     33  C   UNL     1     113.891 127.348 141.006  0.00  0.00    +0.000 C 
ENDBRANCH  31  33
ENDBRANCH   4  27
BRANCH  10  36
ATOM     34  O   UNL     1     112.652 123.916 136.970  0.00  0.00    +0.000 OA
ATOM     35  O   UNL     1     114.303 123.891 136.956  0.00  0.00    +0.000 OA
ATOM     36  C   UNL     1     113.100 126.030 137.276  0.00  0.00    +0.000 A 
ATOM     37  C   UNL     1     112.676 125.329 137.176  0.00  0.00    +0.000 A 
ATOM     38  C   UNL     1     113.925 126.017 137.269  0.00  0.00    +0.000 A 
ATOM     39  C   UNL     1     113.077 124.616 137.070  0.00  0.00    +0.000 A 
ATOM     40  C   UNL     1     114.326 125.304 137.162  0.00  0.00    +0.000 A 
ATOM     41  C   UNL     1     113.901 124.604 137.062  0.00  0.00    +0.000 A 
ENDBRANCH  10  36
BRANCH   5  42
ATOM     42  O   UNL     1     111.363 129.010 139.913  0.00  0.00    +0.000 OA
BRANCH  42  47
ATOM     43  O   UNL     1     112.134 129.829 140.793  0.00  0.00    +0.000 OA
ATOM     44  O   UNL     1     110.184 128.886 141.060  0.00  0.00    +0.000 OA
ATOM     45  O   UNL     1     110.366 129.644 142.515  0.00  0.00    +0.000 OA
ATOM     46  O   UNL     1     111.726 130.525 142.821  0.00  0.00    +0.000 OA
ATOM     47  C   UNL     1     111.454 129.389 140.640  0.00  0.00    +0.000 C 
ATOM     48  C   UNL     1     110.864 129.327 141.214  0.00  0.00    +0.000 C 
ATOM     49  C   UNL     1     110.955 129.706 141.941  0.00  0.00    +0.000 C 
ATOM     50  C   UNL     1     111.635 130.147 142.095  0.00  0.00    +0.000 C 
ATOM     51  C   UNL     1     112.225 130.208 141.521  0.00  0.00    +0.000 C 
ATOM     52  C   UNL     1     112.905 130.649 141.674  0.00  0.00    +0.000 C 
ENDBRANCH  42  47
ENDBRANCH   5  42
BRANCH   6  53
ATOM     53  O   UNL     1     111.240 129.378 137.082  0.00  0.00    +0.000 OA
BRANCH  53  58
ATOM     54  O   UNL     1     110.027 128.862 136.528  0.00  0.00    +0.000 OA
ATOM     55  O   UNL     1     111.382 130.414 135.805  0.00  0.00    +0.000 OA
ATOM     56  O   UNL     1     110.240 130.416 134.614  0.00  0.00    +0.000 OA
ATOM     57  O   UNL     1     108.957 129.382 134.699  0.00  0.00    +0.000 OA
ATOM     58  C   UNL     1     110.669 129.379 136.486  0.00  0.00    +0.000 C 
ATOM     59  C   UNL     1     110.740 129.897 135.848  0.00  0.00    +0.000 C 
ATOM     60  C   UNL     1     110.169 129.898 135.252  0.00  0.00    +0.000 C 
ATOM     61  C   UNL     1     109.527 129.381 135.294  0.00  0.00    +0.000 C 
ATOM     62  C   UNL     1     109.457 128.863 135.933  0.00  0.00    +0.000 C 
BRANCH  62  65
ATOM     63  O   UNL     1     108.910 127.553 135.769  0.00  0.00    +0.000 OA
ATOM     64  O   UNL     1     108.079 128.622 136.225  0.00  0.00    +0.000 OA
ATOM     65  C   UNL     1     108.816 128.346 135.975  0.00  0.00    +0.000 C 
ENDBRANCH  62  65
ENDBRANCH  53  58
ENDBRANCH   6  53
TORSDOF 10
ENDMDL
MODEL 6
REMARK VINA RESULT:     -11.1      1.521      4.097
REMARK  Name = 131833356
REMARK  10 active torsions:
REMARK  status: ('A' for Active; 'I' for Inactive)
REMARK    1  A    between atoms: O_3  and  C_36
REMARK    2  A    between atoms: O_3  and  C_43
REMARK    3  A    between atoms: O_4  and  C_40
REMARK    4  A    between atoms: O_4  and  C_50
REMARK    5  A    between atoms: C_27  and  C_30
REMARK    6  A    between atoms: C_28  and  C_32
REMARK    7  A    between atoms: C_37  and  C_46
REMARK    8  A    between atoms: C_39  and  C_48
REMARK    9  A    between atoms: C_55  and  C_59
REMARK   10  A    between atoms: C_57  and  C_60
REMARK                            x       y       z     vdW  Elec       q    Type
REMARK                         _______ _______ _______ _____ _____    ______ ____
ROOT
ATOM      1  O   UNL     1     112.637 127.316 138.252  0.00  0.00    +0.000 OA
ATOM      2  O   UNL     1     110.739 127.307 136.625  0.00  0.00    +0.000 OA
ATOM      3  C   UNL     1     110.827 128.970 138.785  0.00  0.00    +0.000 A 
ATOM      4  C   UNL     1     112.083 128.362 139.093  0.00  0.00    +0.000 A 
ATOM      5  C   UNL     1     111.490 128.907 139.272  0.00  0.00    +0.000 A 
ATOM      6  C   UNL     1     110.757 128.487 138.119  0.00  0.00    +0.000 A 
ATOM      7  C   UNL     1     112.013 127.880 138.428  0.00  0.00    +0.000 A 
ATOM      8  C   UNL     1     111.350 127.942 137.941  0.00  0.00    +0.000 A 
ATOM      9  C   UNL     1     111.265 127.445 137.245  0.00  0.00    +0.000 A 
ATOM     10  C   UNL     1     112.570 126.810 137.561  0.00  0.00    +0.000 A 
ATOM     11  C   UNL     1     111.879 126.875 137.054  0.00  0.00    +0.000 A 
ENDROOT
BRANCH   3  16
ATOM     12  O   UNL     1     110.325 130.308 138.753  0.00  0.00    +0.000 OA
ATOM     13  O   UNL     1     109.460 128.476 139.564  0.00  0.00    +0.000 OA
ATOM     14  O   UNL     1     108.274 129.565 139.923  0.00  0.00    +0.000 OA
ATOM     15  O   UNL     1     108.456 131.150 139.501  0.00  0.00    +0.000 OA
ATOM     16  C   UNL     1     110.234 129.516 138.964  0.00  0.00    +0.000 C 
ATOM     17  C   UNL     1     109.551 129.268 139.353  0.00  0.00    +0.000 C 
ATOM     18  C   UNL     1     108.958 129.813 139.533  0.00  0.00    +0.000 C 
ATOM     19  C   UNL     1     109.049 130.605 139.322  0.00  0.00    +0.000 C 
ATOM     20  C   UNL     1     109.733 130.853 138.932  0.00  0.00    +0.000 C 
BRANCH  20  22
ATOM     21  O   UNL     1     110.517 131.898 138.354  0.00  0.00    +0.000 OA
ATOM     22  C   UNL     1     109.823 131.646 138.721  0.00  0.00    +0.000 C 
ENDBRANCH  20  22
ENDBRANCH   3  16
BRANCH   4  27
ATOM     23  O   UNL     1     112.758 127.748 140.193  0.00  0.00    +0.000 OA
ATOM     24  O   UNL     1     113.387 129.343 138.841  0.00  0.00    +0.000 OA
ATOM     25  O   UNL     1     114.712 129.219 139.814  0.00  0.00    +0.000 OA
ATOM     26  O   UNL     1     114.736 128.114 141.040  0.00  0.00    +0.000 OA
ATOM     27  C   UNL     1     112.746 128.300 139.580  0.00  0.00    +0.000 C 
ATOM     28  C   UNL     1     113.398 128.791 139.454  0.00  0.00    +0.000 C 
ATOM     29  C   UNL     1     114.061 128.729 139.940  0.00  0.00    +0.000 C 
ATOM     30  C   UNL     1     114.073 128.176 140.553  0.00  0.00    +0.000 C 
ATOM     31  C   UNL     1     113.421 127.686 140.679  0.00  0.00    +0.000 C 
BRANCH  31  33
ATOM     32  O   UNL     1     112.921 126.488 141.277  0.00  0.00    +0.000 OA
ATOM     33  C   UNL     1     113.434 127.134 141.292  0.00  0.00    +0.000 C 
ENDBRANCH  31  33
ENDBRANCH   4  27
BRANCH  10  36
ATOM     34  O   UNL     1     114.930 126.106 136.112  0.00  0.00    +0.000 OA
ATOM     35  O   UNL     1     114.947 124.632 136.857  0.00  0.00    +0.000 OA
ATOM     36  C   UNL     1     113.164 126.265 137.384  0.00  0.00    +0.000 A 
ATOM     37  C   UNL     1     113.750 126.458 136.836  0.00  0.00    +0.000 A 
ATOM     38  C   UNL     1     113.172 125.529 137.756  0.00  0.00    +0.000 A 
ATOM     39  C   UNL     1     114.344 125.913 136.660  0.00  0.00    +0.000 A 
ATOM     40  C   UNL     1     113.766 124.985 137.580  0.00  0.00    +0.000 A 
ATOM     41  C   UNL     1     114.352 125.177 137.032  0.00  0.00    +0.000 A 
ENDBRANCH  10  36
BRANCH   5  42
ATOM     42  O   UNL     1     111.561 129.390 139.937  0.00  0.00    +0.000 OA
BRANCH  42  47
ATOM     43  O   UNL     1     111.118 129.175 141.279  0.00  0.00    +0.000 OA
ATOM     44  O   UNL     1     112.191 130.849 140.379  0.00  0.00    +0.000 OA
ATOM     45  O   UNL     1     112.064 131.364 141.941  0.00  0.00    +0.000 OA
ATOM     46  O   UNL     1     111.307 130.419 143.062  0.00  0.00    +0.000 OA
ATOM     47  C   UNL     1     111.497 129.648 140.719  0.00  0.00    +0.000 C 
ATOM     48  C   UNL     1     111.812 130.377 140.940  0.00  0.00    +0.000 C 
ATOM     49  C   UNL     1     111.749 130.634 141.720  0.00  0.00    +0.000 C 
ATOM     50  C   UNL     1     111.370 130.162 142.281  0.00  0.00    +0.000 C 
ATOM     51  C   UNL     1     111.055 129.432 142.060  0.00  0.00    +0.000 C 
ATOM     52  C   UNL     1     110.676 128.960 142.620  0.00  0.00    +0.000 C 
ENDBRANCH  42  47
ENDBRANCH   5  42
BRANCH   6  53
ATOM     53  O   UNL     1     110.093 128.550 137.633  0.00  0.00    +0.000 OA
BRANCH  53  58
ATOM     54  O   UNL     1     110.385 129.362 136.493  0.00  0.00    +0.000 OA
ATOM     55  O   UNL     1     108.643 128.134 136.966  0.00  0.00    +0.000 OA
ATOM     56  O   UNL     1     108.209 128.738 135.492  0.00  0.00    +0.000 OA
ATOM     57  O   UNL     1     109.227 129.757 134.687  0.00  0.00    +0.000 OA
ATOM     58  C   UNL     1     109.877 128.852 136.896  0.00  0.00    +0.000 C 
ATOM     59  C   UNL     1     109.151 128.644 136.563  0.00  0.00    +0.000 C 
ATOM     60  C   UNL     1     108.935 128.946 135.826  0.00  0.00    +0.000 C 
ATOM     61  C   UNL     1     109.443 129.455 135.423  0.00  0.00    +0.000 C 
ATOM     62  C   UNL     1     110.169 129.663 135.757  0.00  0.00    +0.000 C 
BRANCH  62  65
ATOM     63  O   UNL     1     110.587 130.989 135.427  0.00  0.00    +0.000 OA
ATOM     64  O   UNL     1     111.278 129.865 134.877  0.00  0.00    +0.000 OA
ATOM     65  C   UNL     1     110.677 130.172 135.354  0.00  0.00    +0.000 C 
ENDBRANCH  62  65
ENDBRANCH  53  58
ENDBRANCH   6  53
TORSDOF 10
ENDMDL
MODEL 7
REMARK VINA RESULT:     -10.9      1.761      5.023
REMARK  Name = 131833356
REMARK  10 active torsions:
REMARK  status: ('A' for Active; 'I' for Inactive)
REMARK    1  A    between atoms: O_3  and  C_36
REMARK    2  A    between atoms: O_3  and  C_43
REMARK    3  A    between atoms: O_4  and  C_40
REMARK    4  A    between atoms: O_4  and  C_50
REMARK    5  A    between atoms: C_27  and  C_30
REMARK    6  A    between atoms: C_28  and  C_32
REMARK    7  A    between atoms: C_37  and  C_46
REMARK    8  A    between atoms: C_39  and  C_48
REMARK    9  A    between atoms: C_55  and  C_59
REMARK   10  A    between atoms: C_57  and  C_60
REMARK                            x       y       z     vdW  Elec       q    Type
REMARK                         _______ _______ _______ _____ _____    ______ ____
ROOT
ATOM      1  O   UNL     1     110.314 129.683 137.671  0.00  0.00    +0.000 OA
ATOM      2  O   UNL     1     111.084 130.816 139.762  0.00  0.00    +0.000 OA
ATOM      3  C   UNL     1     111.509 128.167 139.274  0.00  0.00    +0.000 A 
ATOM      4  C   UNL     1     110.830 128.374 138.034  0.00  0.00    +0.000 A 
ATOM      5  C   UNL     1     111.222 127.872 138.558  0.00  0.00    +0.000 A 
ATOM      6  C   UNL     1     111.404 128.962 139.465  0.00  0.00    +0.000 A 
ATOM      7  C   UNL     1     110.725 129.170 138.225  0.00  0.00    +0.000 A 
ATOM      8  C   UNL     1     111.012 129.463 138.940  0.00  0.00    +0.000 A 
ATOM      9  C   UNL     1     110.908 130.291 139.151  0.00  0.00    +0.000 A 
ATOM     10  C   UNL     1     110.201 130.513 137.864  0.00  0.00    +0.000 A 
ATOM     11  C   UNL     1     110.501 130.818 138.609  0.00  0.00    +0.000 A 
ENDROOT
BRANCH   3  16
ATOM     12  O   UNL     1     112.713 127.534 139.716  0.00  0.00    +0.000 OA
ATOM     13  O   UNL     1     110.673 127.422 140.485  0.00  0.00    +0.000 OA
ATOM     14  O   UNL     1     111.456 126.418 141.533  0.00  0.00    +0.000 OA
ATOM     15  O   UNL     1     113.077 126.158 141.370  0.00  0.00    +0.000 OA
ATOM     16  C   UNL     1     111.902 127.664 139.798  0.00  0.00    +0.000 C 
ATOM     17  C   UNL     1     111.483 127.292 140.404  0.00  0.00    +0.000 C 
ATOM     18  C   UNL     1     111.875 126.790 140.928  0.00  0.00    +0.000 C 
ATOM     19  C   UNL     1     112.685 126.660 140.846  0.00  0.00    +0.000 C 
ATOM     20  C   UNL     1     113.105 127.032 140.240  0.00  0.00    +0.000 C 
BRANCH  20  22
ATOM     21  O   UNL     1     114.439 127.198 140.723  0.00  0.00    +0.000 OA
ATOM     22  C   UNL     1     113.915 126.902 140.159  0.00  0.00    +0.000 C 
ENDBRANCH  20  22
ENDBRANCH   3  16
BRANCH   4  27
ATOM     23  O   UNL     1     111.015 128.106 136.643  0.00  0.00    +0.000 OA
ATOM     24  O   UNL     1     109.310 127.735 137.955  0.00  0.00    +0.000 OA
ATOM     25  O   UNL     1     108.736 127.147 136.526  0.00  0.00    +0.000 OA
ATOM     26  O   UNL     1     109.680 127.198 135.173  0.00  0.00    +0.000 OA
ATOM     27  C   UNL     1     110.542 128.080 137.318  0.00  0.00    +0.000 C 
ATOM     28  C   UNL     1     109.782 127.760 137.280  0.00  0.00    +0.000 C 
ATOM     29  C   UNL     1     109.495 127.466 136.565  0.00  0.00    +0.000 C 
ATOM     30  C   UNL     1     109.967 127.492 135.888  0.00  0.00    +0.000 C 
ATOM     31  C   UNL     1     110.727 127.811 135.928  0.00  0.00    +0.000 C 
BRANCH  31  33
ATOM     32  O   UNL     1     111.684 128.488 135.111  0.00  0.00    +0.000 OA
ATOM     33  C   UNL     1     111.199 127.837 135.251  0.00  0.00    +0.000 C 
ENDBRANCH  31  33
ENDBRANCH   4  27
BRANCH  10  36
ATOM     34  O   UNL     1     107.781 131.705 136.923  0.00  0.00    +0.000 OA
ATOM     35  O   UNL     1     108.632 132.511 135.759  0.00  0.00    +0.000 OA
ATOM     36  C   UNL     1     109.809 131.012 137.338  0.00  0.00    +0.000 A 
ATOM     37  C   UNL     1     108.991 131.109 137.393  0.00  0.00    +0.000 A 
ATOM     38  C   UNL     1     110.234 131.414 136.757  0.00  0.00    +0.000 A 
ATOM     39  C   UNL     1     108.599 131.608 136.867  0.00  0.00    +0.000 A 
ATOM     40  C   UNL     1     109.841 131.914 136.230  0.00  0.00    +0.000 A 
ATOM     41  C   UNL     1     109.024 132.011 136.286  0.00  0.00    +0.000 A 
ENDBRANCH  10  36
BRANCH   5  42
ATOM     42  O   UNL     1     111.327 127.077 138.367  0.00  0.00    +0.000 OA
BRANCH  42  47
ATOM     43  O   UNL     1     112.388 126.436 137.656  0.00  0.00    +0.000 OA
ATOM     44  O   UNL     1     110.578 125.620 138.563  0.00  0.00    +0.000 OA
ATOM     45  O   UNL     1     111.264 124.251 137.949  0.00  0.00    +0.000 OA
ATOM     46  O   UNL     1     112.699 124.338 137.140  0.00  0.00    +0.000 OA
ATOM     47  C   UNL     1     111.670 126.392 138.060  0.00  0.00    +0.000 C 
ATOM     48  C   UNL     1     111.296 125.663 138.158  0.00  0.00    +0.000 C 
ATOM     49  C   UNL     1     111.638 124.979 137.851  0.00  0.00    +0.000 C 
ATOM     50  C   UNL     1     112.356 125.022 137.447  0.00  0.00    +0.000 C 
ATOM     51  C   UNL     1     112.731 125.751 137.349  0.00  0.00    +0.000 C 
ATOM     52  C   UNL     1     113.448 125.795 136.944  0.00  0.00    +0.000 C 
ENDBRANCH  42  47
ENDBRANCH   5  42
BRANCH   6  53
ATOM     53  O   UNL     1     111.691 129.255 140.180  0.00  0.00    +0.000 OA
BRANCH  53  58
ATOM     54  O   UNL     1     112.955 129.895 139.986  0.00  0.00    +0.000 OA
ATOM     55  O   UNL     1     111.644 129.819 141.730  0.00  0.00    +0.000 OA
ATOM     56  O   UNL     1     112.883 130.741 142.311  0.00  0.00    +0.000 OA
ATOM     57  O   UNL     1     114.170 131.099 141.342  0.00  0.00    +0.000 OA
ATOM     58  C   UNL     1     112.312 129.716 140.471  0.00  0.00    +0.000 C 
ATOM     59  C   UNL     1     112.287 129.998 141.246  0.00  0.00    +0.000 C 
ATOM     60  C   UNL     1     112.908 130.459 141.536  0.00  0.00    +0.000 C 
ATOM     61  C   UNL     1     113.551 130.638 141.052  0.00  0.00    +0.000 C 
ATOM     62  C   UNL     1     113.574 130.356 140.276  0.00  0.00    +0.000 C 
BRANCH  62  65
ATOM     63  O   UNL     1     114.136 131.089 139.186  0.00  0.00    +0.000 OA
ATOM     64  O   UNL     1     114.942 130.159 139.912  0.00  0.00    +0.000 OA
ATOM     65  C   UNL     1     114.217 130.535 139.792  0.00  0.00    +0.000 C 
ENDBRANCH  62  65
ENDBRANCH  53  58
ENDBRANCH   6  53
TORSDOF 10
ENDMDL
MODEL 8
REMARK VINA RESULT:     -10.8      1.919      4.583
REMARK  Name = 131833356
REMARK  10 active torsions:
REMARK  status: ('A' for Active; 'I' for Inactive)
REMARK    1  A    between atoms: O_3  and  C_36
REMARK    2  A    between atoms: O_3  and  C_43
REMARK    3  A    between atoms: O_4  and  C_40
REMARK    4  A    between atoms: O_4  and  C_50
REMARK    5  A    between atoms: C_27  and  C_30
REMARK    6  A    between atoms: C_28  and  C_32
REMARK    7  A    between atoms: C_37  and  C_46
REMARK    8  A    between atoms: C_39  and  C_48
REMARK    9  A    between atoms: C_55  and  C_59
REMARK   10  A    between atoms: C_57  and  C_60
REMARK                            x       y       z     vdW  Elec       q    Type
REMARK                         _______ _______ _______ _____ _____    ______ ____
ROOT
ATOM      1  O   UNL     1     110.237 130.265 138.256  0.00  0.00    +0.000 OA
ATOM      2  O   UNL     1     108.478 130.859 139.930  0.00  0.00    +0.000 OA
ATOM      3  C   UNL     1     110.994 130.083 140.641  0.00  0.00    +0.000 A 
ATOM      4  C   UNL     1     111.260 129.966 139.242  0.00  0.00    +0.000 A 
ATOM      5  C   UNL     1     111.513 129.905 140.024  0.00  0.00    +0.000 A 
ATOM      6  C   UNL     1     110.222 130.322 140.474  0.00  0.00    +0.000 A 
ATOM      7  C   UNL     1     110.489 130.205 139.075  0.00  0.00    +0.000 A 
ATOM      8  C   UNL     1     109.970 130.383 139.691  0.00  0.00    +0.000 A 
ATOM      9  C   UNL     1     109.163 130.633 139.530  0.00  0.00    +0.000 A 
ATOM     10  C   UNL     1     109.434 130.514 138.075  0.00  0.00    +0.000 A 
ATOM     11  C   UNL     1     108.895 130.699 138.717  0.00  0.00    +0.000 A 
ENDROOT
BRANCH   3  16
ATOM     12  O   UNL     1     111.269 129.284 141.794  0.00  0.00    +0.000 OA
ATOM     13  O   UNL     1     111.456 131.434 141.466  0.00  0.00    +0.000 OA
ATOM     14  O   UNL     1     111.963 131.312 143.032  0.00  0.00    +0.000 OA
ATOM     15  O   UNL     1     112.007 129.838 143.772  0.00  0.00    +0.000 OA
ATOM     16  C   UNL     1     111.247 130.021 141.424  0.00  0.00    +0.000 C 
ATOM     17  C   UNL     1     111.478 130.697 141.836  0.00  0.00    +0.000 C 
ATOM     18  C   UNL     1     111.731 130.636 142.619  0.00  0.00    +0.000 C 
ATOM     19  C   UNL     1     111.754 129.899 142.989  0.00  0.00    +0.000 C 
ATOM     20  C   UNL     1     111.522 129.222 142.577  0.00  0.00    +0.000 C 
BRANCH  20  22
ATOM     21  O   UNL     1     111.241 127.822 142.563  0.00  0.00    +0.000 OA
ATOM     22  C   UNL     1     111.544 128.486 142.947  0.00  0.00    +0.000 C 
ENDBRANCH  20  22
ENDBRANCH   3  16
BRANCH   4  27
ATOM     23  O   UNL     1     112.237 130.385 138.286  0.00  0.00    +0.000 OA
ATOM     24  O   UNL     1     111.384 128.416 138.689  0.00  0.00    +0.000 OA
ATOM     25  O   UNL     1     112.421 128.060 137.457  0.00  0.00    +0.000 OA
ATOM     26  O   UNL     1     113.337 129.253 136.778  0.00  0.00    +0.000 OA
ATOM     27  C   UNL     1     111.780 129.788 138.625  0.00  0.00    +0.000 C 
ATOM     28  C   UNL     1     111.841 129.013 138.349  0.00  0.00    +0.000 C 
ATOM     29  C   UNL     1     112.360 128.835 137.734  0.00  0.00    +0.000 C 
ATOM     30  C   UNL     1     112.818 129.431 137.393  0.00  0.00    +0.000 C 
ATOM     31  C   UNL     1     112.756 130.206 137.670  0.00  0.00    +0.000 C 
BRANCH  31  33
ATOM     32  O   UNL     1     112.886 131.547 137.193  0.00  0.00    +0.000 OA
ATOM     33  C   UNL     1     113.214 130.803 137.330  0.00  0.00    +0.000 C 
ENDBRANCH  31  33
ENDBRANCH   4  27
BRANCH  10  36
ATOM     34  O   UNL     1     108.317 129.315 135.734  0.00  0.00    +0.000 OA
ATOM     35  O   UNL     1     108.434 130.757 134.940  0.00  0.00    +0.000 OA
ATOM     36  C   UNL     1     109.184 130.575 137.291  0.00  0.00    +0.000 A 
ATOM     37  C   UNL     1     108.876 129.914 136.905  0.00  0.00    +0.000 A 
ATOM     38  C   UNL     1     109.243 131.295 136.894  0.00  0.00    +0.000 A 
ATOM     39  C   UNL     1     108.625 129.975 136.121  0.00  0.00    +0.000 A 
ATOM     40  C   UNL     1     108.993 131.356 136.111  0.00  0.00    +0.000 A 
ATOM     41  C   UNL     1     108.684 130.695 135.724  0.00  0.00    +0.000 A 
ENDBRANCH  10  36
BRANCH   5  42
ATOM     42  O   UNL     1     112.285 129.666 140.191  0.00  0.00    +0.000 OA
BRANCH  42  47
ATOM     43  O   UNL     1     113.472 130.444 140.357  0.00  0.00    +0.000 OA
ATOM     44  O   UNL     1     113.152 128.287 140.457  0.00  0.00    +0.000 OA
ATOM     45  O   UNL     1     114.772 128.376 140.755  0.00  0.00    +0.000 OA
ATOM     46  O   UNL     1     115.526 129.844 140.787  0.00  0.00    +0.000 OA
ATOM     47  C   UNL     1     113.096 129.710 140.340  0.00  0.00    +0.000 C 
ATOM     48  C   UNL     1     113.529 129.021 140.473  0.00  0.00    +0.000 C 
ATOM     49  C   UNL     1     114.339 129.065 140.622  0.00  0.00    +0.000 C 
ATOM     50  C   UNL     1     114.716 129.799 140.639  0.00  0.00    +0.000 C 
ATOM     51  C   UNL     1     114.283 130.488 140.506  0.00  0.00    +0.000 C 
ATOM     52  C   UNL     1     114.659 131.222 140.522  0.00  0.00    +0.000 C 
ENDBRANCH  42  47
ENDBRANCH   5  42
BRANCH   6  53
ATOM     53  O   UNL     1     109.704 130.499 141.090  0.00  0.00    +0.000 OA
BRANCH  53  58
ATOM     54  O   UNL     1     108.867 129.377 141.378  0.00  0.00    +0.000 OA
ATOM     55  O   UNL     1     108.797 131.435 142.103  0.00  0.00    +0.000 OA
ATOM     56  O   UNL     1     107.507 130.780 142.896  0.00  0.00    +0.000 OA
ATOM     57  O   UNL     1     107.124 129.190 142.678  0.00  0.00    +0.000 OA
ATOM     58  C   UNL     1     109.059 130.172 141.488  0.00  0.00    +0.000 C 
ATOM     59  C   UNL     1     108.605 130.640 141.993  0.00  0.00    +0.000 C 
ATOM     60  C   UNL     1     107.960 130.312 142.391  0.00  0.00    +0.000 C 
ATOM     61  C   UNL     1     107.769 129.517 142.281  0.00  0.00    +0.000 C 
ATOM     62  C   UNL     1     108.223 129.050 141.775  0.00  0.00    +0.000 C 
BRANCH  62  65
ATOM     63  O   UNL     1     107.585 128.023 141.012  0.00  0.00    +0.000 OA
ATOM     64  O   UNL     1     108.287 127.690 142.211  0.00  0.00    +0.000 OA
ATOM     65  C   UNL     1     108.031 128.255 141.666  0.00  0.00    +0.000 C 
ENDBRANCH  62  65
ENDBRANCH  53  58
ENDBRANCH   6  53
TORSDOF 10
ENDMDL
MODEL 9
REMARK VINA RESULT:     -10.8      2.015      6.109
REMARK  Name = 131833356
REMARK  10 active torsions:
REMARK  status: ('A' for Active; 'I' for Inactive)
REMARK    1  A    between atoms: O_3  and  C_36
REMARK    2  A    between atoms: O_3  and  C_43
REMARK    3  A    between atoms: O_4  and  C_40
REMARK    4  A    between atoms: O_4  and  C_50
REMARK    5  A    between atoms: C_27  and  C_30
REMARK    6  A    between atoms: C_28  and  C_32
REMARK    7  A    between atoms: C_37  and  C_46
REMARK    8  A    between atoms: C_39  and  C_48
REMARK    9  A    between atoms: C_55  and  C_59
REMARK   10  A    between atoms: C_57  and  C_60
REMARK                            x       y       z     vdW  Elec       q    Type
REMARK                         _______ _______ _______ _____ _____    ______ ____
ROOT
ATOM      1  O   UNL     1     109.561 130.153 141.403  0.00  0.00    +0.000 OA
ATOM      2  O   UNL     1     108.330 129.790 139.257  0.00  0.00    +0.000 OA
ATOM      3  C   UNL     1     111.053 129.786 139.419  0.00  0.00    +0.000 A 
ATOM      4  C   UNL     1     110.885 130.033 140.816  0.00  0.00    +0.000 A 
ATOM      5  C   UNL     1     111.379 129.913 140.167  0.00  0.00    +0.000 A 
ATOM      6  C   UNL     1     110.234 129.778 139.321  0.00  0.00    +0.000 A 
ATOM      7  C   UNL     1     110.066 130.026 140.719  0.00  0.00    +0.000 A 
ATOM      8  C   UNL     1     109.741 129.899 139.972  0.00  0.00    +0.000 A 
ATOM      9  C   UNL     1     108.888 129.889 139.857  0.00  0.00    +0.000 A 
ATOM     10  C   UNL     1     108.707 130.146 141.308  0.00  0.00    +0.000 A 
ATOM     11  C   UNL     1     108.369 130.013 140.529  0.00  0.00    +0.000 A 
ENDROOT
BRANCH   3  16
ATOM     12  O   UNL     1     111.896 130.311 138.391  0.00  0.00    +0.000 OA
ATOM     13  O   UNL     1     111.345 128.256 138.877  0.00  0.00    +0.000 OA
ATOM     14  O   UNL     1     112.333 128.014 137.578  0.00  0.00    +0.000 OA
ATOM     15  O   UNL     1     113.030 129.304 136.821  0.00  0.00    +0.000 OA
ATOM     16  C   UNL     1     111.548 129.665 138.769  0.00  0.00    +0.000 C 
ATOM     17  C   UNL     1     111.693 128.900 138.498  0.00  0.00    +0.000 C 
ATOM     18  C   UNL     1     112.188 128.780 137.849  0.00  0.00    +0.000 C 
ATOM     19  C   UNL     1     112.536 129.424 137.471  0.00  0.00    +0.000 C 
ATOM     20  C   UNL     1     112.390 130.191 137.741  0.00  0.00    +0.000 C 
BRANCH  20  22
ATOM     21  O   UNL     1     112.502 131.602 137.551  0.00  0.00    +0.000 OA
ATOM     22  C   UNL     1     112.739 130.835 137.363  0.00  0.00    +0.000 C 
ENDBRANCH  20  22
ENDBRANCH   3  16
BRANCH   4  27
ATOM     23  O   UNL     1     111.345 129.523 142.069  0.00  0.00    +0.000 OA
ATOM     24  O   UNL     1     111.266 131.565 141.299  0.00  0.00    +0.000 OA
ATOM     25  O   UNL     1     111.917 131.820 142.793  0.00  0.00    +0.000 OA
ATOM     26  O   UNL     1     112.186 130.545 143.805  0.00  0.00    +0.000 OA
ATOM     27  C   UNL     1     111.210 130.161 141.564  0.00  0.00    +0.000 C 
ATOM     28  C   UNL     1     111.401 130.927 141.805  0.00  0.00    +0.000 C 
ATOM     29  C   UNL     1     111.726 131.055 142.552  0.00  0.00    +0.000 C 
ATOM     30  C   UNL     1     111.861 130.417 143.058  0.00  0.00    +0.000 C 
ATOM     31  C   UNL     1     111.670 129.652 142.816  0.00  0.00    +0.000 C 
BRANCH  31  33
ATOM     32  O   UNL     1     111.288 128.372 143.325  0.00  0.00    +0.000 OA
ATOM     33  C   UNL     1     111.805 129.014 143.323  0.00  0.00    +0.000 C 
ENDBRANCH  31  33
ENDBRANCH   4  27
BRANCH  10  36
ATOM     34  O   UNL     1     107.150 131.898 142.943  0.00  0.00    +0.000 OA
ATOM     35  O   UNL     1     106.741 130.627 143.914  0.00  0.00    +0.000 OA
ATOM     36  C   UNL     1     108.216 130.267 141.959  0.00  0.00    +0.000 A 
ATOM     37  C   UNL     1     107.929 131.022 142.125  0.00  0.00    +0.000 A 
ATOM     38  C   UNL     1     108.011 129.632 142.445  0.00  0.00    +0.000 A 
ATOM     39  C   UNL     1     107.437 131.143 142.777  0.00  0.00    +0.000 A 
ATOM     40  C   UNL     1     107.520 129.752 143.096  0.00  0.00    +0.000 A 
ATOM     41  C   UNL     1     107.233 130.508 143.262  0.00  0.00    +0.000 A 
ENDBRANCH  10  36
BRANCH   5  42
ATOM     42  O   UNL     1     112.198 129.920 140.264  0.00  0.00    +0.000 OA
BRANCH  42  47
ATOM     43  O   UNL     1     113.099 128.847 140.543  0.00  0.00    +0.000 OA
ATOM     44  O   UNL     1     113.463 130.980 140.254  0.00  0.00    +0.000 OA
ATOM     45  O   UNL     1     114.996 130.436 140.527  0.00  0.00    +0.000 OA
ATOM     46  O   UNL     1     115.265 128.833 140.811  0.00  0.00    +0.000 OA
ATOM     47  C   UNL     1     112.965 129.648 140.401  0.00  0.00    +0.000 C 
ATOM     48  C   UNL     1     113.598 130.178 140.396  0.00  0.00    +0.000 C 
ATOM     49  C   UNL     1     114.364 129.906 140.532  0.00  0.00    +0.000 C 
ATOM     50  C   UNL     1     114.499 129.105 140.674  0.00  0.00    +0.000 C 
ATOM     51  C   UNL     1     113.866 128.575 140.680  0.00  0.00    +0.000 C 
ATOM     52  C   UNL     1     114.000 127.773 140.821  0.00  0.00    +0.000 C 
ENDBRANCH  42  47
ENDBRANCH   5  42
BRANCH   6  53
ATOM     53  O   UNL     1     109.910 129.651 138.574  0.00  0.00    +0.000 OA
BRANCH  53  58
ATOM     54  O   UNL     1     109.529 130.894 137.980  0.00  0.00    +0.000 OA
ATOM     55  O   UNL     1     109.191 128.837 137.332  0.00  0.00    +0.000 OA
ATOM     56  O   UNL     1     108.450 129.673 136.117  0.00  0.00    +0.000 OA
ATOM     57  O   UNL     1     108.429 131.322 136.144  0.00  0.00    +0.000 OA
ATOM     58  C   UNL     1     109.539 130.069 137.966  0.00  0.00    +0.000 C 
ATOM     59  C   UNL     1     109.180 129.662 137.345  0.00  0.00    +0.000 C 
ATOM     60  C   UNL     1     108.809 130.080 136.738  0.00  0.00    +0.000 C 
ATOM     61  C   UNL     1     108.799 130.905 136.751  0.00  0.00    +0.000 C 
ATOM     62  C   UNL     1     109.159 131.312 137.373  0.00  0.00    +0.000 C 
BRANCH  62  65
ATOM     63  O   UNL     1     109.685 132.564 136.929  0.00  0.00    +0.000 OA
ATOM     64  O   UNL     1     108.599 132.535 137.858  0.00  0.00    +0.000 OA
ATOM     65  C   UNL     1     109.148 132.136 137.386  0.00  0.00    +0.000 C 
ENDBRANCH  62  65
ENDBRANCH  53  58
ENDBRANCH   6  53
TORSDOF 10
ENDMDL
MODEL 10
REMARK VINA RESULT:     -10.7      1.480      5.331
REMARK  Name = 131833356
REMARK  10 active torsions:
REMARK  status: ('A' for Active; 'I' for Inactive)
REMARK    1  A    between atoms: O_3  and  C_36
REMARK    2  A    between atoms: O_3  and  C_43
REMARK    3  A    between atoms: O_4  and  C_40
REMARK    4  A    between atoms: O_4  and  C_50
REMARK    5  A    between atoms: C_27  and  C_30
REMARK    6  A    between atoms: C_28  and  C_32
REMARK    7  A    between atoms: C_37  and  C_46
REMARK    8  A    between atoms: C_39  and  C_48
REMARK    9  A    between atoms: C_55  and  C_59
REMARK   10  A    between atoms: C_57  and  C_60
REMARK                            x       y       z     vdW  Elec       q    Type
REMARK                         _______ _______ _______ _____ _____    ______ ____
ROOT
ATOM      1  O   UNL     1     110.376 129.525 137.759  0.00  0.00    +0.000 OA
ATOM      2  O   UNL     1     111.987 127.975 136.639  0.00  0.00    +0.000 OA
ATOM      3  C   UNL     1     111.929 128.349 139.340  0.00  0.00    +0.000 A 
ATOM      4  C   UNL     1     110.857 129.263 139.104  0.00  0.00    +0.000 A 
ATOM      5  C   UNL     1     111.365 128.879 139.627  0.00  0.00    +0.000 A 
ATOM      6  C   UNL     1     111.983 128.204 138.530  0.00  0.00    +0.000 A 
ATOM      7  C   UNL     1     110.911 129.118 138.294  0.00  0.00    +0.000 A 
ATOM      8  C   UNL     1     111.475 128.589 138.007  0.00  0.00    +0.000 A 
ATOM      9  C   UNL     1     111.542 128.429 137.165  0.00  0.00    +0.000 A 
ATOM     10  C   UNL     1     110.428 129.379 136.913  0.00  0.00    +0.000 A 
ATOM     11  C   UNL     1     111.015 128.827 136.615  0.00  0.00    +0.000 A 
ENDROOT
BRANCH   3  16
ATOM     12  O   UNL     1     112.177 127.300 140.279  0.00  0.00    +0.000 OA
ATOM     13  O   UNL     1     113.465 128.907 139.557  0.00  0.00    +0.000 OA
ATOM     14  O   UNL     1     114.483 128.139 140.604  0.00  0.00    +0.000 OA
ATOM     15  O   UNL     1     113.962 126.811 141.435  0.00  0.00    +0.000 OA
ATOM     16  C   UNL     1     112.437 127.964 139.864  0.00  0.00    +0.000 C 
ATOM     17  C   UNL     1     113.205 128.243 139.973  0.00  0.00    +0.000 C 
ATOM     18  C   UNL     1     113.714 127.859 140.496  0.00  0.00    +0.000 C 
ATOM     19  C   UNL     1     113.454 127.195 140.911  0.00  0.00    +0.000 C 
ATOM     20  C   UNL     1     112.685 126.915 140.803  0.00  0.00    +0.000 C 
BRANCH  20  22
ATOM     21  O   UNL     1     111.643 125.999 141.146  0.00  0.00    +0.000 OA
ATOM     22  C   UNL     1     112.425 126.252 141.218  0.00  0.00    +0.000 C 
ENDBRANCH  20  22
ENDBRANCH   3  16
BRANCH   4  27
ATOM     23  O   UNL     1     110.474 130.596 139.453  0.00  0.00    +0.000 OA
ATOM     24  O   UNL     1     109.366 128.718 139.556  0.00  0.00    +0.000 OA
ATOM     25  O   UNL     1     108.239 129.776 140.130  0.00  0.00    +0.000 OA
ATOM     26  O   UNL     1     108.602 131.382 140.253  0.00  0.00    +0.000 OA
ATOM     27  C   UNL     1     110.293 129.793 139.391  0.00  0.00    +0.000 C 
ATOM     28  C   UNL     1     109.547 129.520 139.617  0.00  0.00    +0.000 C 
ATOM     29  C   UNL     1     108.984 130.049 139.904  0.00  0.00    +0.000 C 
ATOM     30  C   UNL     1     109.165 130.852 139.966  0.00  0.00    +0.000 C 
ATOM     31  C   UNL     1     109.910 131.124 139.740  0.00  0.00    +0.000 C 
BRANCH  31  33
ATOM     32  O   UNL     1     110.527 132.299 139.208  0.00  0.00    +0.000 OA
ATOM     33  C   UNL     1     110.091 131.927 139.802  0.00  0.00    +0.000 C 
ENDBRANCH  31  33
ENDBRANCH   4  27
BRANCH  10  36
ATOM     34  O   UNL     1     107.902 129.542 135.588  0.00  0.00    +0.000 OA
ATOM     35  O   UNL     1     108.390 130.924 134.829  0.00  0.00    +0.000 OA
ATOM     36  C   UNL     1     109.919 129.765 136.392  0.00  0.00    +0.000 A 
ATOM     37  C   UNL     1     109.165 129.460 136.251  0.00  0.00    +0.000 A 
ATOM     38  C   UNL     1     110.162 130.456 136.013  0.00  0.00    +0.000 A 
ATOM     39  C   UNL     1     108.655 129.847 135.730  0.00  0.00    +0.000 A 
ATOM     40  C   UNL     1     109.653 130.842 135.492  0.00  0.00    +0.000 A 
ATOM     41  C   UNL     1     108.899 130.537 135.351  0.00  0.00    +0.000 A 
ENDBRANCH  10  36
BRANCH   5  42
ATOM     42  O   UNL     1     111.310 129.024 140.438  0.00  0.00    +0.000 OA
BRANCH  42  47
ATOM     43  O   UNL     1     111.990 129.985 141.247  0.00  0.00    +0.000 OA
ATOM     44  O   UNL     1     110.500 128.477 141.767  0.00  0.00    +0.000 OA
ATOM     45  O   UNL     1     110.775 129.166 143.241  0.00  0.00    +0.000 OA
ATOM     46  O   UNL     1     111.860 130.401 143.385  0.00  0.00    +0.000 OA
ATOM     47  C   UNL     1     111.447 129.368 141.175  0.00  0.00    +0.000 C 
ATOM     48  C   UNL     1     111.043 129.095 141.840  0.00  0.00    +0.000 C 
ATOM     49  C   UNL     1     111.180 129.439 142.576  0.00  0.00    +0.000 C 
ATOM     50  C   UNL     1     111.723 130.057 142.649  0.00  0.00    +0.000 C 
ATOM     51  C   UNL     1     112.127 130.330 141.984  0.00  0.00    +0.000 C 
ATOM     52  C   UNL     1     112.670 130.947 142.055  0.00  0.00    +0.000 C 
ENDBRANCH  42  47
ENDBRANCH   5  42
BRANCH   6  53
ATOM     53  O   UNL     1     112.547 127.674 138.244  0.00  0.00    +0.000 OA
BRANCH  53  58
ATOM     54  O   UNL     1     111.951 126.398 137.997  0.00  0.00    +0.000 OA
ATOM     55  O   UNL     1     113.942 127.159 137.529  0.00  0.00    +0.000 OA
ATOM     56  O   UNL     1     114.044 125.627 136.925  0.00  0.00    +0.000 OA
ATOM     57  O   UNL     1     112.750 124.610 137.036  0.00  0.00    +0.000 OA
ATOM     58  C   UNL     1     112.598 126.907 137.942  0.00  0.00    +0.000 C 
ATOM     59  C   UNL     1     113.295 126.651 137.584  0.00  0.00    +0.000 C 
ATOM     60  C   UNL     1     113.346 125.884 137.282  0.00  0.00    +0.000 C 
ATOM     61  C   UNL     1     112.699 125.375 137.338  0.00  0.00    +0.000 C 
ATOM     62  C   UNL     1     112.001 125.633 137.695  0.00  0.00    +0.000 C 
BRANCH  62  65
ATOM     63  O   UNL     1     111.265 124.640 138.412  0.00  0.00    +0.000 OA
ATOM     64  O   UNL     1     110.795 125.099 137.143  0.00  0.00    +0.000 OA
ATOM     65  C   UNL     1     111.354 125.124 137.751  0.00  0.00    +0.000 C 
ENDBRANCH  62  65
ENDBRANCH  53  58
ENDBRANCH   6  53
TORSDOF 10
ENDMDL
