MODEL 1
REMARK VINA RESULT:     -10.0      0.000      0.000
REMARK  Name = 42608114
REMARK  3 active torsions:
REMARK  status: ('A' for Active; 'I' for Inactive)
REMARK    1  A    between atoms: O_2  and  C_15
REMARK    2  A    between atoms: O_2  and  C_17
REMARK    3  A    between atoms: C_18  and  C_26
REMARK                            x       y       z     vdW  Elec       q    Type
REMARK                         _______ _______ _______ _____ _____    ______ ____
ROOT
ATOM      1  O   UNL     1     104.747 124.194 139.065  0.00  0.00    +0.000 OA
ATOM      2  O   UNL     1     105.965 125.304 139.230  0.00  0.00    +0.000 OA
ATOM      3  O   UNL     1     105.173 123.420 141.821  0.00  0.00    +0.000 OA
ATOM      4  O   UNL     1     104.145 122.753 141.059  0.00  0.00    +0.000 OA
ATOM      5  C   UNL     1     106.173 124.920 140.591  0.00  0.00    +0.000 A 
ATOM      6  C   UNL     1     104.117 123.615 138.991  0.00  0.00    +0.000 C 
ATOM      7  C   UNL     1     105.162 124.275 139.813  0.00  0.00    +0.000 A 
ATOM      8  C   UNL     1     103.910 123.124 139.666  0.00  0.00    +0.000 C 
ATOM      9  C   UNL     1     104.965 123.804 140.461  0.00  0.00    +0.000 A 
ATOM     10  C   UNL     1     105.767 124.832 139.878  0.00  0.00    +0.000 A 
ATOM     11  C   UNL     1     104.337 123.220 140.405  0.00  0.00    +0.000 C 
ATOM     12  C   UNL     1     105.975 124.448 141.239  0.00  0.00    +0.000 A 
ATOM     13  C   UNL     1     105.371 123.890 141.174  0.00  0.00    +0.000 A 
ENDROOT
BRANCH   6  15
ATOM     14  O   UNL     1     102.497 123.277 136.136  0.00  0.00    +0.000 OA
ATOM     15  C   UNL     1     103.712 123.531 138.277  0.00  0.00    +0.000 A 
ATOM     16  C   UNL     1     104.102 123.231 137.615  0.00  0.00    +0.000 A 
ATOM     17  C   UNL     1     102.917 123.745 138.225  0.00  0.00    +0.000 A 
ATOM     18  C   UNL     1     103.697 123.147 136.901  0.00  0.00    +0.000 A 
ATOM     19  C   UNL     1     102.512 123.661 137.512  0.00  0.00    +0.000 A 
ATOM     20  C   UNL     1     102.902 123.362 136.850  0.00  0.00    +0.000 A 
ENDBRANCH   6  15
BRANCH   5  21
ATOM     21  O   UNL     1     106.778 125.477 140.656  0.00  0.00    +0.000 OA
BRANCH  21  30
ATOM     22  O   UNL     1     106.057 126.488 141.364  0.00  0.00    +0.000 OA
ATOM     23  O   UNL     1     108.037 126.899 142.792  0.00  0.00    +0.000 OA
ATOM     24  O   UNL     1     106.656 127.772 143.024  0.00  0.00    +0.000 OA
ATOM     25  O   UNL     1     108.098 125.752 141.608  0.00  0.00    +0.000 OA
ATOM     26  C   UNL     1     107.377 126.762 142.316  0.00  0.00    +0.000 C 
ATOM     27  C   UNL     1     106.686 127.198 142.432  0.00  0.00    +0.000 C 
ATOM     28  C   UNL     1     107.407 126.189 141.724  0.00  0.00    +0.000 C 
ATOM     29  C   UNL     1     106.027 127.061 141.956  0.00  0.00    +0.000 C 
ATOM     30  C   UNL     1     106.747 126.051 141.248  0.00  0.00    +0.000 C 
ATOM     31  C   UNL     1     105.336 127.498 142.073  0.00  0.00    +0.000 C 
ENDBRANCH  21  30
ENDBRANCH   5  21
TORSDOF 3
ENDMDL
MODEL 2
REMARK VINA RESULT:      -9.9      4.351      6.323
REMARK  Name = 42608114
REMARK  3 active torsions:
REMARK  status: ('A' for Active; 'I' for Inactive)
REMARK    1  A    between atoms: O_2  and  C_15
REMARK    2  A    between atoms: O_2  and  C_17
REMARK    3  A    between atoms: C_18  and  C_26
REMARK                            x       y       z     vdW  Elec       q    Type
REMARK                         _______ _______ _______ _____ _____    ______ ____
ROOT
ATOM      1  O   UNL     1     103.130 130.310 142.230  0.00  0.00    +0.000 OA
ATOM      2  O   UNL     1     104.066 129.725 143.465  0.00  0.00    +0.000 OA
ATOM      3  O   UNL     1     103.988 128.071 140.610  0.00  0.00    +0.000 OA
ATOM      4  O   UNL     1     103.076 129.035 140.043  0.00  0.00    +0.000 OA
ATOM      5  C   UNL     1     104.488 128.620 142.663  0.00  0.00    +0.000 A 
ATOM      6  C   UNL     1     102.648 130.605 141.583  0.00  0.00    +0.000 C 
ATOM      7  C   UNL     1     103.585 129.589 142.125  0.00  0.00    +0.000 A 
ATOM      8  C   UNL     1     102.627 130.174 140.839  0.00  0.00    +0.000 C 
ATOM      9  C   UNL     1     103.566 129.176 141.412  0.00  0.00    +0.000 A 
ATOM     10  C   UNL     1     104.046 129.311 142.751  0.00  0.00    +0.000 A 
ATOM     11  C   UNL     1     103.090 129.455 140.754  0.00  0.00    +0.000 C 
ATOM     12  C   UNL     1     104.469 128.206 141.948  0.00  0.00    +0.000 A 
ATOM     13  C   UNL     1     104.008 128.484 141.323  0.00  0.00    +0.000 A 
ENDROOT
BRANCH   6  15
ATOM     14  O   UNL     1     100.884 133.370 141.948  0.00  0.00    +0.000 OA
ATOM     15  C   UNL     1     102.207 131.296 141.675  0.00  0.00    +0.000 A 
ATOM     16  C   UNL     1     102.546 132.028 141.501  0.00  0.00    +0.000 A 
ATOM     17  C   UNL     1     101.427 131.256 141.940  0.00  0.00    +0.000 A 
ATOM     18  C   UNL     1     102.106 132.719 141.592  0.00  0.00    +0.000 A 
ATOM     19  C   UNL     1     100.986 131.947 142.031  0.00  0.00    +0.000 A 
ATOM     20  C   UNL     1     101.325 132.678 141.857  0.00  0.00    +0.000 A 
ENDBRANCH   6  15
BRANCH   5  21
ATOM     21  O   UNL     1     104.949 128.342 143.288  0.00  0.00    +0.000 OA
BRANCH  21  30
ATOM     22  O   UNL     1     106.246 128.628 142.761  0.00  0.00    +0.000 OA
ATOM     23  O   UNL     1     107.051 126.423 143.544  0.00  0.00    +0.000 OA
ATOM     24  O   UNL     1     108.080 127.444 142.756  0.00  0.00    +0.000 OA
ATOM     25  O   UNL     1     105.486 126.872 143.810  0.00  0.00    +0.000 OA
ATOM     26  C   UNL     1     106.783 127.158 143.283  0.00  0.00    +0.000 C 
ATOM     27  C   UNL     1     107.297 127.669 142.889  0.00  0.00    +0.000 C 
ATOM     28  C   UNL     1     106.001 127.383 143.416  0.00  0.00    +0.000 C 
ATOM     29  C   UNL     1     107.029 128.404 142.628  0.00  0.00    +0.000 C 
ATOM     30  C   UNL     1     105.732 128.118 143.155  0.00  0.00    +0.000 C 
ATOM     31  C   UNL     1     107.544 128.914 142.233  0.00  0.00    +0.000 C 
ENDBRANCH  21  30
ENDBRANCH   5  21
TORSDOF 3
ENDMDL
MODEL 3
REMARK VINA RESULT:      -9.7      7.487     10.017
REMARK  Name = 42608114
REMARK  3 active torsions:
REMARK  status: ('A' for Active; 'I' for Inactive)
REMARK    1  A    between atoms: O_2  and  C_15
REMARK    2  A    between atoms: O_2  and  C_17
REMARK    3  A    between atoms: C_18  and  C_26
REMARK                            x       y       z     vdW  Elec       q    Type
REMARK                         _______ _______ _______ _____ _____    ______ ____
ROOT
ATOM      1  O   UNL     1     113.493 128.612 139.631  0.00  0.00    +0.000 OA
ATOM      2  O   UNL     1     113.139 128.184 138.071  0.00  0.00    +0.000 OA
ATOM      3  O   UNL     1     112.271 126.142 140.514  0.00  0.00    +0.000 OA
ATOM      4  O   UNL     1     112.823 127.040 141.499  0.00  0.00    +0.000 OA
ATOM      5  C   UNL     1     112.536 126.965 138.509  0.00  0.00    +0.000 A 
ATOM      6  C   UNL     1     113.672 128.825 140.444  0.00  0.00    +0.000 C 
ATOM      7  C   UNL     1     113.091 127.871 139.465  0.00  0.00    +0.000 A 
ATOM      8  C   UNL     1     113.446 128.292 141.081  0.00  0.00    +0.000 C 
ATOM      9  C   UNL     1     112.874 127.361 140.075  0.00  0.00    +0.000 A 
ATOM     10  C   UNL     1     112.922 127.673 138.682  0.00  0.00    +0.000 A 
ATOM     11  C   UNL     1     113.044 127.556 140.894  0.00  0.00    +0.000 C 
ATOM     12  C   UNL     1     112.319 126.454 139.121  0.00  0.00    +0.000 A 
ATOM     13  C   UNL     1     112.488 126.652 139.904  0.00  0.00    +0.000 A 
ENDROOT
BRANCH   6  15
ATOM     14  O   UNL     1     115.217 131.661 141.120  0.00  0.00    +0.000 OA
ATOM     15  C   UNL     1     114.058 129.534 140.613  0.00  0.00    +0.000 A 
ATOM     16  C   UNL     1     113.647 130.152 140.973  0.00  0.00    +0.000 A 
ATOM     17  C   UNL     1     114.855 129.626 140.422  0.00  0.00    +0.000 A 
ATOM     18  C   UNL     1     114.033 130.861 141.143  0.00  0.00    +0.000 A 
ATOM     19  C   UNL     1     115.242 130.334 140.591  0.00  0.00    +0.000 A 
ATOM     20  C   UNL     1     114.831 130.952 140.951  0.00  0.00    +0.000 A 
ENDBRANCH   6  15
BRANCH   5  21
ATOM     21  O   UNL     1     112.367 126.767 137.727  0.00  0.00    +0.000 OA
BRANCH  21  30
ATOM     22  O   UNL     1     113.407 125.808 137.519  0.00  0.00    +0.000 OA
ATOM     23  O   UNL     1     111.821 124.351 136.300  0.00  0.00    +0.000 OA
ATOM     24  O   UNL     1     113.389 123.879 136.499  0.00  0.00    +0.000 OA
ATOM     25  O   UNL     1     111.310 125.795 136.914  0.00  0.00    +0.000 OA
ATOM     26  C   UNL     1     112.350 124.837 136.707  0.00  0.00    +0.000 C 
ATOM     27  C   UNL     1     113.134 124.601 136.806  0.00  0.00    +0.000 C 
ATOM     28  C   UNL     1     112.095 125.559 137.014  0.00  0.00    +0.000 C 
ATOM     29  C   UNL     1     113.662 125.087 137.213  0.00  0.00    +0.000 C 
ATOM     30  C   UNL     1     112.623 126.045 137.420  0.00  0.00    +0.000 C 
ATOM     31  C   UNL     1     114.447 124.850 137.312  0.00  0.00    +0.000 C 
ENDBRANCH  21  30
ENDBRANCH   5  21
TORSDOF 3
ENDMDL
MODEL 4
REMARK VINA RESULT:      -9.6      7.451      9.256
REMARK  Name = 42608114
REMARK  3 active torsions:
REMARK  status: ('A' for Active; 'I' for Inactive)
REMARK    1  A    between atoms: O_2  and  C_15
REMARK    2  A    between atoms: O_2  and  C_17
REMARK    3  A    between atoms: C_18  and  C_26
REMARK                            x       y       z     vdW  Elec       q    Type
REMARK                         _______ _______ _______ _____ _____    ______ ____
ROOT
ATOM      1  O   UNL     1     112.518 126.990 136.464  0.00  0.00    +0.000 OA
ATOM      2  O   UNL     1     110.867 127.042 136.343  0.00  0.00    +0.000 OA
ATOM      3  O   UNL     1     112.609 129.701 135.456  0.00  0.00    +0.000 OA
ATOM      4  O   UNL     1     113.847 129.035 135.781  0.00  0.00    +0.000 OA
ATOM      5  C   UNL     1     110.915 128.381 135.845  0.00  0.00    +0.000 A 
ATOM      6  C   UNL     1     113.375 126.974 136.523  0.00  0.00    +0.000 C 
ATOM      7  C   UNL     1     112.126 127.698 136.175  0.00  0.00    +0.000 A 
ATOM      8  C   UNL     1     113.829 127.667 136.291  0.00  0.00    +0.000 C 
ATOM      9  C   UNL     1     112.561 128.362 135.953  0.00  0.00    +0.000 A 
ATOM     10  C   UNL     1     111.303 127.707 136.121  0.00  0.00    +0.000 A 
ATOM     11  C   UNL     1     113.419 128.365 136.005  0.00  0.00    +0.000 C 
ATOM     12  C   UNL     1     111.351 129.046 135.623  0.00  0.00    +0.000 A 
ATOM     13  C   UNL     1     112.174 129.037 135.677  0.00  0.00    +0.000 A 
ENDROOT
BRANCH   6  15
ATOM     14  O   UNL     1     114.916 124.273 137.626  0.00  0.00    +0.000 OA
ATOM     15  C   UNL     1     113.760 126.298 136.799  0.00  0.00    +0.000 A 
ATOM     16  C   UNL     1     113.781 126.137 137.607  0.00  0.00    +0.000 A 
ATOM     17  C   UNL     1     114.125 125.785 136.266  0.00  0.00    +0.000 A 
ATOM     18  C   UNL     1     114.166 125.461 137.884  0.00  0.00    +0.000 A 
ATOM     19  C   UNL     1     114.511 125.110 136.541  0.00  0.00    +0.000 A 
ATOM     20  C   UNL     1     114.531 124.948 137.350  0.00  0.00    +0.000 A 
ENDBRANCH   6  15
BRANCH   5  21
ATOM     21  O   UNL     1     110.092 128.390 135.791  0.00  0.00    +0.000 OA
BRANCH  21  30
ATOM     22  O   UNL     1     109.812 129.183 136.946  0.00  0.00    +0.000 OA
ATOM     23  O   UNL     1     108.067 130.405 135.684  0.00  0.00    +0.000 OA
ATOM     24  O   UNL     1     108.369 130.791 137.260  0.00  0.00    +0.000 OA
ATOM     25  O   UNL     1     108.929 129.204 134.950  0.00  0.00    +0.000 OA
ATOM     26  C   UNL     1     108.649 129.997 136.105  0.00  0.00    +0.000 C 
ATOM     27  C   UNL     1     108.800 130.190 136.893  0.00  0.00    +0.000 C 
ATOM     28  C   UNL     1     109.080 129.397 135.738  0.00  0.00    +0.000 C 
ATOM     29  C   UNL     1     109.381 129.783 137.313  0.00  0.00    +0.000 C 
ATOM     30  C   UNL     1     109.661 128.990 136.159  0.00  0.00    +0.000 C 
ATOM     31  C   UNL     1     109.532 129.976 138.101  0.00  0.00    +0.000 C 
ENDBRANCH  21  30
ENDBRANCH   5  21
TORSDOF 3
ENDMDL
MODEL 5
REMARK VINA RESULT:      -9.6      3.764      7.077
REMARK  Name = 42608114
REMARK  3 active torsions:
REMARK  status: ('A' for Active; 'I' for Inactive)
REMARK    1  A    between atoms: O_2  and  C_15
REMARK    2  A    between atoms: O_2  and  C_17
REMARK    3  A    between atoms: C_18  and  C_26
REMARK                            x       y       z     vdW  Elec       q    Type
REMARK                         _______ _______ _______ _____ _____    ______ ____
ROOT
ATOM      1  O   UNL     1     106.613 125.045 146.054  0.00  0.00    +0.000 OA
ATOM      2  O   UNL     1     106.441 124.126 144.686  0.00  0.00    +0.000 OA
ATOM      3  O   UNL     1     105.475 127.281 144.611  0.00  0.00    +0.000 OA
ATOM      4  O   UNL     1     105.869 127.465 145.987  0.00  0.00    +0.000 OA
ATOM      5  C   UNL     1     105.880 125.232 143.977  0.00  0.00    +0.000 A 
ATOM      6  C   UNL     1     106.697 125.531 146.758  0.00  0.00    +0.000 C 
ATOM      7  C   UNL     1     106.278 125.387 145.340  0.00  0.00    +0.000 A 
ATOM      8  C   UNL     1     106.445 126.353 146.738  0.00  0.00    +0.000 C 
ATOM      9  C   UNL     1     106.036 126.175 145.321  0.00  0.00    +0.000 A 
ATOM     10  C   UNL     1     106.199 124.916 144.668  0.00  0.00    +0.000 A 
ATOM     11  C   UNL     1     106.113 126.676 146.015  0.00  0.00    +0.000 C 
ATOM     12  C   UNL     1     105.638 126.021 143.958  0.00  0.00    +0.000 A 
ATOM     13  C   UNL     1     105.716 126.493 144.630  0.00  0.00    +0.000 A 
ENDROOT
BRANCH   6  15
ATOM     14  O   UNL     1     107.979 124.252 149.516  0.00  0.00    +0.000 OA
ATOM     15  C   UNL     1     107.018 125.211 147.448  0.00  0.00    +0.000 A 
ATOM     16  C   UNL     1     106.525 124.850 148.002  0.00  0.00    +0.000 A 
ATOM     17  C   UNL     1     107.830 125.252 147.582  0.00  0.00    +0.000 A 
ATOM     18  C   UNL     1     106.845 124.530 148.692  0.00  0.00    +0.000 A 
ATOM     19  C   UNL     1     108.151 124.933 148.272  0.00  0.00    +0.000 A 
ATOM     20  C   UNL     1     107.659 124.572 148.827  0.00  0.00    +0.000 A 
ENDBRANCH   6  15
BRANCH   5  21
ATOM     21  O   UNL     1     105.801 124.761 143.304  0.00  0.00    +0.000 OA
BRANCH  21  30
ATOM     22  O   UNL     1     106.811 125.434 142.551  0.00  0.00    +0.000 OA
ATOM     23  O   UNL     1     105.555 124.986 140.466  0.00  0.00    +0.000 OA
ATOM     24  O   UNL     1     106.984 125.809 140.407  0.00  0.00    +0.000 OA
ATOM     25  O   UNL     1     104.964 124.462 141.914  0.00  0.00    +0.000 OA
ATOM     26  C   UNL     1     105.974 125.135 141.161  0.00  0.00    +0.000 C 
ATOM     27  C   UNL     1     106.688 125.547 141.132  0.00  0.00    +0.000 C 
ATOM     28  C   UNL     1     105.679 124.874 141.885  0.00  0.00    +0.000 C 
ATOM     29  C   UNL     1     107.107 125.696 141.827  0.00  0.00    +0.000 C 
ATOM     30  C   UNL     1     106.098 125.023 142.580  0.00  0.00    +0.000 C 
ATOM     31  C   UNL     1     107.822 126.107 141.797  0.00  0.00    +0.000 C 
ENDBRANCH  21  30
ENDBRANCH   5  21
TORSDOF 3
ENDMDL
MODEL 6
REMARK VINA RESULT:      -9.5      7.053      8.075
REMARK  Name = 42608114
REMARK  3 active torsions:
REMARK  status: ('A' for Active; 'I' for Inactive)
REMARK    1  A    between atoms: O_2  and  C_15
REMARK    2  A    between atoms: O_2  and  C_17
REMARK    3  A    between atoms: C_18  and  C_26
REMARK                            x       y       z     vdW  Elec       q    Type
REMARK                         _______ _______ _______ _____ _____    ______ ____
ROOT
ATOM      1  O   UNL     1     110.347 128.157 135.958  0.00  0.00    +0.000 OA
ATOM      2  O   UNL     1     111.281 129.511 136.157  0.00  0.00    +0.000 OA
ATOM      3  O   UNL     1     108.013 129.866 135.873  0.00  0.00    +0.000 OA
ATOM      4  O   UNL     1     107.840 128.439 135.741  0.00  0.00    +0.000 OA
ATOM      5  C   UNL     1     110.127 130.352 136.115  0.00  0.00    +0.000 A 
ATOM      6  C   UNL     1     109.853 127.462 135.854  0.00  0.00    +0.000 C 
ATOM      7  C   UNL     1     109.984 128.936 135.986  0.00  0.00    +0.000 A 
ATOM      8  C   UNL     1     109.001 127.555 135.780  0.00  0.00    +0.000 C 
ATOM      9  C   UNL     1     109.167 129.025 135.915  0.00  0.00    +0.000 A 
ATOM     10  C   UNL     1     110.464 129.599 136.086  0.00  0.00    +0.000 A 
ATOM     11  C   UNL     1     108.657 128.341 135.811  0.00  0.00    +0.000 C 
ATOM     12  C   UNL     1     109.309 130.440 136.044  0.00  0.00    +0.000 A 
ATOM     13  C   UNL     1     108.829 129.777 135.944  0.00  0.00    +0.000 A 
ENDROOT
BRANCH   6  15
ATOM     14  O   UNL     1     111.213 124.458 135.739  0.00  0.00    +0.000 OA
ATOM     15  C   UNL     1     110.193 126.711 135.825  0.00  0.00    +0.000 A 
ATOM     16  C   UNL     1     110.407 126.328 136.524  0.00  0.00    +0.000 A 
ATOM     17  C   UNL     1     110.319 126.342 135.098  0.00  0.00    +0.000 A 
ATOM     18  C   UNL     1     110.747 125.577 136.496  0.00  0.00    +0.000 A 
ATOM     19  C   UNL     1     110.658 125.592 135.069  0.00  0.00    +0.000 A 
ATOM     20  C   UNL     1     110.873 125.209 135.768  0.00  0.00    +0.000 A 
ENDBRANCH   6  15
BRANCH   5  21
ATOM     21  O   UNL     1     110.607 131.015 136.215  0.00  0.00    +0.000 OA
BRANCH  21  30
ATOM     22  O   UNL     1     110.390 131.212 137.613  0.00  0.00    +0.000 OA
ATOM     23  O   UNL     1     110.297 133.659 137.256  0.00  0.00    +0.000 OA
ATOM     24  O   UNL     1     110.111 133.039 138.774  0.00  0.00    +0.000 OA
ATOM     25  O   UNL     1     110.545 132.647 135.976  0.00  0.00    +0.000 OA
ATOM     26  C   UNL     1     110.328 132.843 137.375  0.00  0.00    +0.000 C 
ATOM     27  C   UNL     1     110.235 132.533 138.134  0.00  0.00    +0.000 C 
ATOM     28  C   UNL     1     110.452 132.337 136.736  0.00  0.00    +0.000 C 
ATOM     29  C   UNL     1     110.266 131.717 138.253  0.00  0.00    +0.000 C 
ATOM     30  C   UNL     1     110.483 131.521 136.855  0.00  0.00    +0.000 C 
ATOM     31  C   UNL     1     110.173 131.408 139.012  0.00  0.00    +0.000 C 
ENDBRANCH  21  30
ENDBRANCH   5  21
TORSDOF 3
ENDMDL
MODEL 7
REMARK VINA RESULT:      -9.5      7.109      8.652
REMARK  Name = 42608114
REMARK  3 active torsions:
REMARK  status: ('A' for Active; 'I' for Inactive)
REMARK    1  A    between atoms: O_2  and  C_15
REMARK    2  A    between atoms: O_2  and  C_17
REMARK    3  A    between atoms: C_18  and  C_26
REMARK                            x       y       z     vdW  Elec       q    Type
REMARK                         _______ _______ _______ _____ _____    ______ ____
ROOT
ATOM      1  O   UNL     1     112.362 126.625 136.275  0.00  0.00    +0.000 OA
ATOM      2  O   UNL     1     112.120 128.250 136.063  0.00  0.00    +0.000 OA
ATOM      3  O   UNL     1     109.701 126.164 135.234  0.00  0.00    +0.000 OA
ATOM      4  O   UNL     1     110.500 125.032 135.636  0.00  0.00    +0.000 OA
ATOM      5  C   UNL     1     110.807 128.019 135.550  0.00  0.00    +0.000 A 
ATOM      6  C   UNL     1     112.476 125.780 136.381  0.00  0.00    +0.000 C 
ATOM      7  C   UNL     1     111.619 126.915 135.955  0.00  0.00    +0.000 A 
ATOM      8  C   UNL     1     111.845 125.237 136.164  0.00  0.00    +0.000 C 
ATOM      9  C   UNL     1     111.014 126.395 135.748  0.00  0.00    +0.000 A 
ATOM     10  C   UNL     1     111.515 127.728 135.856  0.00  0.00    +0.000 A 
ATOM     11  C   UNL     1     111.110 125.547 135.846  0.00  0.00    +0.000 C 
ATOM     12  C   UNL     1     110.201 127.497 135.342  0.00  0.00    +0.000 A 
ATOM     13  C   UNL     1     110.305 126.685 135.441  0.00  0.00    +0.000 A 
ENDROOT
BRANCH   6  15
ATOM     14  O   UNL     1     115.315 124.627 137.606  0.00  0.00    +0.000 OA
ATOM     15  C   UNL     1     113.186 125.492 136.687  0.00  0.00    +0.000 A 
ATOM     16  C   UNL     1     113.277 125.403 137.502  0.00  0.00    +0.000 A 
ATOM     17  C   UNL     1     113.804 125.292 136.179  0.00  0.00    +0.000 A 
ATOM     18  C   UNL     1     113.987 125.115 137.809  0.00  0.00    +0.000 A 
ATOM     19  C   UNL     1     114.514 125.004 136.484  0.00  0.00    +0.000 A 
ATOM     20  C   UNL     1     114.605 124.915 137.299  0.00  0.00    +0.000 A 
ENDBRANCH   6  15
BRANCH   5  21
ATOM     21  O   UNL     1     110.703 128.832 135.450  0.00  0.00    +0.000 OA
BRANCH  21  30
ATOM     22  O   UNL     1     110.009 129.132 136.663  0.00  0.00    +0.000 OA
ATOM     23  O   UNL     1     108.431 130.565 135.405  0.00  0.00    +0.000 OA
ATOM     24  O   UNL     1     108.264 130.388 137.037  0.00  0.00    +0.000 OA
ATOM     25  O   UNL     1     109.651 129.787 134.612  0.00  0.00    +0.000 OA
ATOM     26  C   UNL     1     108.957 130.088 135.825  0.00  0.00    +0.000 C 
ATOM     27  C   UNL     1     108.874 129.999 136.641  0.00  0.00    +0.000 C 
ATOM     28  C   UNL     1     109.567 129.698 135.429  0.00  0.00    +0.000 C 
ATOM     29  C   UNL     1     109.400 129.521 137.060  0.00  0.00    +0.000 C 
ATOM     30  C   UNL     1     110.093 129.221 135.848  0.00  0.00    +0.000 C 
ATOM     31  C   UNL     1     109.316 129.433 137.876  0.00  0.00    +0.000 C 
ENDBRANCH  21  30
ENDBRANCH   5  21
TORSDOF 3
ENDMDL
MODEL 8
REMARK VINA RESULT:      -9.3      8.383      9.323
REMARK  Name = 42608114
REMARK  3 active torsions:
REMARK  status: ('A' for Active; 'I' for Inactive)
REMARK    1  A    between atoms: O_2  and  C_15
REMARK    2  A    between atoms: O_2  and  C_17
REMARK    3  A    between atoms: C_18  and  C_26
REMARK                            x       y       z     vdW  Elec       q    Type
REMARK                         _______ _______ _______ _____ _____    ______ ____
ROOT
ATOM      1  O   UNL     1     113.191 127.197 138.190  0.00  0.00    +0.000 OA
ATOM      2  O   UNL     1     113.234 127.539 139.810  0.00  0.00    +0.000 OA
ATOM      3  O   UNL     1     112.681 130.000 137.681  0.00  0.00    +0.000 OA
ATOM      4  O   UNL     1     112.767 129.091 136.563  0.00  0.00    +0.000 OA
ATOM      5  C   UNL     1     112.982 128.923 139.556  0.00  0.00    +0.000 A 
ATOM      6  C   UNL     1     113.167 127.030 137.347  0.00  0.00    +0.000 C 
ATOM      7  C   UNL     1     113.071 128.001 138.467  0.00  0.00    +0.000 A 
ATOM      8  C   UNL     1     113.023 127.672 136.792  0.00  0.00    +0.000 C 
ATOM      9  C   UNL     1     112.933 128.616 137.935  0.00  0.00    +0.000 A 
ATOM     10  C   UNL     1     113.095 128.155 139.277  0.00  0.00    +0.000 A 
ATOM     11  C   UNL     1     112.906 128.469 137.089  0.00  0.00    +0.000 C 
ATOM     12  C   UNL     1     112.844 129.538 139.023  0.00  0.00    +0.000 A 
ATOM     13  C   UNL     1     112.819 129.385 138.213  0.00  0.00    +0.000 A 
ENDROOT
BRANCH   6  15
ATOM     14  O   UNL     1     113.623 123.953 136.246  0.00  0.00    +0.000 OA
ATOM     15  C   UNL     1     113.281 126.261 137.072  0.00  0.00    +0.000 A 
ATOM     16  C   UNL     1     114.044 125.986 136.921  0.00  0.00    +0.000 A 
ATOM     17  C   UNL     1     112.632 125.767 136.947  0.00  0.00    +0.000 A 
ATOM     18  C   UNL     1     114.158 125.216 136.646  0.00  0.00    +0.000 A 
ATOM     19  C   UNL     1     112.746 124.998 136.672  0.00  0.00    +0.000 A 
ATOM     20  C   UNL     1     113.509 124.723 136.521  0.00  0.00    +0.000 A 
ENDBRANCH   6  15
BRANCH   5  21
ATOM     21  O   UNL     1     113.006 129.076 140.366  0.00  0.00    +0.000 OA
BRANCH  21  30
ATOM     22  O   UNL     1     114.256 129.768 140.404  0.00  0.00    +0.000 OA
ATOM     23  O   UNL     1     113.312 131.381 142.027  0.00  0.00    +0.000 OA
ATOM     24  O   UNL     1     114.876 131.536 141.524  0.00  0.00    +0.000 OA
ATOM     25  O   UNL     1     112.377 130.151 141.448  0.00  0.00    +0.000 OA
ATOM     26  C   UNL     1     113.627 130.843 141.486  0.00  0.00    +0.000 C 
ATOM     27  C   UNL     1     114.409 130.920 141.234  0.00  0.00    +0.000 C 
ATOM     28  C   UNL     1     113.160 130.228 141.196  0.00  0.00    +0.000 C 
ATOM     29  C   UNL     1     114.723 130.383 140.693  0.00  0.00    +0.000 C 
ATOM     30  C   UNL     1     113.474 129.691 140.655  0.00  0.00    +0.000 C 
ATOM     31  C   UNL     1     115.505 130.460 140.442  0.00  0.00    +0.000 C 
ENDBRANCH  21  30
ENDBRANCH   5  21
TORSDOF 3
ENDMDL
MODEL 9
REMARK VINA RESULT:      -9.3      7.104      8.919
REMARK  Name = 42608114
REMARK  3 active torsions:
REMARK  status: ('A' for Active; 'I' for Inactive)
REMARK    1  A    between atoms: O_2  and  C_15
REMARK    2  A    between atoms: O_2  and  C_17
REMARK    3  A    between atoms: C_18  and  C_26
REMARK                            x       y       z     vdW  Elec       q    Type
REMARK                         _______ _______ _______ _____ _____    ______ ____
ROOT
ATOM      1  O   UNL     1     110.186 130.315 136.006  0.00  0.00    +0.000 OA
ATOM      2  O   UNL     1     111.264 129.116 135.625  0.00  0.00    +0.000 OA
ATOM      3  O   UNL     1     108.051 128.376 135.765  0.00  0.00    +0.000 OA
ATOM      4  O   UNL     1     107.722 129.737 136.111  0.00  0.00    +0.000 OA
ATOM      5  C   UNL     1     110.208 128.161 135.507  0.00  0.00    +0.000 A 
ATOM      6  C   UNL     1     109.618 130.929 136.203  0.00  0.00    +0.000 C 
ATOM      7  C   UNL     1     109.910 129.516 135.849  0.00  0.00    +0.000 A 
ATOM      8  C   UNL     1     108.781 130.735 136.239  0.00  0.00    +0.000 C 
ATOM      9  C   UNL     1     109.107 129.331 135.883  0.00  0.00    +0.000 A 
ATOM     10  C   UNL     1     110.460 128.931 135.660  0.00  0.00    +0.000 A 
ATOM     11  C   UNL     1     108.525 129.931 136.078  0.00  0.00    +0.000 C 
ATOM     12  C   UNL     1     109.404 127.976 135.542  0.00  0.00    +0.000 A 
ATOM     13  C   UNL     1     108.854 128.561 135.730  0.00  0.00    +0.000 A 
ENDROOT
BRANCH   6  15
ATOM     14  O   UNL     1     110.640 134.006 136.814  0.00  0.00    +0.000 OA
ATOM     15  C   UNL     1     109.874 131.698 136.356  0.00  0.00    +0.000 A 
ATOM     16  C   UNL     1     110.265 131.870 137.061  0.00  0.00    +0.000 A 
ATOM     17  C   UNL     1     109.738 132.295 135.803  0.00  0.00    +0.000 A 
ATOM     18  C   UNL     1     110.520 132.640 137.214  0.00  0.00    +0.000 A 
ATOM     19  C   UNL     1     109.993 133.064 135.955  0.00  0.00    +0.000 A 
ATOM     20  C   UNL     1     110.384 133.237 136.661  0.00  0.00    +0.000 A 
ENDBRANCH   6  15
BRANCH   5  21
ATOM     21  O   UNL     1     110.759 127.576 135.319  0.00  0.00    +0.000 OA
BRANCH  21  30
ATOM     22  O   UNL     1     110.885 126.980 136.611  0.00  0.00    +0.000 OA
ATOM     23  O   UNL     1     110.898 124.733 135.574  0.00  0.00    +0.000 OA
ATOM     24  O   UNL     1     111.020 124.886 137.213  0.00  0.00    +0.000 OA
ATOM     25  O   UNL     1     110.767 126.078 134.627  0.00  0.00    +0.000 OA
ATOM     26  C   UNL     1     110.893 125.482 135.920  0.00  0.00    +0.000 C 
ATOM     27  C   UNL     1     110.954 125.559 136.739  0.00  0.00    +0.000 C 
ATOM     28  C   UNL     1     110.828 126.155 135.447  0.00  0.00    +0.000 C 
ATOM     29  C   UNL     1     110.950 126.308 137.085  0.00  0.00    +0.000 C 
ATOM     30  C   UNL     1     110.824 126.904 135.793  0.00  0.00    +0.000 C 
ATOM     31  C   UNL     1     111.011 126.384 137.904  0.00  0.00    +0.000 C 
ENDBRANCH  21  30
ENDBRANCH   5  21
TORSDOF 3
ENDMDL
MODEL 10
REMARK VINA RESULT:      -9.2      8.320      9.633
REMARK  Name = 42608114
REMARK  3 active torsions:
REMARK  status: ('A' for Active; 'I' for Inactive)
REMARK    1  A    between atoms: O_2  and  C_15
REMARK    2  A    between atoms: O_2  and  C_17
REMARK    3  A    between atoms: C_18  and  C_26
REMARK                            x       y       z     vdW  Elec       q    Type
REMARK                         _______ _______ _______ _____ _____    ______ ____
ROOT
ATOM      1  O   UNL     1     112.483 126.571 136.680  0.00  0.00    +0.000 OA
ATOM      2  O   UNL     1     113.495 127.713 137.326  0.00  0.00    +0.000 OA
ATOM      3  O   UNL     1     111.349 128.631 134.993  0.00  0.00    +0.000 OA
ATOM      4  O   UNL     1     110.840 127.285 134.891  0.00  0.00    +0.000 OA
ATOM      5  C   UNL     1     112.933 128.728 136.492  0.00  0.00    +0.000 A 
ATOM      6  C   UNL     1     111.954 125.987 136.339  0.00  0.00    +0.000 C 
ATOM      7  C   UNL     1     112.447 127.386 136.410  0.00  0.00    +0.000 A 
ATOM      8  C   UNL     1     111.394 126.227 135.731  0.00  0.00    +0.000 C 
ATOM      9  C   UNL     1     111.911 127.616 135.827  0.00  0.00    +0.000 A 
ATOM     10  C   UNL     1     112.958 127.942 136.742  0.00  0.00    +0.000 A 
ATOM     11  C   UNL     1     111.374 127.046 135.474  0.00  0.00    +0.000 C 
ATOM     12  C   UNL     1     112.396 128.957 135.908  0.00  0.00    +0.000 A 
ATOM     13  C   UNL     1     111.885 128.401 135.576  0.00  0.00    +0.000 A 
ENDROOT
BRANCH   6  15
ATOM     14  O   UNL     1     112.063 122.849 137.351  0.00  0.00    +0.000 OA
ATOM     15  C   UNL     1     111.981 125.202 136.592  0.00  0.00    +0.000 A 
ATOM     16  C   UNL     1     112.440 124.653 136.182  0.00  0.00    +0.000 A 
ATOM     17  C   UNL     1     111.549 124.967 137.254  0.00  0.00    +0.000 A 
ATOM     18  C   UNL     1     112.468 123.868 136.435  0.00  0.00    +0.000 A 
ATOM     19  C   UNL     1     111.576 124.183 137.508  0.00  0.00    +0.000 A 
ATOM     20  C   UNL     1     112.035 123.633 137.098  0.00  0.00    +0.000 A 
ENDBRANCH   6  15
BRANCH   5  21
ATOM     21  O   UNL     1     113.445 129.284 136.824  0.00  0.00    +0.000 OA
BRANCH  21  30
ATOM     22  O   UNL     1     114.343 129.404 135.719  0.00  0.00    +0.000 OA
ATOM     23  O   UNL     1     114.497 131.843 136.109  0.00  0.00    +0.000 OA
ATOM     24  O   UNL     1     115.343 131.150 134.874  0.00  0.00    +0.000 OA
ATOM     25  O   UNL     1     113.547 130.910 137.084  0.00  0.00    +0.000 OA
ATOM     26  C   UNL     1     114.445 131.030 135.979  0.00  0.00    +0.000 C 
ATOM     27  C   UNL     1     114.868 130.683 135.361  0.00  0.00    +0.000 C 
ATOM     28  C   UNL     1     113.971 130.563 136.466  0.00  0.00    +0.000 C 
ATOM     29  C   UNL     1     114.817 129.870 135.231  0.00  0.00    +0.000 C 
ATOM     30  C   UNL     1     113.920 129.750 136.336  0.00  0.00    +0.000 C 
ATOM     31  C   UNL     1     115.241 129.524 134.614  0.00  0.00    +0.000 C 
ENDBRANCH  21  30
ENDBRANCH   5  21
TORSDOF 3
ENDMDL
