MODEL 1
REMARK VINA RESULT:      -9.4      0.000      0.000
REMARK  Name = 76972097
REMARK  5 active torsions:
REMARK  status: ('A' for Active; 'I' for Inactive)
REMARK    1  A    between atoms: O_2  and  C_17
REMARK    2  A    between atoms: O_2  and  C_24
REMARK    3  A    between atoms: O_9  and  C_29
REMARK    4  A    between atoms: C_18  and  C_25
REMARK    5  A    between atoms: C_19  and  C_22
REMARK                            x       y       z     vdW  Elec       q    Type
REMARK                         _______ _______ _______ _____ _____    ______ ____
ROOT
ATOM      1  O   UNL     1     106.919 124.240 148.058  0.00  0.00    +0.000 OA
ATOM      2  C   UNL     1     105.111 124.984 147.088  0.00  0.00    +0.000 A 
ATOM      3  C   UNL     1     106.247 125.652 146.535  0.00  0.00    +0.000 A 
ATOM      4  C   UNL     1     105.431 125.533 146.563  0.00  0.00    +0.000 A 
ATOM      5  C   UNL     1     105.607 124.553 147.586  0.00  0.00    +0.000 A 
ATOM      6  C   UNL     1     106.743 125.220 147.034  0.00  0.00    +0.000 A 
ATOM      7  C   UNL     1     106.423 124.671 147.560  0.00  0.00    +0.000 A 
ENDROOT
BRANCH   2  12
ATOM      8  O   UNL     1     103.946 124.289 146.637  0.00  0.00    +0.000 OA
ATOM      9  O   UNL     1     104.177 125.899 148.094  0.00  0.00    +0.000 OA
ATOM     10  O   UNL     1     101.352 124.977 147.709  0.00  0.00    +0.000 OA
ATOM     11  O   UNL     1     101.583 122.864 145.706  0.00  0.00    +0.000 OA
ATOM     12  C   UNL     1     104.295 124.866 147.115  0.00  0.00    +0.000 C 
ATOM     13  C   UNL     1     103.828 125.323 147.617  0.00  0.00    +0.000 C 
ATOM     14  C   UNL     1     103.011 125.205 147.644  0.00  0.00    +0.000 C 
ATOM     15  C   UNL     1     102.662 124.629 147.166  0.00  0.00    +0.000 A 
ATOM     16  C   UNL     1     103.130 124.171 146.663  0.00  0.00    +0.000 A 
ATOM     17  C   UNL     1     101.812 124.515 147.202  0.00  0.00    +0.000 A 
ATOM     18  C   UNL     1     102.779 123.569 146.162  0.00  0.00    +0.000 A 
ATOM     19  C   UNL     1     101.442 123.917 146.708  0.00  0.00    +0.000 A 
ATOM     20  C   UNL     1     101.929 123.440 146.184  0.00  0.00    +0.000 A 
ENDBRANCH   2  12
BRANCH   6  21
ATOM     21  O   UNL     1     107.559 125.339 147.007  0.00  0.00    +0.000 OA
ATOM     22  C   UNL     1     107.995 125.370 147.707  0.00  0.00    +0.000 C 
ENDBRANCH   6  21
BRANCH   3  23
ATOM     23  O   UNL     1     106.567 126.201 146.010  0.00  0.00    +0.000 OA
BRANCH  23  31
ATOM     24  O   UNL     1     106.272 125.564 144.765  0.00  0.00    +0.000 OA
ATOM     25  O   UNL     1     105.476 127.722 143.851  0.00  0.00    +0.000 OA
ATOM     26  O   UNL     1     106.036 127.639 145.401  0.00  0.00    +0.000 OA
ATOM     27  O   UNL     1     105.447 126.367 142.910  0.00  0.00    +0.000 OA
ATOM     28  C   UNL     1     105.741 127.003 144.155  0.00  0.00    +0.000 C 
ATOM     29  C   UNL     1     106.021 126.962 144.931  0.00  0.00    +0.000 C 
ATOM     30  C   UNL     1     105.727 126.326 143.686  0.00  0.00    +0.000 C 
ATOM     31  C   UNL     1     106.287 126.243 145.235  0.00  0.00    +0.000 C 
ATOM     32  C   UNL     1     105.992 125.607 143.990  0.00  0.00    +0.000 C 
BRANCH  32  35
ATOM     33  O   UNL     1     106.635 124.729 143.064  0.00  0.00    +0.000 OA
ATOM     34  O   UNL     1     105.306 124.450 143.506  0.00  0.00    +0.000 OA
ATOM     35  C   UNL     1     105.978 124.928 143.520  0.00  0.00    +0.000 C 
ENDBRANCH  32  35
ENDBRANCH  23  31
ENDBRANCH   3  23
TORSDOF 5
ENDMDL
MODEL 2
REMARK VINA RESULT:      -9.2      9.656     12.570
REMARK  Name = 76972097
REMARK  5 active torsions:
REMARK  status: ('A' for Active; 'I' for Inactive)
REMARK    1  A    between atoms: O_2  and  C_17
REMARK    2  A    between atoms: O_2  and  C_24
REMARK    3  A    between atoms: O_9  and  C_29
REMARK    4  A    between atoms: C_18  and  C_25
REMARK    5  A    between atoms: C_19  and  C_22
REMARK                            x       y       z     vdW  Elec       q    Type
REMARK                         _______ _______ _______ _____ _____    ______ ____
ROOT
ATOM      1  O   UNL     1     113.861 125.320 137.930  0.00  0.00    +0.000 OA
ATOM      2  C   UNL     1     113.016 127.069 136.936  0.00  0.00    +0.000 A 
ATOM      3  C   UNL     1     112.215 125.926 136.630  0.00  0.00    +0.000 A 
ATOM      4  C   UNL     1     112.367 126.733 136.554  0.00  0.00    +0.000 A 
ATOM      5  C   UNL     1     113.514 126.598 137.395  0.00  0.00    +0.000 A 
ATOM      6  C   UNL     1     112.714 125.454 137.090  0.00  0.00    +0.000 A 
ATOM      7  C   UNL     1     113.363 125.791 137.472  0.00  0.00    +0.000 A 
ENDROOT
BRANCH   2  12
ATOM      8  O   UNL     1     112.822 128.413 137.386  0.00  0.00    +0.000 OA
ATOM      9  O   UNL     1     114.004 127.615 135.732  0.00  0.00    +0.000 OA
ATOM     10  O   UNL     1     114.125 130.595 136.012  0.00  0.00    +0.000 OA
ATOM     11  O   UNL     1     112.416 131.142 138.316  0.00  0.00    +0.000 OA
ATOM     12  C   UNL     1     113.166 127.877 136.859  0.00  0.00    +0.000 C 
ATOM     13  C   UNL     1     113.660 128.150 136.258  0.00  0.00    +0.000 C 
ATOM     14  C   UNL     1     113.810 128.957 136.181  0.00  0.00    +0.000 C 
ATOM     15  C   UNL     1     113.466 129.493 136.707  0.00  0.00    +0.000 A 
ATOM     16  C   UNL     1     112.972 129.219 137.309  0.00  0.00    +0.000 A 
ATOM     17  C   UNL     1     113.630 130.331 136.617  0.00  0.00    +0.000 A 
ATOM     18  C   UNL     1     112.609 129.767 137.863  0.00  0.00    +0.000 A 
ATOM     19  C   UNL     1     113.275 130.893 137.161  0.00  0.00    +0.000 A 
ATOM     20  C   UNL     1     112.761 130.610 137.789  0.00  0.00    +0.000 A 
ENDBRANCH   2  12
BRANCH   6  21
ATOM     21  O   UNL     1     112.562 124.647 137.166  0.00  0.00    +0.000 OA
ATOM     22  C   UNL     1     113.107 124.097 136.879  0.00  0.00    +0.000 C 
ENDBRANCH   6  21
BRANCH   3  23
ATOM     23  O   UNL     1     111.567 125.590 136.248  0.00  0.00    +0.000 OA
BRANCH  23  31
ATOM     24  O   UNL     1     110.526 126.166 137.040  0.00  0.00    +0.000 OA
ATOM     25  O   UNL     1     109.197 126.579 134.993  0.00  0.00    +0.000 OA
ATOM     26  O   UNL     1     110.681 125.865 134.884  0.00  0.00    +0.000 OA
ATOM     27  O   UNL     1     108.600 127.018 136.467  0.00  0.00    +0.000 OA
ATOM     28  C   UNL     1     109.640 126.441 135.676  0.00  0.00    +0.000 C 
ATOM     29  C   UNL     1     110.382 126.084 135.620  0.00  0.00    +0.000 C 
ATOM     30  C   UNL     1     109.342 126.661 136.412  0.00  0.00    +0.000 C 
ATOM     31  C   UNL     1     110.825 125.947 136.302  0.00  0.00    +0.000 C 
ATOM     32  C   UNL     1     109.785 126.523 137.094  0.00  0.00    +0.000 C 
BRANCH  32  35
ATOM     33  O   UNL     1     109.109 126.184 138.307  0.00  0.00    +0.000 OA
ATOM     34  O   UNL     1     109.564 127.520 138.094  0.00  0.00    +0.000 OA
ATOM     35  C   UNL     1     109.486 126.743 137.832  0.00  0.00    +0.000 C 
ENDBRANCH  32  35
ENDBRANCH  23  31
ENDBRANCH   3  23
TORSDOF 5
ENDMDL
MODEL 3
REMARK VINA RESULT:      -9.2      1.572      4.402
REMARK  Name = 76972097
REMARK  5 active torsions:
REMARK  status: ('A' for Active; 'I' for Inactive)
REMARK    1  A    between atoms: O_2  and  C_17
REMARK    2  A    between atoms: O_2  and  C_24
REMARK    3  A    between atoms: O_9  and  C_29
REMARK    4  A    between atoms: C_18  and  C_25
REMARK    5  A    between atoms: C_19  and  C_22
REMARK                            x       y       z     vdW  Elec       q    Type
REMARK                         _______ _______ _______ _____ _____    ______ ____
ROOT
ATOM      1  O   UNL     1     108.204 124.927 148.007  0.00  0.00    +0.000 OA
ATOM      2  C   UNL     1     106.658 126.207 147.150  0.00  0.00    +0.000 A 
ATOM      3  C   UNL     1     106.036 125.139 147.868  0.00  0.00    +0.000 A 
ATOM      4  C   UNL     1     105.976 125.822 147.409  0.00  0.00    +0.000 A 
ATOM      5  C   UNL     1     107.400 125.909 147.349  0.00  0.00    +0.000 A 
ATOM      6  C   UNL     1     106.779 124.841 148.067  0.00  0.00    +0.000 A 
ATOM      7  C   UNL     1     107.461 125.226 147.808  0.00  0.00    +0.000 A 
ENDROOT
BRANCH   2  12
ATOM      8  O   UNL     1     106.382 127.606 147.044  0.00  0.00    +0.000 OA
ATOM      9  O   UNL     1     106.962 126.145 145.530  0.00  0.00    +0.000 OA
ATOM     10  O   UNL     1     106.566 128.922 144.479  0.00  0.00    +0.000 OA
ATOM     11  O   UNL     1     105.817 130.456 146.849  0.00  0.00    +0.000 OA
ATOM     12  C   UNL     1     106.596 126.891 146.692  0.00  0.00    +0.000 C 
ATOM     13  C   UNL     1     106.748 126.860 145.882  0.00  0.00    +0.000 C 
ATOM     14  C   UNL     1     106.687 127.543 145.423  0.00  0.00    +0.000 C 
ATOM     15  C   UNL     1     106.473 128.258 145.776  0.00  0.00    +0.000 A 
ATOM     16  C   UNL     1     106.321 128.289 146.587  0.00  0.00    +0.000 A 
ATOM     17  C   UNL     1     106.412 128.963 145.289  0.00  0.00    +0.000 A 
ATOM     18  C   UNL     1     106.097 129.027 146.965  0.00  0.00    +0.000 A 
ATOM     19  C   UNL     1     106.190 129.710 145.650  0.00  0.00    +0.000 A 
ATOM     20  C   UNL     1     106.031 129.743 146.494  0.00  0.00    +0.000 A 
ENDBRANCH   2  12
BRANCH   6  21
ATOM     21  O   UNL     1     106.839 124.158 148.525  0.00  0.00    +0.000 OA
ATOM     22  C   UNL     1     107.204 124.189 149.266  0.00  0.00    +0.000 C 
ENDBRANCH   6  21
BRANCH   3  23
ATOM     23  O   UNL     1     105.354 124.755 148.127  0.00  0.00    +0.000 OA
BRANCH  23  31
ATOM     24  O   UNL     1     104.883 124.187 146.903  0.00  0.00    +0.000 OA
ATOM     25  O   UNL     1     102.600 125.002 147.405  0.00  0.00    +0.000 OA
ATOM     26  O   UNL     1     103.833 125.298 148.461  0.00  0.00    +0.000 OA
ATOM     27  O   UNL     1     102.889 124.162 146.015  0.00  0.00    +0.000 OA
ATOM     28  C   UNL     1     103.361 124.730 147.238  0.00  0.00    +0.000 C 
ATOM     29  C   UNL     1     103.977 124.879 147.766  0.00  0.00    +0.000 C 
ATOM     30  C   UNL     1     103.505 124.310 146.543  0.00  0.00    +0.000 C 
ATOM     31  C   UNL     1     104.738 124.607 147.599  0.00  0.00    +0.000 C 
ATOM     32  C   UNL     1     104.266 124.039 146.376  0.00  0.00    +0.000 C 
BRANCH  32  35
ATOM     33  O   UNL     1     104.544 124.024 144.974  0.00  0.00    +0.000 OA
ATOM     34  O   UNL     1     104.422 122.795 145.691  0.00  0.00    +0.000 OA
ATOM     35  C   UNL     1     104.411 123.619 145.680  0.00  0.00    +0.000 C 
ENDBRANCH  32  35
ENDBRANCH  23  31
ENDBRANCH   3  23
TORSDOF 5
ENDMDL
MODEL 4
REMARK VINA RESULT:      -9.1      9.532     12.343
REMARK  Name = 76972097
REMARK  5 active torsions:
REMARK  status: ('A' for Active; 'I' for Inactive)
REMARK    1  A    between atoms: O_2  and  C_17
REMARK    2  A    between atoms: O_2  and  C_24
REMARK    3  A    between atoms: O_9  and  C_29
REMARK    4  A    between atoms: C_18  and  C_25
REMARK    5  A    between atoms: C_19  and  C_22
REMARK                            x       y       z     vdW  Elec       q    Type
REMARK                         _______ _______ _______ _____ _____    ______ ____
ROOT
ATOM      1  O   UNL     1     111.974 129.079 134.612  0.00  0.00    +0.000 OA
ATOM      2  C   UNL     1     111.848 127.508 136.121  0.00  0.00    +0.000 A 
ATOM      3  C   UNL     1     110.999 128.592 136.503  0.00  0.00    +0.000 A 
ATOM      4  C   UNL     1     111.313 127.844 136.652  0.00  0.00    +0.000 A 
ATOM      5  C   UNL     1     112.068 127.920 135.441  0.00  0.00    +0.000 A 
ATOM      6  C   UNL     1     111.219 129.004 135.822  0.00  0.00    +0.000 A 
ATOM      7  C   UNL     1     111.754 128.668 135.291  0.00  0.00    +0.000 A 
ENDROOT
BRANCH   2  12
ATOM      8  O   UNL     1     112.895 126.688 136.647  0.00  0.00    +0.000 OA
ATOM      9  O   UNL     1     111.016 126.156 135.671  0.00  0.00    +0.000 OA
ATOM     10  O   UNL     1     112.687 123.810 136.494  0.00  0.00    +0.000 OA
ATOM     11  O   UNL     1     115.036 125.034 137.723  0.00  0.00    +0.000 OA
ATOM     12  C   UNL     1     112.163 126.760 136.271  0.00  0.00    +0.000 C 
ATOM     13  C   UNL     1     111.747 126.084 136.046  0.00  0.00    +0.000 C 
ATOM     14  C   UNL     1     112.061 125.336 136.196  0.00  0.00    +0.000 C 
ATOM     15  C   UNL     1     112.793 125.264 136.572  0.00  0.00    +0.000 A 
ATOM     16  C   UNL     1     113.209 125.941 136.797  0.00  0.00    +0.000 A 
ATOM     17  C   UNL     1     113.110 124.481 136.723  0.00  0.00    +0.000 A 
ATOM     18  C   UNL     1     113.971 125.879 137.188  0.00  0.00    +0.000 A 
ATOM     19  C   UNL     1     113.871 124.399 137.113  0.00  0.00    +0.000 A 
ATOM     20  C   UNL     1     114.305 125.103 137.348  0.00  0.00    +0.000 A 
ENDBRANCH   2  12
BRANCH   6  21
ATOM     21  O   UNL     1     110.904 129.751 135.673  0.00  0.00    +0.000 OA
ATOM     22  C   UNL     1     110.424 129.872 135.013  0.00  0.00    +0.000 C 
ENDBRANCH   6  21
BRANCH   3  23
ATOM     23  O   UNL     1     110.464 128.927 137.033  0.00  0.00    +0.000 OA
BRANCH  23  31
ATOM     24  O   UNL     1     111.381 129.358 138.041  0.00  0.00    +0.000 OA
ATOM     25  O   UNL     1     109.843 128.530 139.794  0.00  0.00    +0.000 OA
ATOM     26  O   UNL     1     109.439 128.375 138.202  0.00  0.00    +0.000 OA
ATOM     27  O   UNL     1     111.272 129.237 140.218  0.00  0.00    +0.000 OA
ATOM     28  C   UNL     1     110.356 128.806 139.210  0.00  0.00    +0.000 C 
ATOM     29  C   UNL     1     110.153 128.728 138.414  0.00  0.00    +0.000 C 
ATOM     30  C   UNL     1     111.070 129.159 139.421  0.00  0.00    +0.000 C 
ATOM     31  C   UNL     1     110.666 129.004 137.829  0.00  0.00    +0.000 C 
ATOM     32  C   UNL     1     111.583 129.435 138.837  0.00  0.00    +0.000 C 
BRANCH  32  35
ATOM     33  O   UNL     1     112.348 130.609 139.114  0.00  0.00    +0.000 OA
ATOM     34  O   UNL     1     112.961 129.322 139.195  0.00  0.00    +0.000 OA
ATOM     35  C   UNL     1     112.298 129.789 139.049  0.00  0.00    +0.000 C 
ENDBRANCH  32  35
ENDBRANCH  23  31
ENDBRANCH   3  23
TORSDOF 5
ENDMDL
MODEL 5
REMARK VINA RESULT:      -9.1     10.506     12.335
REMARK  Name = 76972097
REMARK  5 active torsions:
REMARK  status: ('A' for Active; 'I' for Inactive)
REMARK    1  A    between atoms: O_2  and  C_17
REMARK    2  A    between atoms: O_2  and  C_24
REMARK    3  A    between atoms: O_9  and  C_29
REMARK    4  A    between atoms: C_18  and  C_25
REMARK    5  A    between atoms: C_19  and  C_22
REMARK                            x       y       z     vdW  Elec       q    Type
REMARK                         _______ _______ _______ _____ _____    ______ ____
ROOT
ATOM      1  O   UNL     1     113.619 129.610 138.485  0.00  0.00    +0.000 OA
ATOM      2  C   UNL     1     112.850 128.069 137.144  0.00  0.00    +0.000 A 
ATOM      3  C   UNL     1     112.281 129.330 136.783  0.00  0.00    +0.000 A 
ATOM      4  C   UNL     1     112.355 128.518 136.659  0.00  0.00    +0.000 A 
ATOM      5  C   UNL     1     113.271 128.433 137.752  0.00  0.00    +0.000 A 
ATOM      6  C   UNL     1     112.703 129.694 137.392  0.00  0.00    +0.000 A 
ATOM      7  C   UNL     1     113.198 129.246 137.877  0.00  0.00    +0.000 A 
ENDROOT
BRANCH   2  12
ATOM      8  O   UNL     1     112.390 126.736 137.374  0.00  0.00    +0.000 OA
ATOM      9  O   UNL     1     114.060 127.486 136.185  0.00  0.00    +0.000 OA
ATOM     10  O   UNL     1     113.762 124.506 136.152  0.00  0.00    +0.000 OA
ATOM     11  O   UNL     1     111.438 124.026 137.855  0.00  0.00    +0.000 OA
ATOM     12  C   UNL     1     112.923 127.257 137.019  0.00  0.00    +0.000 C 
ATOM     13  C   UNL     1     113.528 126.966 136.540  0.00  0.00    +0.000 C 
ATOM     14  C   UNL     1     113.601 126.153 136.415  0.00  0.00    +0.000 C 
ATOM     15  C   UNL     1     113.068 125.632 136.770  0.00  0.00    +0.000 A 
ATOM     16  C   UNL     1     112.463 125.924 137.250  0.00  0.00    +0.000 A 
ATOM     17  C   UNL     1     113.154 124.788 136.633  0.00  0.00    +0.000 A 
ATOM     18  C   UNL     1     111.902 125.392 137.625  0.00  0.00    +0.000 A 
ATOM     19  C   UNL     1     112.603 124.241 137.000  0.00  0.00    +0.000 A 
ATOM     20  C   UNL     1     111.972 124.544 137.499  0.00  0.00    +0.000 A 
ENDBRANCH   2  12
BRANCH   6  21
ATOM     21  O   UNL     1     112.629 130.506 137.516  0.00  0.00    +0.000 OA
ATOM     22  C   UNL     1     113.296 130.992 137.476  0.00  0.00    +0.000 C 
ENDBRANCH   6  21
BRANCH   3  23
ATOM     23  O   UNL     1     111.787 129.778 136.299  0.00  0.00    +0.000 OA
BRANCH  23  31
ATOM     24  O   UNL     1     110.523 129.444 136.876  0.00  0.00    +0.000 OA
ATOM     25  O   UNL     1     109.560 129.177 134.612  0.00  0.00    +0.000 OA
ATOM     26  O   UNL     1     111.145 129.600 134.790  0.00  0.00    +0.000 OA
ATOM     27  O   UNL     1     108.617 128.932 135.944  0.00  0.00    +0.000 OA
ATOM     28  C   UNL     1     109.881 129.266 135.367  0.00  0.00    +0.000 C 
ATOM     29  C   UNL     1     110.674 129.477 135.455  0.00  0.00    +0.000 C 
ATOM     30  C   UNL     1     109.410 129.144 136.032  0.00  0.00    +0.000 C 
ATOM     31  C   UNL     1     110.995 129.566 136.210  0.00  0.00    +0.000 C 
ATOM     32  C   UNL     1     109.731 129.232 136.787  0.00  0.00    +0.000 C 
BRANCH  32  35
ATOM     33  O   UNL     1     108.862 129.745 137.799  0.00  0.00    +0.000 OA
ATOM     34  O   UNL     1     109.186 128.354 137.773  0.00  0.00    +0.000 OA
ATOM     35  C   UNL     1     109.259 129.110 137.453  0.00  0.00    +0.000 C 
ENDBRANCH  32  35
ENDBRANCH  23  31
ENDBRANCH   3  23
TORSDOF 5
ENDMDL
MODEL 6
REMARK VINA RESULT:      -9.1     11.551     13.228
REMARK  Name = 76972097
REMARK  5 active torsions:
REMARK  status: ('A' for Active; 'I' for Inactive)
REMARK    1  A    between atoms: O_2  and  C_17
REMARK    2  A    between atoms: O_2  and  C_24
REMARK    3  A    between atoms: O_9  and  C_29
REMARK    4  A    between atoms: C_18  and  C_25
REMARK    5  A    between atoms: C_19  and  C_22
REMARK                            x       y       z     vdW  Elec       q    Type
REMARK                         _______ _______ _______ _____ _____    ______ ____
ROOT
ATOM      1  O   UNL     1     114.300 129.883 134.612  0.00  0.00    +0.000 OA
ATOM      2  C   UNL     1     113.623 128.525 136.180  0.00  0.00    +0.000 A 
ATOM      3  C   UNL     1     113.984 129.776 136.769  0.00  0.00    +0.000 A 
ATOM      4  C   UNL     1     113.704 129.004 136.847  0.00  0.00    +0.000 A 
ATOM      5  C   UNL     1     113.821 128.818 135.436  0.00  0.00    +0.000 A 
ATOM      6  C   UNL     1     114.183 130.069 136.023  0.00  0.00    +0.000 A 
ATOM      7  C   UNL     1     114.102 129.590 135.357  0.00  0.00    +0.000 A 
ENDROOT
BRANCH   2  12
ATOM      8  O   UNL     1     113.852 127.153 136.508  0.00  0.00    +0.000 OA
ATOM      9  O   UNL     1     112.045 128.180 135.841  0.00  0.00    +0.000 OA
ATOM     10  O   UNL     1     111.690 125.245 136.325  0.00  0.00    +0.000 OA
ATOM     11  O   UNL     1     114.338 124.361 137.181  0.00  0.00    +0.000 OA
ATOM     12  C   UNL     1     113.342 127.753 136.259  0.00  0.00    +0.000 C 
ATOM     13  C   UNL     1     112.554 127.580 136.090  0.00  0.00    +0.000 C 
ATOM     14  C   UNL     1     112.274 126.808 136.169  0.00  0.00    +0.000 C 
ATOM     15  C   UNL     1     112.783 126.208 136.418  0.00  0.00    +0.000 A 
ATOM     16  C   UNL     1     113.572 126.381 136.588  0.00  0.00    +0.000 A 
ATOM     17  C   UNL     1     112.481 125.408 136.497  0.00  0.00    +0.000 A 
ATOM     18  C   UNL     1     114.112 125.765 136.848  0.00  0.00    +0.000 A 
ATOM     19  C   UNL     1     113.005 124.779 136.756  0.00  0.00    +0.000 A 
ATOM     20  C   UNL     1     113.827 124.959 136.932  0.00  0.00    +0.000 A 
ENDBRANCH   2  12
BRANCH   6  21
ATOM     21  O   UNL     1     114.463 130.841 135.945  0.00  0.00    +0.000 OA
ATOM     22  C   UNL     1     115.210 130.977 135.621  0.00  0.00    +0.000 C 
ENDBRANCH   6  21
BRANCH   3  23
ATOM     23  O   UNL     1     114.066 130.254 137.435  0.00  0.00    +0.000 OA
BRANCH  23  31
ATOM     24  O   UNL     1     112.725 130.707 137.630  0.00  0.00    +0.000 OA
ATOM     25  O   UNL     1     112.875 130.119 140.030  0.00  0.00    +0.000 OA
ATOM     26  O   UNL     1     114.166 129.862 139.035  0.00  0.00    +0.000 OA
ATOM     27  O   UNL     1     111.484 130.768 139.425  0.00  0.00    +0.000 OA
ATOM     28  C   UNL     1     112.825 130.315 139.230  0.00  0.00    +0.000 C 
ATOM     29  C   UNL     1     113.471 130.186 138.733  0.00  0.00    +0.000 C 
ATOM     30  C   UNL     1     112.130 130.639 138.928  0.00  0.00    +0.000 C 
ATOM     31  C   UNL     1     113.421 130.382 137.933  0.00  0.00    +0.000 C 
ATOM     32  C   UNL     1     112.080 130.835 138.128  0.00  0.00    +0.000 C 
BRANCH  32  35
ATOM     33  O   UNL     1     110.784 130.664 137.551  0.00  0.00    +0.000 OA
ATOM     34  O   UNL     1     111.288 131.978 137.798  0.00  0.00    +0.000 OA
ATOM     35  C   UNL     1     111.383 131.160 137.825  0.00  0.00    +0.000 C 
ENDBRANCH  32  35
ENDBRANCH  23  31
ENDBRANCH   3  23
TORSDOF 5
ENDMDL
MODEL 7
REMARK VINA RESULT:      -9.1      8.102     11.348
REMARK  Name = 76972097
REMARK  5 active torsions:
REMARK  status: ('A' for Active; 'I' for Inactive)
REMARK    1  A    between atoms: O_2  and  C_17
REMARK    2  A    between atoms: O_2  and  C_24
REMARK    3  A    between atoms: O_9  and  C_29
REMARK    4  A    between atoms: C_18  and  C_25
REMARK    5  A    between atoms: C_19  and  C_22
REMARK                            x       y       z     vdW  Elec       q    Type
REMARK                         _______ _______ _______ _____ _____    ______ ____
ROOT
ATOM      1  O   UNL     1     111.189 124.259 135.812  0.00  0.00    +0.000 OA
ATOM      2  C   UNL     1     111.090 126.345 136.447  0.00  0.00    +0.000 A 
ATOM      3  C   UNL     1     111.661 125.563 137.498  0.00  0.00    +0.000 A 
ATOM      4  C   UNL     1     111.413 126.293 137.204  0.00  0.00    +0.000 A 
ATOM      5  C   UNL     1     111.016 125.667 135.983  0.00  0.00    +0.000 A 
ATOM      6  C   UNL     1     111.586 124.885 137.033  0.00  0.00    +0.000 A 
ATOM      7  C   UNL     1     111.264 124.937 136.276  0.00  0.00    +0.000 A 
ENDROOT
BRANCH   2  12
ATOM      8  O   UNL     1     110.055 127.310 136.244  0.00  0.00    +0.000 OA
ATOM      9  O   UNL     1     112.164 127.337 135.682  0.00  0.00    +0.000 OA
ATOM     10  O   UNL     1     110.641 129.788 134.879  0.00  0.00    +0.000 OA
ATOM     11  O   UNL     1     107.933 129.264 135.840  0.00  0.00    +0.000 OA
ATOM     12  C   UNL     1     110.842 127.076 136.154  0.00  0.00    +0.000 C 
ATOM     13  C   UNL     1     111.378 127.571 135.772  0.00  0.00    +0.000 C 
ATOM     14  C   UNL     1     111.130 128.302 135.479  0.00  0.00    +0.000 C 
ATOM     15  C   UNL     1     110.343 128.536 135.569  0.00  0.00    +0.000 A 
ATOM     16  C   UNL     1     109.807 128.040 135.951  0.00  0.00    +0.000 A 
ATOM     17  C   UNL     1     110.097 129.299 135.260  0.00  0.00    +0.000 A 
ATOM     18  C   UNL     1     108.986 128.273 136.051  0.00  0.00    +0.000 A 
ATOM     19  C   UNL     1     109.280 129.549 135.350  0.00  0.00    +0.000 A 
ATOM     20  C   UNL     1     108.720 129.032 135.749  0.00  0.00    +0.000 A 
ENDBRANCH   2  12
BRANCH   6  21
ATOM     21  O   UNL     1     111.835 124.155 137.327  0.00  0.00    +0.000 OA
ATOM     22  C   UNL     1     112.451 123.749 136.956  0.00  0.00    +0.000 C 
ENDBRANCH   6  21
BRANCH   3  23
ATOM     23  O   UNL     1     111.983 125.511 138.254  0.00  0.00    +0.000 OA
BRANCH  23  31
ATOM     24  O   UNL     1     110.806 125.688 139.045  0.00  0.00    +0.000 OA
ATOM     25  O   UNL     1     112.023 127.276 140.502  0.00  0.00    +0.000 OA
ATOM     26  O   UNL     1     112.795 126.570 139.226  0.00  0.00    +0.000 OA
ATOM     27  O   UNL     1     110.440 126.924 140.807  0.00  0.00    +0.000 OA
ATOM     28  C   UNL     1     111.618 126.747 140.016  0.00  0.00    +0.000 C 
ATOM     29  C   UNL     1     112.004 126.394 139.378  0.00  0.00    +0.000 C 
ATOM     30  C   UNL     1     110.827 126.571 140.169  0.00  0.00    +0.000 C 
ATOM     31  C   UNL     1     111.598 125.865 138.893  0.00  0.00    +0.000 C 
ATOM     32  C   UNL     1     110.421 126.042 139.683  0.00  0.00    +0.000 C 
BRANCH  32  35
ATOM     33  O   UNL     1     109.435 125.228 140.322  0.00  0.00    +0.000 OA
ATOM     34  O   UNL     1     109.033 126.326 139.502  0.00  0.00    +0.000 OA
ATOM     35  C   UNL     1     109.629 125.865 139.835  0.00  0.00    +0.000 C 
ENDBRANCH  32  35
ENDBRANCH  23  31
ENDBRANCH   3  23
TORSDOF 5
ENDMDL
MODEL 8
REMARK VINA RESULT:      -9.0      9.710     12.147
REMARK  Name = 76972097
REMARK  5 active torsions:
REMARK  status: ('A' for Active; 'I' for Inactive)
REMARK    1  A    between atoms: O_2  and  C_17
REMARK    2  A    between atoms: O_2  and  C_24
REMARK    3  A    between atoms: O_9  and  C_29
REMARK    4  A    between atoms: C_18  and  C_25
REMARK    5  A    between atoms: C_19  and  C_22
REMARK                            x       y       z     vdW  Elec       q    Type
REMARK                         _______ _______ _______ _____ _____    ______ ____
ROOT
ATOM      1  O   UNL     1     114.777 125.088 137.987  0.00  0.00    +0.000 OA
ATOM      2  C   UNL     1     113.415 126.676 138.610  0.00  0.00    +0.000 A 
ATOM      3  C   UNL     1     113.172 126.364 137.237  0.00  0.00    +0.000 A 
ATOM      4  C   UNL     1     112.997 126.806 137.911  0.00  0.00    +0.000 A 
ATOM      5  C   UNL     1     114.008 126.103 138.635  0.00  0.00    +0.000 A 
ATOM      6  C   UNL     1     113.766 125.791 137.262  0.00  0.00    +0.000 A 
ATOM      7  C   UNL     1     114.184 125.660 137.962  0.00  0.00    +0.000 A 
ENDROOT
BRANCH   2  12
ATOM      8  O   UNL     1     113.615 127.844 139.410  0.00  0.00    +0.000 OA
ATOM      9  O   UNL     1     112.316 126.114 139.705  0.00  0.00    +0.000 OA
ATOM     10  O   UNL     1     112.147 128.170 141.877  0.00  0.00    +0.000 OA
ATOM     11  O   UNL     1     114.034 130.230 141.026  0.00  0.00    +0.000 OA
ATOM     12  C   UNL     1     113.240 127.119 139.284  0.00  0.00    +0.000 C 
ATOM     13  C   UNL     1     112.690 126.838 139.831  0.00  0.00    +0.000 C 
ATOM     14  C   UNL     1     112.514 127.281 140.504  0.00  0.00    +0.000 C 
ATOM     15  C   UNL     1     112.889 128.006 140.631  0.00  0.00    +0.000 A 
ATOM     16  C   UNL     1     113.439 128.287 140.083  0.00  0.00    +0.000 A 
ATOM     17  C   UNL     1     112.699 128.459 141.335  0.00  0.00    +0.000 A 
ATOM     18  C   UNL     1     113.836 129.039 140.203  0.00  0.00    +0.000 A 
ATOM     19  C   UNL     1     113.085 129.214 141.472  0.00  0.00    +0.000 A 
ATOM     20  C   UNL     1     113.658 129.506 140.902  0.00  0.00    +0.000 A 
ENDBRANCH   2  12
BRANCH   6  21
ATOM     21  O   UNL     1     113.940 125.348 136.588  0.00  0.00    +0.000 OA
ATOM     22  C   UNL     1     113.833 124.530 136.593  0.00  0.00    +0.000 C 
ENDBRANCH   6  21
BRANCH   3  23
ATOM     23  O   UNL     1     112.754 126.494 136.538  0.00  0.00    +0.000 OA
BRANCH  23  31
ATOM     24  O   UNL     1     113.386 127.709 136.129  0.00  0.00    +0.000 OA
ATOM     25  O   UNL     1     111.186 128.629 135.468  0.00  0.00    +0.000 OA
ATOM     26  O   UNL     1     111.288 127.108 136.097  0.00  0.00    +0.000 OA
ATOM     27  O   UNL     1     112.551 129.537 135.279  0.00  0.00    +0.000 OA
ATOM     28  C   UNL     1     111.919 128.323 135.688  0.00  0.00    +0.000 C 
ATOM     29  C   UNL     1     111.969 127.561 136.003  0.00  0.00    +0.000 C 
ATOM     30  C   UNL     1     112.601 128.776 135.594  0.00  0.00    +0.000 C 
ATOM     31  C   UNL     1     112.703 127.254 136.224  0.00  0.00    +0.000 C 
ATOM     32  C   UNL     1     113.334 128.469 135.814  0.00  0.00    +0.000 C 
BRANCH  32  35
ATOM     33  O   UNL     1     114.506 128.802 135.067  0.00  0.00    +0.000 OA
ATOM     34  O   UNL     1     114.211 129.498 136.278  0.00  0.00    +0.000 OA
ATOM     35  C   UNL     1     114.017 128.923 135.720  0.00  0.00    +0.000 C 
ENDBRANCH  32  35
ENDBRANCH  23  31
ENDBRANCH   3  23
TORSDOF 5
ENDMDL
MODEL 9
REMARK VINA RESULT:      -9.0      9.269     11.110
REMARK  Name = 76972097
REMARK  5 active torsions:
REMARK  status: ('A' for Active; 'I' for Inactive)
REMARK    1  A    between atoms: O_2  and  C_17
REMARK    2  A    between atoms: O_2  and  C_24
REMARK    3  A    between atoms: O_9  and  C_29
REMARK    4  A    between atoms: C_18  and  C_25
REMARK    5  A    between atoms: C_19  and  C_22
REMARK                            x       y       z     vdW  Elec       q    Type
REMARK                         _______ _______ _______ _____ _____    ______ ____
ROOT
ATOM      1  O   UNL     1     111.943 126.834 141.443  0.00  0.00    +0.000 OA
ATOM      2  C   UNL     1     112.575 126.811 139.354  0.00  0.00    +0.000 A 
ATOM      3  C   UNL     1     112.237 128.149 139.726  0.00  0.00    +0.000 A 
ATOM      4  C   UNL     1     112.499 127.610 139.160  0.00  0.00    +0.000 A 
ATOM      5  C   UNL     1     112.389 126.553 140.115  0.00  0.00    +0.000 A 
ATOM      6  C   UNL     1     112.052 127.890 140.488  0.00  0.00    +0.000 A 
ATOM      7  C   UNL     1     112.128 127.092 140.682  0.00  0.00    +0.000 A 
ENDROOT
BRANCH   2  12
ATOM      8  O   UNL     1     112.289 125.869 138.318  0.00  0.00    +0.000 OA
ATOM      9  O   UNL     1     114.190 126.539 139.156  0.00  0.00    +0.000 OA
ATOM     10  O   UNL     1     114.451 124.505 136.972  0.00  0.00    +0.000 OA
ATOM     11  O   UNL     1     111.687 123.953 136.209  0.00  0.00    +0.000 OA
ATOM     12  C   UNL     1     112.836 126.272 138.787  0.00  0.00    +0.000 C 
ATOM     13  C   UNL     1     113.643 126.136 138.688  0.00  0.00    +0.000 C 
ATOM     14  C   UNL     1     113.905 125.597 138.121  0.00  0.00    +0.000 C 
ATOM     15  C   UNL     1     113.358 125.194 137.651  0.00  0.00    +0.000 A 
ATOM     16  C   UNL     1     112.550 125.331 137.751  0.00  0.00    +0.000 A 
ATOM     17  C   UNL     1     113.642 124.635 137.064  0.00  0.00    +0.000 A 
ATOM     18  C   UNL     1     111.971 124.917 137.269  0.00  0.00    +0.000 A 
ATOM     19  C   UNL     1     113.078 124.213 136.573  0.00  0.00    +0.000 A 
ATOM     20  C   UNL     1     112.236 124.354 136.676  0.00  0.00    +0.000 A 
ENDBRANCH   2  12
BRANCH   6  21
ATOM     21  O   UNL     1     111.790 128.430 141.054  0.00  0.00    +0.000 OA
ATOM     22  C   UNL     1     112.227 128.547 141.745  0.00  0.00    +0.000 C 
ENDBRANCH   6  21
BRANCH   3  23
ATOM     23  O   UNL     1     112.161 128.947 139.532  0.00  0.00    +0.000 OA
BRANCH  23  31
ATOM     24  O   UNL     1     110.930 128.907 138.807  0.00  0.00    +0.000 OA
ATOM     25  O   UNL     1     111.907 130.373 137.068  0.00  0.00    +0.000 OA
ATOM     26  O   UNL     1     112.812 129.924 138.373  0.00  0.00    +0.000 OA
ATOM     27  O   UNL     1     110.351 129.845 136.923  0.00  0.00    +0.000 OA
ATOM     28  C   UNL     1     111.582 129.884 137.648  0.00  0.00    +0.000 C 
ATOM     29  C   UNL     1     112.035 129.660 138.300  0.00  0.00    +0.000 C 
ATOM     30  C   UNL     1     110.804 129.621 137.575  0.00  0.00    +0.000 C 
ATOM     31  C   UNL     1     111.709 129.171 138.879  0.00  0.00    +0.000 C 
ATOM     32  C   UNL     1     110.478 129.132 138.154  0.00  0.00    +0.000 C 
BRANCH  32  35
ATOM     33  O   UNL     1     109.088 129.283 138.447  0.00  0.00    +0.000 OA
ATOM     34  O   UNL     1     109.534 128.189 137.644  0.00  0.00    +0.000 OA
ATOM     35  C   UNL     1     109.700 128.868 138.082  0.00  0.00    +0.000 C 
ENDBRANCH  32  35
ENDBRANCH  23  31
ENDBRANCH   3  23
TORSDOF 5
ENDMDL
MODEL 10
REMARK VINA RESULT:      -9.0      9.877     12.186
REMARK  Name = 76972097
REMARK  5 active torsions:
REMARK  status: ('A' for Active; 'I' for Inactive)
REMARK    1  A    between atoms: O_2  and  C_17
REMARK    2  A    between atoms: O_2  and  C_24
REMARK    3  A    between atoms: O_9  and  C_29
REMARK    4  A    between atoms: C_18  and  C_25
REMARK    5  A    between atoms: C_19  and  C_22
REMARK                            x       y       z     vdW  Elec       q    Type
REMARK                         _______ _______ _______ _____ _____    ______ ____
ROOT
ATOM      1  O   UNL     1     114.316 129.201 135.880  0.00  0.00    +0.000 OA
ATOM      2  C   UNL     1     112.820 127.841 136.700  0.00  0.00    +0.000 A 
ATOM      3  C   UNL     1     112.931 128.983 137.552  0.00  0.00    +0.000 A 
ATOM      4  C   UNL     1     112.588 128.254 137.376  0.00  0.00    +0.000 A 
ATOM      5  C   UNL     1     113.396 128.157 136.202  0.00  0.00    +0.000 A 
ATOM      6  C   UNL     1     113.508 129.299 137.053  0.00  0.00    +0.000 A 
ATOM      7  C   UNL     1     113.740 128.886 136.378  0.00  0.00    +0.000 A 
ENDROOT
BRANCH   2  12
ATOM      8  O   UNL     1     112.821 126.415 136.802  0.00  0.00    +0.000 OA
ATOM      9  O   UNL     1     111.442 127.775 135.795  0.00  0.00    +0.000 OA
ATOM     10  O   UNL     1     110.731 124.877 135.531  0.00  0.00    +0.000 OA
ATOM     11  O   UNL     1     112.839 123.511 137.021  0.00  0.00    +0.000 OA
ATOM     12  C   UNL     1     112.475 127.112 136.525  0.00  0.00    +0.000 C 
ATOM     13  C   UNL     1     111.787 127.079 136.072  0.00  0.00    +0.000 C 
ATOM     14  C   UNL     1     111.443 126.350 135.897  0.00  0.00    +0.000 C 
ATOM     15  C   UNL     1     111.788 125.653 136.174  0.00  0.00    +0.000 A 
ATOM     16  C   UNL     1     112.477 125.687 136.627  0.00  0.00    +0.000 A 
ATOM     17  C   UNL     1     111.421 124.900 135.985  0.00  0.00    +0.000 A 
ATOM     18  C   UNL     1     112.846 124.969 136.922  0.00  0.00    +0.000 A 
ATOM     19  C   UNL     1     111.775 124.172 136.271  0.00  0.00    +0.000 A 
ATOM     20  C   UNL     1     112.492 124.206 136.742  0.00  0.00    +0.000 A 
ENDBRANCH   2  12
BRANCH   6  21
ATOM     21  O   UNL     1     113.852 130.028 137.230  0.00  0.00    +0.000 OA
ATOM     22  C   UNL     1     113.776 130.658 136.702  0.00  0.00    +0.000 C 
ENDBRANCH   6  21
BRANCH   3  23
ATOM     23  O   UNL     1     112.699 129.396 138.227  0.00  0.00    +0.000 OA
BRANCH  23  31
ATOM     24  O   UNL     1     113.296 128.586 139.242  0.00  0.00    +0.000 OA
ATOM     25  O   UNL     1     111.196 128.677 140.549  0.00  0.00    +0.000 OA
ATOM     26  O   UNL     1     111.299 129.457 139.098  0.00  0.00    +0.000 OA
ATOM     27  O   UNL     1     112.493 127.836 141.128  0.00  0.00    +0.000 OA
ATOM     28  C   UNL     1     111.896 128.646 140.113  0.00  0.00    +0.000 C 
ATOM     29  C   UNL     1     111.947 129.037 139.388  0.00  0.00    +0.000 C 
ATOM     30  C   UNL     1     112.544 128.226 140.402  0.00  0.00    +0.000 C 
ATOM     31  C   UNL     1     112.647 129.006 138.952  0.00  0.00    +0.000 C 
ATOM     32  C   UNL     1     113.244 128.196 139.967  0.00  0.00    +0.000 C 
BRANCH  32  35
ATOM     33  O   UNL     1     113.966 126.970 140.095  0.00  0.00    +0.000 OA
ATOM     34  O   UNL     1     114.466 128.160 140.706  0.00  0.00    +0.000 OA
ATOM     35  C   UNL     1     113.892 127.775 140.256  0.00  0.00    +0.000 C 
ENDBRANCH  32  35
ENDBRANCH  23  31
ENDBRANCH   3  23
TORSDOF 5
ENDMDL
