MODEL 1
REMARK VINA RESULT:      -9.9      0.000      0.000
REMARK  Name = 
REMARK  6 active torsions:
REMARK  status: ('A' for Active; 'I' for Inactive)
REMARK    1  A    between atoms: C_2  and  C_7
REMARK    2  A    between atoms: C_6  and  O_22
REMARK    3  A    between atoms: C_12  and  O_19
REMARK    4  A    between atoms: O_19  and  C_30
REMARK    5  A    between atoms: O_22  and  S_23
REMARK    6  A    between atoms: C_32  and  C_33
REMARK                            x       y       z     vdW  Elec       q    Type
REMARK                         _______ _______ _______ _____ _____    ______ ____
ROOT
ATOM      1  C   UNL     1     113.165 127.611 136.704  0.00  0.00    +0.000 A 
ATOM      2  O   UNL     1     113.777 128.042 135.965  0.00  0.00    +0.000 OA
ATOM      3  C   UNL     1     114.056 129.054 136.037  0.00  0.00    +0.000 A 
ATOM      4  C   UNL     1     113.723 129.635 136.849  0.00  0.00    +0.000 A 
ATOM      5  C   UNL     1     113.111 129.205 137.589  0.00  0.00    +0.000 A 
ATOM      6  C   UNL     1     112.832 128.192 137.517  0.00  0.00    +0.000 A 
ATOM      7  C   UNL     1     114.669 129.485 135.297  0.00  0.00    +0.000 A 
ATOM      8  C   UNL     1     114.948 130.498 135.369  0.00  0.00    +0.000 A 
ATOM      9  C   UNL     1     114.616 131.079 136.181  0.00  0.00    +0.000 A 
ATOM     10  C   UNL     1     114.003 130.648 136.922  0.00  0.00    +0.000 A 
ATOM     11  O   UNL     1     112.845 129.670 138.240  0.00  0.00    +0.000 OA
ATOM     12  O   UNL     1     115.561 130.929 134.629  0.00  0.00    +0.000 OA
ATOM     13  O   UNL     1     113.710 131.160 137.637  0.00  0.00    +0.000 OA
ENDROOT
BRANCH   1  15
ATOM     14  C   UNL     1     111.945 126.338 136.237  0.00  0.00    +0.000 A 
ATOM     15  C   UNL     1     112.885 126.598 136.633  0.00  0.00    +0.000 A 
ATOM     16  C   UNL     1     113.546 125.845 136.957  0.00  0.00    +0.000 A 
ATOM     17  C   UNL     1     113.266 124.833 136.885  0.00  0.00    +0.000 A 
ATOM     18  C   UNL     1     112.327 124.573 136.489  0.00  0.00    +0.000 A 
ATOM     19  C   UNL     1     111.666 125.326 136.165  0.00  0.00    +0.000 A 
ATOM     20  O   UNL     1     112.095 123.734 136.430  0.00  0.00    +0.000 OA
BRANCH  19  21
ATOM     21  O   UNL     1     110.605 125.271 135.706  0.00  0.00    +0.000 OA
BRANCH  21  22
ATOM     22  S   UNL     1     110.082 125.742 135.414  0.00  0.00    +0.000 S 
ATOM     23  O   UNL     1     109.505 126.264 135.092  0.00  0.00    +0.000 OA
ATOM     24  O   UNL     1     109.777 125.863 136.156  0.00  0.00    +0.000 OA
ATOM     25  O   UNL     1     110.412 125.612 134.612  0.00  0.00    +0.000 OA
ENDBRANCH  21  22
ENDBRANCH  19  21
ENDBRANCH   1  15
BRANCH   6  26
ATOM     26  O   UNL     1     112.278 127.901 138.235  0.00  0.00    +0.000 OA
BRANCH  26  30
ATOM     27  C   UNL     1     111.961 126.406 140.801  0.00  0.00    +0.000 C 
ATOM     28  C   UNL     1     110.989 126.745 140.576  0.00  0.00    +0.000 C 
ATOM     29  C   UNL     1     111.082 127.276 139.672  0.00  0.00    +0.000 C 
ATOM     30  C   UNL     1     110.637 127.838 138.900  0.00  0.00    +0.000 C 
ATOM     31  O   UNL     1     111.607 127.499 139.125  0.00  0.00    +0.000 OA
ATOM     32  C   UNL     1     111.514 126.968 140.030  0.00  0.00    +0.000 C 
ATOM     33  O   UNL     1     111.461 126.112 141.454  0.00  0.00    +0.000 OA
ATOM     34  O   UNL     1     111.403 126.417 140.973  0.00  0.00    +0.000 OA
ATOM     35  O   UNL     1     110.325 127.209 140.042  0.00  0.00    +0.000 OA
BRANCH  32  36
ATOM     36  C   UNL     1     112.273 126.814 140.023  0.00  0.00    +0.000 C 
ATOM     37  O   UNL     1     112.711 126.439 140.432  0.00  0.00    +0.000 OA
ENDBRANCH  32  36
ENDBRANCH  26  30
ENDBRANCH   6  26
TORSDOF 6
ENDMDL
MODEL 2
REMARK VINA RESULT:      -9.8      1.292      3.693
REMARK  Name = 
REMARK  6 active torsions:
REMARK  status: ('A' for Active; 'I' for Inactive)
REMARK    1  A    between atoms: C_2  and  C_7
REMARK    2  A    between atoms: C_6  and  O_22
REMARK    3  A    between atoms: C_12  and  O_19
REMARK    4  A    between atoms: O_19  and  C_30
REMARK    5  A    between atoms: O_22  and  S_23
REMARK    6  A    between atoms: C_32  and  C_33
REMARK                            x       y       z     vdW  Elec       q    Type
REMARK                         _______ _______ _______ _____ _____    ______ ____
ROOT
ATOM      1  C   UNL     1     112.988 128.075 138.183  0.00  0.00    +0.000 A 
ATOM      2  O   UNL     1     113.059 129.126 138.170  0.00  0.00    +0.000 OA
ATOM      3  C   UNL     1     113.450 129.617 137.326  0.00  0.00    +0.000 A 
ATOM      4  C   UNL     1     113.770 129.058 136.493  0.00  0.00    +0.000 A 
ATOM      5  C   UNL     1     113.700 128.008 136.504  0.00  0.00    +0.000 A 
ATOM      6  C   UNL     1     113.308 127.516 137.350  0.00  0.00    +0.000 A 
ATOM      7  C   UNL     1     113.521 130.667 137.314  0.00  0.00    +0.000 A 
ATOM      8  C   UNL     1     113.912 131.159 136.469  0.00  0.00    +0.000 A 
ATOM      9  C   UNL     1     114.233 130.600 135.636  0.00  0.00    +0.000 A 
ATOM     10  C   UNL     1     114.162 129.549 135.648  0.00  0.00    +0.000 A 
ATOM     11  O   UNL     1     113.957 127.560 135.838  0.00  0.00    +0.000 OA
ATOM     12  O   UNL     1     113.983 132.209 136.457  0.00  0.00    +0.000 OA
ATOM     13  O   UNL     1     114.444 129.057 134.915  0.00  0.00    +0.000 OA
ENDROOT
BRANCH   1  15
ATOM     14  C   UNL     1     111.579 127.316 139.057  0.00  0.00    +0.000 A 
ATOM     15  C   UNL     1     112.597 127.583 139.027  0.00  0.00    +0.000 A 
ATOM     16  C   UNL     1     113.224 127.358 139.843  0.00  0.00    +0.000 A 
ATOM     17  C   UNL     1     112.833 126.866 140.687  0.00  0.00    +0.000 A 
ATOM     18  C   UNL     1     111.815 126.600 140.717  0.00  0.00    +0.000 A 
ATOM     19  C   UNL     1     111.188 126.825 139.901  0.00  0.00    +0.000 A 
ATOM     20  O   UNL     1     111.491 126.192 141.417  0.00  0.00    +0.000 OA
BRANCH  19  21
ATOM     21  O   UNL     1     110.062 126.628 139.722  0.00  0.00    +0.000 OA
BRANCH  21  22
ATOM     22  S   UNL     1     109.588 126.505 139.137  0.00  0.00    +0.000 S 
ATOM     23  O   UNL     1     109.066 126.369 138.492  0.00  0.00    +0.000 OA
ATOM     24  O   UNL     1     109.849 125.739 139.088  0.00  0.00    +0.000 OA
ATOM     25  O   UNL     1     109.306 127.334 139.191  0.00  0.00    +0.000 OA
ENDBRANCH  21  22
ENDBRANCH  19  21
ENDBRANCH   1  15
BRANCH   6  26
ATOM     26  O   UNL     1     113.288 126.568 137.259  0.00  0.00    +0.000 OA
BRANCH  26  30
ATOM     27  C   UNL     1     111.818 124.083 136.498  0.00  0.00    +0.000 C 
ATOM     28  C   UNL     1     112.759 123.738 136.823  0.00  0.00    +0.000 C 
ATOM     29  C   UNL     1     113.292 124.604 137.096  0.00  0.00    +0.000 C 
ATOM     30  C   UNL     1     114.174 125.047 137.464  0.00  0.00    +0.000 C 
ATOM     31  O   UNL     1     113.234 125.391 137.140  0.00  0.00    +0.000 OA
ATOM     32  C   UNL     1     112.700 124.525 136.867  0.00  0.00    +0.000 C 
ATOM     33  O   UNL     1     111.784 123.215 136.413  0.00  0.00    +0.000 OA
ATOM     34  O   UNL     1     112.155 123.614 136.586  0.00  0.00    +0.000 OA
ATOM     35  O   UNL     1     113.659 123.846 137.170  0.00  0.00    +0.000 OA
BRANCH  32  36
ATOM     36  C   UNL     1     112.088 124.958 136.673  0.00  0.00    +0.000 C 
ATOM     37  O   UNL     1     111.476 124.838 136.339  0.00  0.00    +0.000 OA
ENDBRANCH  32  36
ENDBRANCH  26  30
ENDBRANCH   6  26
TORSDOF 6
ENDMDL
MODEL 3
REMARK VINA RESULT:      -9.6      2.459      5.603
REMARK  Name = 
REMARK  6 active torsions:
REMARK  status: ('A' for Active; 'I' for Inactive)
REMARK    1  A    between atoms: C_2  and  C_7
REMARK    2  A    between atoms: C_6  and  O_22
REMARK    3  A    between atoms: C_12  and  O_19
REMARK    4  A    between atoms: O_19  and  C_30
REMARK    5  A    between atoms: O_22  and  S_23
REMARK    6  A    between atoms: C_32  and  C_33
REMARK                            x       y       z     vdW  Elec       q    Type
REMARK                         _______ _______ _______ _____ _____    ______ ____
ROOT
ATOM      1  C   UNL     1     111.898 127.431 136.149  0.00  0.00    +0.000 A 
ATOM      2  O   UNL     1     111.471 126.470 136.210  0.00  0.00    +0.000 OA
ATOM      3  C   UNL     1     112.069 125.644 136.471  0.00  0.00    +0.000 A 
ATOM      4  C   UNL     1     113.094 125.778 136.670  0.00  0.00    +0.000 A 
ATOM      5  C   UNL     1     113.522 126.738 136.609  0.00  0.00    +0.000 A 
ATOM      6  C   UNL     1     112.923 127.565 136.349  0.00  0.00    +0.000 A 
ATOM      7  C   UNL     1     111.642 124.684 136.532  0.00  0.00    +0.000 A 
ATOM      8  C   UNL     1     112.240 123.857 136.792  0.00  0.00    +0.000 A 
ATOM      9  C   UNL     1     113.265 123.991 136.992  0.00  0.00    +0.000 A 
ATOM     10  C   UNL     1     113.693 124.952 136.931  0.00  0.00    +0.000 A 
ATOM     11  O   UNL     1     114.343 126.845 136.769  0.00  0.00    +0.000 OA
ATOM     12  O   UNL     1     111.813 122.897 136.854  0.00  0.00    +0.000 OA
ATOM     13  O   UNL     1     114.595 125.070 137.107  0.00  0.00    +0.000 OA
ENDROOT
BRANCH   1  15
ATOM     14  C   UNL     1     110.802 128.804 136.637  0.00  0.00    +0.000 A 
ATOM     15  C   UNL     1     111.301 128.257 135.889  0.00  0.00    +0.000 A 
ATOM     16  C   UNL     1     111.202 128.538 134.878  0.00  0.00    +0.000 A 
ATOM     17  C   UNL     1     110.604 129.364 134.618  0.00  0.00    +0.000 A 
ATOM     18  C   UNL     1     110.106 129.910 135.366  0.00  0.00    +0.000 A 
ATOM     19  C   UNL     1     110.205 129.630 136.377  0.00  0.00    +0.000 A 
ATOM     20  O   UNL     1     109.611 130.596 135.150  0.00  0.00    +0.000 OA
BRANCH  19  21
ATOM     21  O   UNL     1     109.756 130.078 137.345  0.00  0.00    +0.000 OA
BRANCH  21  22
ATOM     22  S   UNL     1     109.438 129.835 137.994  0.00  0.00    +0.000 S 
ATOM     23  O   UNL     1     109.085 129.566 138.710  0.00  0.00    +0.000 OA
ATOM     24  O   UNL     1     108.739 129.707 137.602  0.00  0.00    +0.000 OA
ATOM     25  O   UNL     1     110.193 129.974 138.417  0.00  0.00    +0.000 OA
ENDBRANCH  21  22
ENDBRANCH  19  21
ENDBRANCH   1  15
BRANCH   6  26
ATOM     26  O   UNL     1     113.406 128.386 136.322  0.00  0.00    +0.000 OA
BRANCH  26  30
ATOM     27  C   UNL     1     115.194 130.278 134.858  0.00  0.00    +0.000 C 
ATOM     28  C   UNL     1     114.999 130.760 135.775  0.00  0.00    +0.000 C 
ATOM     29  C   UNL     1     114.368 130.105 136.305  0.00  0.00    +0.000 C 
ATOM     30  C   UNL     1     113.811 129.887 137.172  0.00  0.00    +0.000 C 
ATOM     31  O   UNL     1     114.005 129.405 136.256  0.00  0.00    +0.000 OA
ATOM     32  C   UNL     1     114.636 130.061 135.725  0.00  0.00    +0.000 C 
ATOM     33  O   UNL     1     115.633 131.031 134.816  0.00  0.00    +0.000 OA
ATOM     34  O   UNL     1     115.293 130.753 135.183  0.00  0.00    +0.000 OA
ATOM     35  O   UNL     1     114.599 130.839 136.655  0.00  0.00    +0.000 OA
BRANCH  32  36
ATOM     36  C   UNL     1     114.660 129.564 135.132  0.00  0.00    +0.000 C 
ATOM     37  O   UNL     1     115.120 129.427 134.612  0.00  0.00    +0.000 OA
ENDBRANCH  32  36
ENDBRANCH  26  30
ENDBRANCH   6  26
TORSDOF 6
ENDMDL
MODEL 4
REMARK VINA RESULT:      -9.6      2.565      5.492
REMARK  Name = 
REMARK  6 active torsions:
REMARK  status: ('A' for Active; 'I' for Inactive)
REMARK    1  A    between atoms: C_2  and  C_7
REMARK    2  A    between atoms: C_6  and  O_22
REMARK    3  A    between atoms: C_12  and  O_19
REMARK    4  A    between atoms: O_19  and  C_30
REMARK    5  A    between atoms: O_22  and  S_23
REMARK    6  A    between atoms: C_32  and  C_33
REMARK                            x       y       z     vdW  Elec       q    Type
REMARK                         _______ _______ _______ _____ _____    ______ ____
ROOT
ATOM      1  C   UNL     1     112.870 128.032 136.630  0.00  0.00    +0.000 A 
ATOM      2  O   UNL     1     113.583 127.332 136.962  0.00  0.00    +0.000 OA
ATOM      3  C   UNL     1     113.385 126.302 136.889  0.00  0.00    +0.000 A 
ATOM      4  C   UNL     1     112.472 125.970 136.482  0.00  0.00    +0.000 A 
ATOM      5  C   UNL     1     111.758 126.668 136.148  0.00  0.00    +0.000 A 
ATOM      6  C   UNL     1     111.958 127.699 136.223  0.00  0.00    +0.000 A 
ATOM      7  C   UNL     1     114.098 125.603 137.221  0.00  0.00    +0.000 A 
ATOM      8  C   UNL     1     113.899 124.571 137.148  0.00  0.00    +0.000 A 
ATOM      9  C   UNL     1     112.987 124.239 136.741  0.00  0.00    +0.000 A 
ATOM     10  C   UNL     1     112.273 124.938 136.407  0.00  0.00    +0.000 A 
ATOM     11  O   UNL     1     111.028 126.402 135.823  0.00  0.00    +0.000 OA
ATOM     12  O   UNL     1     114.612 123.872 137.481  0.00  0.00    +0.000 OA
ATOM     13  O   UNL     1     111.469 124.646 136.049  0.00  0.00    +0.000 OA
ENDROOT
BRANCH   1  15
ATOM     14  C   UNL     1     112.599 129.638 137.450  0.00  0.00    +0.000 A 
ATOM     15  C   UNL     1     113.069 129.063 136.703  0.00  0.00    +0.000 A 
ATOM     16  C   UNL     1     113.737 129.520 136.030  0.00  0.00    +0.000 A 
ATOM     17  C   UNL     1     113.936 130.551 136.103  0.00  0.00    +0.000 A 
ATOM     18  C   UNL     1     113.467 131.125 136.850  0.00  0.00    +0.000 A 
ATOM     19  C   UNL     1     112.798 130.669 137.523  0.00  0.00    +0.000 A 
ATOM     20  O   UNL     1     113.631 131.980 136.911  0.00  0.00    +0.000 OA
BRANCH  19  21
ATOM     21  O   UNL     1     112.182 131.098 138.404  0.00  0.00    +0.000 OA
BRANCH  21  22
ATOM     22  S   UNL     1     111.538 130.944 138.780  0.00  0.00    +0.000 S 
ATOM     23  O   UNL     1     110.826 130.773 139.197  0.00  0.00    +0.000 OA
ATOM     24  O   UNL     1     111.971 130.642 139.396  0.00  0.00    +0.000 OA
ATOM     25  O   UNL     1     111.070 131.271 138.114  0.00  0.00    +0.000 OA
ENDBRANCH  21  22
ENDBRANCH  19  21
ENDBRANCH   1  15
BRANCH   6  26
ATOM     26  O   UNL     1     111.249 128.245 135.894  0.00  0.00    +0.000 OA
BRANCH  26  30
ATOM     27  C   UNL     1     108.530 129.426 136.250  0.00  0.00    +0.000 C 
ATOM     28  C   UNL     1     108.870 129.829 135.338  0.00  0.00    +0.000 C 
ATOM     29  C   UNL     1     109.831 129.421 135.196  0.00  0.00    +0.000 C 
ATOM     30  C   UNL     1     110.703 129.340 134.612  0.00  0.00    +0.000 C 
ATOM     31  O   UNL     1     110.363 128.938 135.523  0.00  0.00    +0.000 OA
ATOM     32  C   UNL     1     109.402 129.345 135.666  0.00  0.00    +0.000 C 
ATOM     33  O   UNL     1     107.880 129.939 135.972  0.00  0.00    +0.000 OA
ATOM     34  O   UNL     1     108.402 129.777 135.802  0.00  0.00    +0.000 OA
ATOM     35  O   UNL     1     109.511 129.952 134.620  0.00  0.00    +0.000 OA
BRANCH  32  36
ATOM     36  C   UNL     1     109.332 128.959 136.333  0.00  0.00    +0.000 C 
ATOM     37  O   UNL     1     108.917 129.015 136.902  0.00  0.00    +0.000 OA
ENDBRANCH  32  36
ENDBRANCH  26  30
ENDBRANCH   6  26
TORSDOF 6
ENDMDL
MODEL 5
REMARK VINA RESULT:      -9.5      7.207      9.932
REMARK  Name = 
REMARK  6 active torsions:
REMARK  status: ('A' for Active; 'I' for Inactive)
REMARK    1  A    between atoms: C_2  and  C_7
REMARK    2  A    between atoms: C_6  and  O_22
REMARK    3  A    between atoms: C_12  and  O_19
REMARK    4  A    between atoms: O_19  and  C_30
REMARK    5  A    between atoms: O_22  and  S_23
REMARK    6  A    between atoms: C_32  and  C_33
REMARK                            x       y       z     vdW  Elec       q    Type
REMARK                         _______ _______ _______ _____ _____    ______ ____
ROOT
ATOM      1  C   UNL     1     105.210 128.304 143.526  0.00  0.00    +0.000 A 
ATOM      2  O   UNL     1     104.529 129.082 143.727  0.00  0.00    +0.000 OA
ATOM      3  C   UNL     1     103.942 129.481 142.950  0.00  0.00    +0.000 A 
ATOM      4  C   UNL     1     104.036 129.103 141.972  0.00  0.00    +0.000 A 
ATOM      5  C   UNL     1     104.716 128.325 141.770  0.00  0.00    +0.000 A 
ATOM      6  C   UNL     1     105.303 127.926 142.548  0.00  0.00    +0.000 A 
ATOM      7  C   UNL     1     103.261 130.259 143.151  0.00  0.00    +0.000 A 
ATOM      8  C   UNL     1     102.674 130.658 142.374  0.00  0.00    +0.000 A 
ATOM      9  C   UNL     1     102.767 130.280 141.396  0.00  0.00    +0.000 A 
ATOM     10  C   UNL     1     103.448 129.502 141.194  0.00  0.00    +0.000 A 
ATOM     11  O   UNL     1     104.790 128.023 140.987  0.00  0.00    +0.000 OA
ATOM     12  O   UNL     1     101.993 131.436 142.575  0.00  0.00    +0.000 OA
ATOM     13  O   UNL     1     103.530 129.169 140.333  0.00  0.00    +0.000 OA
ENDROOT
BRANCH   1  15
ATOM     14  C   UNL     1     105.587 126.945 144.683  0.00  0.00    +0.000 A 
ATOM     15  C   UNL     1     105.797 127.904 144.303  0.00  0.00    +0.000 A 
ATOM     16  C   UNL     1     106.596 128.464 144.700  0.00  0.00    +0.000 A 
ATOM     17  C   UNL     1     107.183 128.064 145.477  0.00  0.00    +0.000 A 
ATOM     18  C   UNL     1     106.973 127.106 145.856  0.00  0.00    +0.000 A 
ATOM     19  C   UNL     1     106.174 126.546 145.459  0.00  0.00    +0.000 A 
ATOM     20  O   UNL     1     107.460 126.774 146.500  0.00  0.00    +0.000 OA
BRANCH  19  21
ATOM     21  O   UNL     1     105.771 125.493 145.719  0.00  0.00    +0.000 OA
BRANCH  21  22
ATOM     22  S   UNL     1     105.557 124.857 145.357  0.00  0.00    +0.000 S 
ATOM     23  O   UNL     1     105.321 124.155 144.957  0.00  0.00    +0.000 OA
ATOM     24  O   UNL     1     106.335 124.666 145.232  0.00  0.00    +0.000 OA
ATOM     25  O   UNL     1     104.715 125.063 145.492  0.00  0.00    +0.000 OA
ENDBRANCH  21  22
ENDBRANCH  19  21
ENDBRANCH   1  15
BRANCH   6  26
ATOM     26  O   UNL     1     105.885 127.228 142.261  0.00  0.00    +0.000 OA
BRANCH  26  30
ATOM     27  C   UNL     1     106.291 124.386 141.440  0.00  0.00    +0.000 C 
ATOM     28  C   UNL     1     107.245 124.823 141.341  0.00  0.00    +0.000 C 
ATOM     29  C   UNL     1     107.119 125.829 141.628  0.00  0.00    +0.000 C 
ATOM     30  C   UNL     1     107.533 126.785 141.782  0.00  0.00    +0.000 C 
ATOM     31  O   UNL     1     106.580 126.348 141.880  0.00  0.00    +0.000 OA
ATOM     32  C   UNL     1     106.705 125.342 141.594  0.00  0.00    +0.000 C 
ATOM     33  O   UNL     1     106.808 123.741 141.160  0.00  0.00    +0.000 OA
ATOM     34  O   UNL     1     106.849 124.296 141.293  0.00  0.00    +0.000 OA
ATOM     35  O   UNL     1     107.882 125.553 141.388  0.00  0.00    +0.000 OA
BRANCH  32  36
ATOM     36  C   UNL     1     105.954 125.207 141.725  0.00  0.00    +0.000 C 
ATOM     37  O   UNL     1     105.536 124.637 141.700  0.00  0.00    +0.000 OA
ENDBRANCH  32  36
ENDBRANCH  26  30
ENDBRANCH   6  26
TORSDOF 6
ENDMDL
MODEL 6
REMARK VINA RESULT:      -9.4      2.988      5.411
REMARK  Name = 
REMARK  6 active torsions:
REMARK  status: ('A' for Active; 'I' for Inactive)
REMARK    1  A    between atoms: C_2  and  C_7
REMARK    2  A    between atoms: C_6  and  O_22
REMARK    3  A    between atoms: C_12  and  O_19
REMARK    4  A    between atoms: O_19  and  C_30
REMARK    5  A    between atoms: O_22  and  S_23
REMARK    6  A    between atoms: C_32  and  C_33
REMARK                            x       y       z     vdW  Elec       q    Type
REMARK                         _______ _______ _______ _____ _____    ______ ____
ROOT
ATOM      1  C   UNL     1     111.506 129.028 138.185  0.00  0.00    +0.000 A 
ATOM      2  O   UNL     1     111.127 128.387 137.440  0.00  0.00    +0.000 OA
ATOM      3  C   UNL     1     111.517 127.416 137.333  0.00  0.00    +0.000 A 
ATOM      4  C   UNL     1     112.287 127.085 137.971  0.00  0.00    +0.000 A 
ATOM      5  C   UNL     1     112.667 127.725 138.715  0.00  0.00    +0.000 A 
ATOM      6  C   UNL     1     112.276 128.697 138.822  0.00  0.00    +0.000 A 
ATOM      7  C   UNL     1     111.138 126.775 136.589  0.00  0.00    +0.000 A 
ATOM      8  C   UNL     1     111.529 125.803 136.482  0.00  0.00    +0.000 A 
ATOM      9  C   UNL     1     112.298 125.472 137.120  0.00  0.00    +0.000 A 
ATOM     10  C   UNL     1     112.678 126.113 137.864  0.00  0.00    +0.000 A 
ATOM     11  O   UNL     1     113.283 127.460 139.226  0.00  0.00    +0.000 OA
ATOM     12  O   UNL     1     111.150 125.162 135.738  0.00  0.00    +0.000 OA
ATOM     13  O   UNL     1     113.356 125.821 138.426  0.00  0.00    +0.000 OA
ENDROOT
BRANCH   1  15
ATOM     14  C   UNL     1     110.317 130.177 138.954  0.00  0.00    +0.000 A 
ATOM     15  C   UNL     1     111.116 130.000 138.292  0.00  0.00    +0.000 A 
ATOM     16  C   UNL     1     111.525 130.796 137.736  0.00  0.00    +0.000 A 
ATOM     17  C   UNL     1     111.135 131.768 137.844  0.00  0.00    +0.000 A 
ATOM     18  C   UNL     1     110.337 131.944 138.505  0.00  0.00    +0.000 A 
ATOM     19  C   UNL     1     109.927 131.149 139.061  0.00  0.00    +0.000 A 
ATOM     20  O   UNL     1     110.013 132.750 138.594  0.00  0.00    +0.000 OA
BRANCH  19  21
ATOM     21  O   UNL     1     109.064 131.114 139.831  0.00  0.00    +0.000 OA
BRANCH  21  22
ATOM     22  S   UNL     1     108.551 130.616 140.093  0.00  0.00    +0.000 S 
ATOM     23  O   UNL     1     107.983 130.065 140.382  0.00  0.00    +0.000 OA
ATOM     24  O   UNL     1     108.149 130.661 139.390  0.00  0.00    +0.000 OA
ATOM     25  O   UNL     1     108.985 130.567 140.853  0.00  0.00    +0.000 OA
ENDBRANCH  21  22
ENDBRANCH  19  21
ENDBRANCH   1  15
BRANCH   6  26
ATOM     26  O   UNL     1     112.687 129.194 139.523  0.00  0.00    +0.000 OA
BRANCH  26  30
ATOM     27  C   UNL     1     114.828 131.060 140.447  0.00  0.00    +0.000 C 
ATOM     28  C   UNL     1     114.244 130.888 141.307  0.00  0.00    +0.000 C 
ATOM     29  C   UNL     1     113.482 130.230 140.999  0.00  0.00    +0.000 C 
ATOM     30  C   UNL     1     112.624 129.665 141.231  0.00  0.00    +0.000 C 
ATOM     31  O   UNL     1     113.208 129.837 140.372  0.00  0.00    +0.000 OA
ATOM     32  C   UNL     1     113.970 130.495 140.680  0.00  0.00    +0.000 C 
ATOM     33  O   UNL     1     115.206 131.532 141.076  0.00  0.00    +0.000 OA
ATOM     34  O   UNL     1     114.759 131.181 141.014  0.00  0.00    +0.000 OA
ATOM     35  O   UNL     1     113.509 130.493 141.802  0.00  0.00    +0.000 OA
BRANCH  32  36
ATOM     36  C   UNL     1     114.264 130.496 139.964  0.00  0.00    +0.000 C 
ATOM     37  O   UNL     1     114.547 130.987 139.540  0.00  0.00    +0.000 OA
ENDBRANCH  32  36
ENDBRANCH  26  30
ENDBRANCH   6  26
TORSDOF 6
ENDMDL
MODEL 7
REMARK VINA RESULT:      -9.4      3.009      6.073
REMARK  Name = 
REMARK  6 active torsions:
REMARK  status: ('A' for Active; 'I' for Inactive)
REMARK    1  A    between atoms: C_2  and  C_7
REMARK    2  A    between atoms: C_6  and  O_22
REMARK    3  A    between atoms: C_12  and  O_19
REMARK    4  A    between atoms: O_19  and  C_30
REMARK    5  A    between atoms: O_22  and  S_23
REMARK    6  A    between atoms: C_32  and  C_33
REMARK                            x       y       z     vdW  Elec       q    Type
REMARK                         _______ _______ _______ _____ _____    ______ ____
ROOT
ATOM      1  C   UNL     1     111.072 127.946 137.434  0.00  0.00    +0.000 A 
ATOM      2  O   UNL     1     111.461 127.032 137.783  0.00  0.00    +0.000 OA
ATOM      3  C   UNL     1     111.397 126.170 137.184  0.00  0.00    +0.000 A 
ATOM      4  C   UNL     1     110.943 126.220 136.235  0.00  0.00    +0.000 A 
ATOM      5  C   UNL     1     110.553 127.133 135.885  0.00  0.00    +0.000 A 
ATOM      6  C   UNL     1     110.618 127.997 136.485  0.00  0.00    +0.000 A 
ATOM      7  C   UNL     1     111.786 125.256 137.533  0.00  0.00    +0.000 A 
ATOM      8  C   UNL     1     111.722 124.393 136.934  0.00  0.00    +0.000 A 
ATOM      9  C   UNL     1     111.268 124.443 135.985  0.00  0.00    +0.000 A 
ATOM     10  C   UNL     1     110.878 125.357 135.635  0.00  0.00    +0.000 A 
ATOM     11  O   UNL     1     110.190 127.174 135.126  0.00  0.00    +0.000 OA
ATOM     12  O   UNL     1     112.111 123.479 137.282  0.00  0.00    +0.000 OA
ATOM     13  O   UNL     1     110.479 125.402 134.800  0.00  0.00    +0.000 OA
ENDROOT
BRANCH   1  15
ATOM     14  C   UNL     1     111.959 129.459 137.936  0.00  0.00    +0.000 A 
ATOM     15  C   UNL     1     111.136 128.809 138.033  0.00  0.00    +0.000 A 
ATOM     16  C   UNL     1     110.376 129.024 138.730  0.00  0.00    +0.000 A 
ATOM     17  C   UNL     1     110.440 129.887 139.330  0.00  0.00    +0.000 A 
ATOM     18  C   UNL     1     111.263 130.535 139.232  0.00  0.00    +0.000 A 
ATOM     19  C   UNL     1     112.022 130.321 138.535  0.00  0.00    +0.000 A 
ATOM     20  O   UNL     1     111.316 131.251 139.729  0.00  0.00    +0.000 OA
BRANCH  19  21
ATOM     21  O   UNL     1     112.997 130.883 138.265  0.00  0.00    +0.000 OA
BRANCH  21  22
ATOM     22  S   UNL     1     113.549 130.852 137.740  0.00  0.00    +0.000 S 
ATOM     23  O   UNL     1     114.158 130.818 137.159  0.00  0.00    +0.000 OA
ATOM     24  O   UNL     1     113.069 131.241 137.214  0.00  0.00    +0.000 OA
ATOM     25  O   UNL     1     114.067 130.432 138.308  0.00  0.00    +0.000 OA
ENDBRANCH  21  22
ENDBRANCH  19  21
ENDBRANCH   1  15
BRANCH   6  26
ATOM     26  O   UNL     1     110.236 128.768 136.078  0.00  0.00    +0.000 OA
BRANCH  26  30
ATOM     27  C   UNL     1     107.962 130.686 135.812  0.00  0.00    +0.000 C 
ATOM     28  C   UNL     1     108.674 131.029 135.115  0.00  0.00    +0.000 C 
ATOM     29  C   UNL     1     109.485 130.362 135.195  0.00  0.00    +0.000 C 
ATOM     30  C   UNL     1     110.446 130.062 134.885  0.00  0.00    +0.000 C 
ATOM     31  O   UNL     1     109.735 129.720 135.581  0.00  0.00    +0.000 OA
ATOM     32  C   UNL     1     108.923 130.387 135.502  0.00  0.00    +0.000 C 
ATOM     33  O   UNL     1     107.598 131.388 135.443  0.00  0.00    +0.000 OA
ATOM     34  O   UNL     1     108.085 131.089 135.408  0.00  0.00    +0.000 OA
ATOM     35  O   UNL     1     109.522 131.003 134.644  0.00  0.00    +0.000 OA
BRANCH  32  36
ATOM     36  C   UNL     1     108.541 129.994 136.049  0.00  0.00    +0.000 C 
ATOM     37  O   UNL     1     107.866 129.809 136.152  0.00  0.00    +0.000 OA
ENDBRANCH  32  36
ENDBRANCH  26  30
ENDBRANCH   6  26
TORSDOF 6
ENDMDL
MODEL 8
REMARK VINA RESULT:      -9.3      3.095      5.976
REMARK  Name = 
REMARK  6 active torsions:
REMARK  status: ('A' for Active; 'I' for Inactive)
REMARK    1  A    between atoms: C_2  and  C_7
REMARK    2  A    between atoms: C_6  and  O_22
REMARK    3  A    between atoms: C_12  and  O_19
REMARK    4  A    between atoms: O_19  and  C_30
REMARK    5  A    between atoms: O_22  and  S_23
REMARK    6  A    between atoms: C_32  and  C_33
REMARK                            x       y       z     vdW  Elec       q    Type
REMARK                         _______ _______ _______ _____ _____    ______ ____
ROOT
ATOM      1  C   UNL     1     111.150 127.924 137.404  0.00  0.00    +0.000 A 
ATOM      2  O   UNL     1     111.544 127.013 137.754  0.00  0.00    +0.000 OA
ATOM      3  C   UNL     1     111.452 126.142 137.172  0.00  0.00    +0.000 A 
ATOM      4  C   UNL     1     110.967 126.180 136.239  0.00  0.00    +0.000 A 
ATOM      5  C   UNL     1     110.572 127.091 135.887  0.00  0.00    +0.000 A 
ATOM      6  C   UNL     1     110.664 127.963 136.470  0.00  0.00    +0.000 A 
ATOM      7  C   UNL     1     111.846 125.230 137.523  0.00  0.00    +0.000 A 
ATOM      8  C   UNL     1     111.755 124.358 136.941  0.00  0.00    +0.000 A 
ATOM      9  C   UNL     1     111.269 124.397 136.007  0.00  0.00    +0.000 A 
ATOM     10  C   UNL     1     110.875 125.308 135.656  0.00  0.00    +0.000 A 
ATOM     11  O   UNL     1     110.183 127.122 135.140  0.00  0.00    +0.000 OA
ATOM     12  O   UNL     1     112.149 123.447 137.291  0.00  0.00    +0.000 OA
ATOM     13  O   UNL     1     110.447 125.342 134.834  0.00  0.00    +0.000 OA
ENDROOT
BRANCH   1  15
ATOM     14  C   UNL     1     110.470 129.073 138.647  0.00  0.00    +0.000 A 
ATOM     15  C   UNL     1     111.241 128.797 137.986  0.00  0.00    +0.000 A 
ATOM     16  C   UNL     1     112.105 129.394 137.906  0.00  0.00    +0.000 A 
ATOM     17  C   UNL     1     112.196 130.267 138.489  0.00  0.00    +0.000 A 
ATOM     18  C   UNL     1     111.425 130.542 139.149  0.00  0.00    +0.000 A 
ATOM     19  C   UNL     1     110.562 129.944 139.229  0.00  0.00    +0.000 A 
ATOM     20  O   UNL     1     111.501 131.265 139.632  0.00  0.00    +0.000 OA
BRANCH  19  21
ATOM     21  O   UNL     1     109.609 130.054 139.877  0.00  0.00    +0.000 OA
BRANCH  21  22
ATOM     22  S   UNL     1     108.966 129.670 140.018  0.00  0.00    +0.000 S 
ATOM     23  O   UNL     1     108.255 129.247 140.173  0.00  0.00    +0.000 OA
ATOM     24  O   UNL     1     108.595 130.075 139.421  0.00  0.00    +0.000 OA
ATOM     25  O   UNL     1     109.367 129.233 140.663  0.00  0.00    +0.000 OA
ENDBRANCH  21  22
ENDBRANCH  19  21
ENDBRANCH   1  15
BRANCH   6  26
ATOM     26  O   UNL     1     110.275 128.731 136.063  0.00  0.00    +0.000 OA
BRANCH  26  30
ATOM     27  C   UNL     1     107.976 130.617 135.787  0.00  0.00    +0.000 C 
ATOM     28  C   UNL     1     108.690 130.976 135.100  0.00  0.00    +0.000 C 
ATOM     29  C   UNL     1     109.510 130.321 135.185  0.00  0.00    +0.000 C 
ATOM     30  C   UNL     1     110.479 130.038 134.883  0.00  0.00    +0.000 C 
ATOM     31  O   UNL     1     109.765 129.679 135.569  0.00  0.00    +0.000 OA
ATOM     32  C   UNL     1     108.944 130.335 135.485  0.00  0.00    +0.000 C 
ATOM     33  O   UNL     1     107.605 131.317 135.419  0.00  0.00    +0.000 OA
ATOM     34  O   UNL     1     108.097 131.025 135.387  0.00  0.00    +0.000 OA
ATOM     35  O   UNL     1     109.544 130.966 134.639  0.00  0.00    +0.000 OA
BRANCH  32  36
ATOM     36  C   UNL     1     108.562 129.932 136.024  0.00  0.00    +0.000 C 
ATOM     37  O   UNL     1     107.881 129.831 136.184  0.00  0.00    +0.000 OA
ENDBRANCH  32  36
ENDBRANCH  26  30
ENDBRANCH   6  26
TORSDOF 6
ENDMDL
MODEL 9
REMARK VINA RESULT:      -9.3      2.331      4.396
REMARK  Name = 
REMARK  6 active torsions:
REMARK  status: ('A' for Active; 'I' for Inactive)
REMARK    1  A    between atoms: C_2  and  C_7
REMARK    2  A    between atoms: C_6  and  O_22
REMARK    3  A    between atoms: C_12  and  O_19
REMARK    4  A    between atoms: O_19  and  C_30
REMARK    5  A    between atoms: O_22  and  S_23
REMARK    6  A    between atoms: C_32  and  C_33
REMARK                            x       y       z     vdW  Elec       q    Type
REMARK                         _______ _______ _______ _____ _____    ______ ____
ROOT
ATOM      1  C   UNL     1     111.866 128.301 138.011  0.00  0.00    +0.000 A 
ATOM      2  O   UNL     1     111.435 129.262 138.024  0.00  0.00    +0.000 OA
ATOM      3  C   UNL     1     110.996 129.654 137.152  0.00  0.00    +0.000 A 
ATOM      4  C   UNL     1     110.987 129.085 136.266  0.00  0.00    +0.000 A 
ATOM      5  C   UNL     1     111.418 128.124 136.252  0.00  0.00    +0.000 A 
ATOM      6  C   UNL     1     111.857 127.732 137.125  0.00  0.00    +0.000 A 
ATOM      7  C   UNL     1     110.566 130.614 137.164  0.00  0.00    +0.000 A 
ATOM      8  C   UNL     1     110.126 131.007 136.292  0.00  0.00    +0.000 A 
ATOM      9  C   UNL     1     110.117 130.438 135.406  0.00  0.00    +0.000 A 
ATOM     10  C   UNL     1     110.548 129.476 135.392  0.00  0.00    +0.000 A 
ATOM     11  O   UNL     1     111.410 127.669 135.542  0.00  0.00    +0.000 OA
ATOM     12  O   UNL     1     109.696 131.967 136.304  0.00  0.00    +0.000 OA
ATOM     13  O   UNL     1     110.540 128.976 134.612  0.00  0.00    +0.000 OA
ENDROOT
BRANCH   1  15
ATOM     14  C   UNL     1     111.725 127.349 139.560  0.00  0.00    +0.000 A 
ATOM     15  C   UNL     1     112.305 127.909 138.884  0.00  0.00    +0.000 A 
ATOM     16  C   UNL     1     113.326 128.077 139.080  0.00  0.00    +0.000 A 
ATOM     17  C   UNL     1     113.766 127.684 139.952  0.00  0.00    +0.000 A 
ATOM     18  C   UNL     1     113.185 127.125 140.628  0.00  0.00    +0.000 A 
ATOM     19  C   UNL     1     112.164 126.957 140.432  0.00  0.00    +0.000 A 
ATOM     20  O   UNL     1     113.550 126.800 141.351  0.00  0.00    +0.000 OA
BRANCH  19  21
ATOM     21  O   UNL     1     111.353 126.383 141.025  0.00  0.00    +0.000 OA
BRANCH  21  22
ATOM     22  S   UNL     1     110.596 126.393 141.116  0.00  0.00    +0.000 S 
ATOM     23  O   UNL     1     109.761 126.404 141.217  0.00  0.00    +0.000 OA
ATOM     24  O   UNL     1     110.669 127.007 141.641  0.00  0.00    +0.000 OA
ATOM     25  O   UNL     1     110.519 125.729 140.548  0.00  0.00    +0.000 OA
ENDBRANCH  21  22
ENDBRANCH  19  21
ENDBRANCH   1  15
BRANCH   6  26
ATOM     26  O   UNL     1     112.217 126.858 137.006  0.00  0.00    +0.000 OA
BRANCH  26  30
ATOM     27  C   UNL     1     111.886 123.894 137.148  0.00  0.00    +0.000 C 
ATOM     28  C   UNL     1     112.864 124.029 136.781  0.00  0.00    +0.000 C 
ATOM     29  C   UNL     1     112.998 125.071 136.725  0.00  0.00    +0.000 C 
ATOM     30  C   UNL     1     113.612 125.895 136.490  0.00  0.00    +0.000 C 
ATOM     31  O   UNL     1     112.634 125.760 136.857  0.00  0.00    +0.000 OA
ATOM     32  C   UNL     1     112.500 124.716 136.914  0.00  0.00    +0.000 C 
ATOM     33  O   UNL     1     112.199 123.087 137.036  0.00  0.00    +0.000 OA
ATOM     34  O   UNL     1     112.373 123.628 136.968  0.00  0.00    +0.000 OA
ATOM     35  O   UNL     1     113.626 124.555 136.493  0.00  0.00    +0.000 OA
BRANCH  32  36
ATOM     36  C   UNL     1     111.781 124.819 137.182  0.00  0.00    +0.000 C 
ATOM     37  O   UNL     1     111.338 124.441 137.583  0.00  0.00    +0.000 OA
ENDBRANCH  32  36
ENDBRANCH  26  30
ENDBRANCH   6  26
TORSDOF 6
ENDMDL
MODEL 10
REMARK VINA RESULT:      -9.2      2.861      4.119
REMARK  Name = 
REMARK  6 active torsions:
REMARK  status: ('A' for Active; 'I' for Inactive)
REMARK    1  A    between atoms: C_2  and  C_7
REMARK    2  A    between atoms: C_6  and  O_22
REMARK    3  A    between atoms: C_12  and  O_19
REMARK    4  A    between atoms: O_19  and  C_30
REMARK    5  A    between atoms: O_22  and  S_23
REMARK    6  A    between atoms: C_32  and  C_33
REMARK                            x       y       z     vdW  Elec       q    Type
REMARK                         _______ _______ _______ _____ _____    ______ ____
ROOT
ATOM      1  C   UNL     1     111.170 129.267 137.323  0.00  0.00    +0.000 A 
ATOM      2  O   UNL     1     110.391 129.432 136.633  0.00  0.00    +0.000 OA
ATOM      3  C   UNL     1     109.705 130.213 136.791  0.00  0.00    +0.000 A 
ATOM      4  C   UNL     1     109.796 130.832 137.638  0.00  0.00    +0.000 A 
ATOM      5  C   UNL     1     110.574 130.668 138.328  0.00  0.00    +0.000 A 
ATOM      6  C   UNL     1     111.261 129.886 138.170  0.00  0.00    +0.000 A 
ATOM      7  C   UNL     1     108.926 130.378 136.102  0.00  0.00    +0.000 A 
ATOM      8  C   UNL     1     108.239 131.160 136.259  0.00  0.00    +0.000 A 
ATOM      9  C   UNL     1     108.331 131.778 137.106  0.00  0.00    +0.000 A 
ATOM     10  C   UNL     1     109.110 131.614 137.796  0.00  0.00    +0.000 A 
ATOM     11  O   UNL     1     110.648 131.164 139.006  0.00  0.00    +0.000 OA
ATOM     12  O   UNL     1     107.460 131.324 135.570  0.00  0.00    +0.000 OA
ATOM     13  O   UNL     1     109.190 132.159 138.542  0.00  0.00    +0.000 OA
ENDROOT
BRANCH   1  15
ATOM     14  C   UNL     1     111.661 127.526 137.552  0.00  0.00    +0.000 A 
ATOM     15  C   UNL     1     111.857 128.485 137.165  0.00  0.00    +0.000 A 
ATOM     16  C   UNL     1     112.740 128.663 136.620  0.00  0.00    +0.000 A 
ATOM     17  C   UNL     1     113.427 127.881 136.463  0.00  0.00    +0.000 A 
ATOM     18  C   UNL     1     113.231 126.922 136.850  0.00  0.00    +0.000 A 
ATOM     19  C   UNL     1     112.348 126.745 137.395  0.00  0.00    +0.000 A 
ATOM     20  O   UNL     1     113.801 126.274 136.720  0.00  0.00    +0.000 OA
BRANCH  19  21
ATOM     21  O   UNL     1     111.937 125.789 137.902  0.00  0.00    +0.000 OA
BRANCH  21  22
ATOM     22  S   UNL     1     111.405 125.595 138.412  0.00  0.00    +0.000 S 
ATOM     23  O   UNL     1     110.817 125.381 138.976  0.00  0.00    +0.000 OA
ATOM     24  O   UNL     1     111.910 125.796 139.013  0.00  0.00    +0.000 OA
ATOM     25  O   UNL     1     110.859 125.377 137.761  0.00  0.00    +0.000 OA
ENDBRANCH  21  22
ENDBRANCH  19  21
ENDBRANCH   1  15
BRANCH   6  26
ATOM     26  O   UNL     1     111.925 129.823 138.851  0.00  0.00    +0.000 OA
BRANCH  26  30
ATOM     27  C   UNL     1     114.637 130.533 139.880  0.00  0.00    +0.000 C 
ATOM     28  C   UNL     1     114.229 129.913 140.628  0.00  0.00    +0.000 C 
ATOM     29  C   UNL     1     113.270 129.653 140.281  0.00  0.00    +0.000 C 
ATOM     30  C   UNL     1     112.363 129.138 140.425  0.00  0.00    +0.000 C 
ATOM     31  O   UNL     1     112.770 129.757 139.678  0.00  0.00    +0.000 OA
ATOM     32  C   UNL     1     113.730 130.018 140.025  0.00  0.00    +0.000 C 
ATOM     33  O   UNL     1     115.256 130.480 140.493  0.00  0.00    +0.000 OA
ATOM     34  O   UNL     1     114.728 130.282 140.399  0.00  0.00    +0.000 OA
ATOM     35  O   UNL     1     113.540 129.359 141.026  0.00  0.00    +0.000 OA
BRANCH  32  36
ATOM     36  C   UNL     1     113.852 130.439 139.387  0.00  0.00    +0.000 C 
ATOM     37  O   UNL     1     114.330 130.920 139.188  0.00  0.00    +0.000 OA
ENDBRANCH  32  36
ENDBRANCH  26  30
ENDBRANCH   6  26
TORSDOF 6
ENDMDL
