MODEL 1
REMARK VINA RESULT:      -8.7      0.000      0.000
REMARK  Name = 44259891
REMARK  7 active torsions:
REMARK  status: ('A' for Active; 'I' for Inactive)
REMARK    1  A    between atoms: O_2  and  C_18
REMARK    2  A    between atoms: O_2  and  C_20
REMARK    3  A    between atoms: O_8  and  C_21
REMARK    4  A    between atoms: O_10  and  C_28
REMARK    5  A    between atoms: O_13  and  C_35
REMARK    6  A    between atoms: C_17  and  C_19
REMARK    7  A    between atoms: C_27  and  C_29
REMARK                            x       y       z     vdW  Elec       q    Type
REMARK                         _______ _______ _______ _____ _____    ______ ____
ROOT
ATOM      1  O   UNL     1     104.814 125.435 145.529  0.00  0.00    +0.000 OA
ATOM      2  O   UNL     1     107.336 126.513 146.436  0.00  0.00    +0.000 OA
ATOM      3  O   UNL     1     106.699 125.423 147.133  0.00  0.00    +0.000 OA
ATOM      4  C   UNL     1     106.054 127.096 144.695  0.00  0.00    +0.000 A 
ATOM      5  C   UNL     1     106.708 127.092 145.251  0.00  0.00    +0.000 A 
ATOM      6  C   UNL     1     105.412 126.533 144.790  0.00  0.00    +0.000 A 
ATOM      7  C   UNL     1     105.433 125.973 145.442  0.00  0.00    +0.000 A 
ATOM      8  C   UNL     1     106.061 125.969 145.977  0.00  0.00    +0.000 A 
ATOM      9  C   UNL     1     106.712 126.525 145.896  0.00  0.00    +0.000 A 
ATOM     10  C   UNL     1     106.071 125.427 146.598  0.00  0.00    +0.000 A 
ATOM     11  C   UNL     1     104.823 124.893 146.150  0.00  0.00    +0.000 A 
ATOM     12  C   UNL     1     105.452 124.889 146.685  0.00  0.00    +0.000 A 
ENDROOT
BRANCH  11  14
ATOM     13  O   UNL     1     104.760 123.547 145.198  0.00  0.00    +0.000 OA
ATOM     14  C   UNL     1     104.204 124.354 146.238  0.00  0.00    +0.000 A 
ATOM     15  C   UNL     1     104.172 123.681 145.762  0.00  0.00    +0.000 A 
ATOM     16  C   UNL     1     103.617 124.489 146.801  0.00  0.00    +0.000 A 
ATOM     17  C   UNL     1     103.554 123.143 145.848  0.00  0.00    +0.000 A 
ATOM     18  C   UNL     1     102.997 123.951 146.888  0.00  0.00    +0.000 A 
ATOM     19  C   UNL     1     102.967 123.277 146.411  0.00  0.00    +0.000 A 
BRANCH  19  20
ATOM     20  O   UNL     1     102.347 122.739 146.499  0.00  0.00    +0.000 OA
ATOM     21  C   UNL     1     101.572 122.971 146.337  0.00  0.00    +0.000 C 
ENDBRANCH  19  20
ENDBRANCH  11  14
BRANCH   5  22
ATOM     22  O   UNL     1     107.329 127.629 145.167  0.00  0.00    +0.000 OA
ATOM     23  C   UNL     1     107.379 128.283 145.667  0.00  0.00    +0.000 C 
ENDBRANCH   5  22
BRANCH  12  24
ATOM     24  O   UNL     1     105.461 124.347 147.307  0.00  0.00    +0.000 OA
ATOM     25  C   UNL     1     105.916 124.495 147.978  0.00  0.00    +0.000 C 
ENDBRANCH  12  24
BRANCH   4  26
ATOM     26  O   UNL     1     106.042 127.637 144.072  0.00  0.00    +0.000 OA
BRANCH  26  35
ATOM     27  O   UNL     1     106.309 126.759 142.977  0.00  0.00    +0.000 OA
ATOM     28  O   UNL     1     104.522 127.855 141.662  0.00  0.00    +0.000 OA
ATOM     29  O   UNL     1     105.385 126.612 141.006  0.00  0.00    +0.000 OA
ATOM     30  O   UNL     1     104.851 128.368 143.195  0.00  0.00    +0.000 OA
ATOM     31  C   UNL     1     105.118 127.490 142.100  0.00  0.00    +0.000 C 
ATOM     32  C   UNL     1     105.549 126.868 141.772  0.00  0.00    +0.000 C 
ATOM     33  C   UNL     1     105.282 127.747 142.867  0.00  0.00    +0.000 C 
ATOM     34  C   UNL     1     106.145 126.503 142.211  0.00  0.00    +0.000 C 
ATOM     35  C   UNL     1     105.877 127.381 143.306  0.00  0.00    +0.000 C 
BRANCH  34  37
ATOM     36  O   UNL     1     107.387 125.819 142.030  0.00  0.00    +0.000 OA
ATOM     37  C   UNL     1     106.577 125.881 141.883  0.00  0.00    +0.000 C 
ENDBRANCH  34  37
ENDBRANCH  26  35
ENDBRANCH   4  26
TORSDOF 7
ENDMDL
MODEL 2
REMARK VINA RESULT:      -8.6      1.864      3.460
REMARK  Name = 44259891
REMARK  7 active torsions:
REMARK  status: ('A' for Active; 'I' for Inactive)
REMARK    1  A    between atoms: O_2  and  C_18
REMARK    2  A    between atoms: O_2  and  C_20
REMARK    3  A    between atoms: O_8  and  C_21
REMARK    4  A    between atoms: O_10  and  C_28
REMARK    5  A    between atoms: O_13  and  C_35
REMARK    6  A    between atoms: C_17  and  C_19
REMARK    7  A    between atoms: C_27  and  C_29
REMARK                            x       y       z     vdW  Elec       q    Type
REMARK                         _______ _______ _______ _____ _____    ______ ____
ROOT
ATOM      1  O   UNL     1     103.624 124.434 146.860  0.00  0.00    +0.000 OA
ATOM      2  O   UNL     1     104.482 125.117 149.533  0.00  0.00    +0.000 OA
ATOM      3  O   UNL     1     103.232 124.434 149.305  0.00  0.00    +0.000 OA
ATOM      4  C   UNL     1     105.473 125.477 147.557  0.00  0.00    +0.000 A 
ATOM      5  C   UNL     1     105.337 125.477 148.405  0.00  0.00    +0.000 A 
ATOM      6  C   UNL     1     104.890 125.122 147.034  0.00  0.00    +0.000 A 
ATOM      7  C   UNL     1     104.180 124.773 147.367  0.00  0.00    +0.000 A 
ATOM      8  C   UNL     1     104.049 124.772 148.182  0.00  0.00    +0.000 A 
ATOM      9  C   UNL     1     104.621 125.122 148.719  0.00  0.00    +0.000 A 
ATOM     10  C   UNL     1     103.363 124.433 148.490  0.00  0.00    +0.000 A 
ATOM     11  C   UNL     1     102.937 124.095 147.168  0.00  0.00    +0.000 A 
ATOM     12  C   UNL     1     102.807 124.095 147.983  0.00  0.00    +0.000 A 
ENDROOT
BRANCH  11  14
ATOM     13  O   UNL     1     103.322 122.740 146.309  0.00  0.00    +0.000 OA
ATOM     14  C   UNL     1     102.381 123.756 146.662  0.00  0.00    +0.000 A 
ATOM     15  C   UNL     1     102.573 123.079 146.232  0.00  0.00    +0.000 A 
ATOM     16  C   UNL     1     101.633 124.095 146.585  0.00  0.00    +0.000 A 
ATOM     17  C   UNL     1     102.018 122.739 145.725  0.00  0.00    +0.000 A 
ATOM     18  C   UNL     1     101.077 123.756 146.078  0.00  0.00    +0.000 A 
ATOM     19  C   UNL     1     101.270 123.078 145.649  0.00  0.00    +0.000 A 
BRANCH  19  20
ATOM     20  O   UNL     1     100.714 122.739 145.142  0.00  0.00    +0.000 OA
ATOM     21  C   UNL     1     100.774 122.851 144.327  0.00  0.00    +0.000 C 
ENDBRANCH  19  20
ENDBRANCH  11  14
BRANCH   5  22
ATOM     22  O   UNL     1     105.892 125.815 148.915  0.00  0.00    +0.000 OA
ATOM     23  C   UNL     1     106.361 125.333 149.392  0.00  0.00    +0.000 C 
ENDBRANCH   5  22
BRANCH  12  24
ATOM     24  O   UNL     1     102.121 123.756 148.291  0.00  0.00    +0.000 OA
ATOM     25  C   UNL     1     102.078 123.566 149.092  0.00  0.00    +0.000 C 
ENDBRANCH  12  24
BRANCH   4  26
ATOM     26  O   UNL     1     106.158 125.815 147.246  0.00  0.00    +0.000 OA
BRANCH  26  35
ATOM     27  O   UNL     1     105.635 126.987 146.619  0.00  0.00    +0.000 OA
ATOM     28  O   UNL     1     106.926 126.468 144.572  0.00  0.00    +0.000 OA
ATOM     29  O   UNL     1     105.972 127.812 144.627  0.00  0.00    +0.000 OA
ATOM     30  O   UNL     1     107.019 125.469 145.882  0.00  0.00    +0.000 OA
ATOM     31  C   UNL     1     106.496 126.641 145.254  0.00  0.00    +0.000 C 
ATOM     32  C   UNL     1     106.019 127.313 145.281  0.00  0.00    +0.000 C 
ATOM     33  C   UNL     1     106.543 126.141 145.909  0.00  0.00    +0.000 C 
ATOM     34  C   UNL     1     105.588 127.486 145.964  0.00  0.00    +0.000 C 
ATOM     35  C   UNL     1     106.112 126.314 146.591  0.00  0.00    +0.000 C 
BRANCH  34  37
ATOM     36  O   UNL     1     105.070 128.605 146.684  0.00  0.00    +0.000 OA
ATOM     37  C   UNL     1     105.111 128.158 145.991  0.00  0.00    +0.000 C 
ENDBRANCH  34  37
ENDBRANCH  26  35
ENDBRANCH   4  26
TORSDOF 7
ENDMDL
MODEL 3
REMARK VINA RESULT:      -8.6      2.068      5.505
REMARK  Name = 44259891
REMARK  7 active torsions:
REMARK  status: ('A' for Active; 'I' for Inactive)
REMARK    1  A    between atoms: O_2  and  C_18
REMARK    2  A    between atoms: O_2  and  C_20
REMARK    3  A    between atoms: O_8  and  C_21
REMARK    4  A    between atoms: O_10  and  C_28
REMARK    5  A    between atoms: O_13  and  C_35
REMARK    6  A    between atoms: C_17  and  C_19
REMARK    7  A    between atoms: C_27  and  C_29
REMARK                            x       y       z     vdW  Elec       q    Type
REMARK                         _______ _______ _______ _____ _____    ______ ____
ROOT
ATOM      1  O   UNL     1     105.082 128.055 142.292  0.00  0.00    +0.000 OA
ATOM      2  O   UNL     1     107.929 127.986 141.804  0.00  0.00    +0.000 OA
ATOM      3  O   UNL     1     107.165 129.189 141.582  0.00  0.00    +0.000 OA
ATOM      4  C   UNL     1     106.544 126.382 142.530  0.00  0.00    +0.000 A 
ATOM      5  C   UNL     1     107.267 126.775 142.284  0.00  0.00    +0.000 A 
ATOM      6  C   UNL     1     105.803 126.818 142.532  0.00  0.00    +0.000 A 
ATOM      7  C   UNL     1     105.796 127.641 142.288  0.00  0.00    +0.000 A 
ATOM      8  C   UNL     1     106.490 128.020 142.051  0.00  0.00    +0.000 A 
ATOM      9  C   UNL     1     107.240 127.600 142.043  0.00  0.00    +0.000 A 
ATOM     10  C   UNL     1     106.470 128.811 141.819  0.00  0.00    +0.000 A 
ATOM     11  C   UNL     1     105.062 128.846 142.060  0.00  0.00    +0.000 A 
ATOM     12  C   UNL     1     105.757 129.224 141.823  0.00  0.00    +0.000 A 
ENDROOT
BRANCH  11  14
ATOM     13  O   UNL     1     103.993 128.658 140.818  0.00  0.00    +0.000 OA
ATOM     14  C   UNL     1     104.348 129.260 142.064  0.00  0.00    +0.000 A 
ATOM     15  C   UNL     1     103.814 129.166 141.443  0.00  0.00    +0.000 A 
ATOM     16  C   UNL     1     104.169 129.768 142.689  0.00  0.00    +0.000 A 
ATOM     17  C   UNL     1     103.100 129.579 141.446  0.00  0.00    +0.000 A 
ATOM     18  C   UNL     1     103.455 130.181 142.693  0.00  0.00    +0.000 A 
ATOM     19  C   UNL     1     102.921 130.087 142.071  0.00  0.00    +0.000 A 
BRANCH  19  20
ATOM     20  O   UNL     1     102.207 130.500 142.075  0.00  0.00    +0.000 OA
ATOM     21  C   UNL     1     102.196 131.308 141.908  0.00  0.00    +0.000 C 
ENDBRANCH  19  20
ENDBRANCH  11  14
BRANCH   5  22
ATOM     22  O   UNL     1     107.983 126.365 142.278  0.00  0.00    +0.000 OA
ATOM     23  C   UNL     1     108.340 126.169 141.562  0.00  0.00    +0.000 C 
ENDBRANCH   5  22
BRANCH  12  24
ATOM     24  O   UNL     1     105.737 130.015 141.591  0.00  0.00    +0.000 OA
ATOM     25  C   UNL     1     106.413 130.483 141.659  0.00  0.00    +0.000 C 
ENDBRANCH  12  24
BRANCH   4  26
ATOM     26  O   UNL     1     106.561 125.591 142.763  0.00  0.00    +0.000 OA
BRANCH  26  35
ATOM     27  O   UNL     1     106.444 125.750 144.178  0.00  0.00    +0.000 OA
ATOM     28  O   UNL     1     104.780 123.919 144.246  0.00  0.00    +0.000 OA
ATOM     29  O   UNL     1     105.218 124.688 145.638  0.00  0.00    +0.000 OA
ATOM     30  O   UNL     1     105.452 124.370 142.808  0.00  0.00    +0.000 OA
ATOM     31  C   UNL     1     105.335 124.529 144.224  0.00  0.00    +0.000 C 
ATOM     32  C   UNL     1     105.553 124.913 144.919  0.00  0.00    +0.000 C 
ATOM     33  C   UNL     1     105.670 124.755 143.504  0.00  0.00    +0.000 C 
ATOM     34  C   UNL     1     106.108 125.524 144.897  0.00  0.00    +0.000 C 
ATOM     35  C   UNL     1     106.225 125.365 143.481  0.00  0.00    +0.000 C 
BRANCH  34  37
ATOM     36  O   UNL     1     107.125 126.055 145.749  0.00  0.00    +0.000 OA
ATOM     37  C   UNL     1     106.327 125.909 145.593  0.00  0.00    +0.000 C 
ENDBRANCH  34  37
ENDBRANCH  26  35
ENDBRANCH   4  26
TORSDOF 7
ENDMDL
MODEL 4
REMARK VINA RESULT:      -8.4      0.945      4.939
REMARK  Name = 44259891
REMARK  7 active torsions:
REMARK  status: ('A' for Active; 'I' for Inactive)
REMARK    1  A    between atoms: O_2  and  C_18
REMARK    2  A    between atoms: O_2  and  C_20
REMARK    3  A    between atoms: O_8  and  C_21
REMARK    4  A    between atoms: O_10  and  C_28
REMARK    5  A    between atoms: O_13  and  C_35
REMARK    6  A    between atoms: C_17  and  C_19
REMARK    7  A    between atoms: C_27  and  C_29
REMARK                            x       y       z     vdW  Elec       q    Type
REMARK                         _______ _______ _______ _____ _____    ______ ____
ROOT
ATOM      1  O   UNL     1     105.460 126.466 144.341  0.00  0.00    +0.000 OA
ATOM      2  O   UNL     1     107.288 126.648 146.570  0.00  0.00    +0.000 OA
ATOM      3  O   UNL     1     107.286 127.644 145.527  0.00  0.00    +0.000 OA
ATOM      4  C   UNL     1     105.724 125.115 146.101  0.00  0.00    +0.000 A 
ATOM      5  C   UNL     1     106.358 125.523 146.512  0.00  0.00    +0.000 A 
ATOM      6  C   UNL     1     105.420 125.436 145.364  0.00  0.00    +0.000 A 
ATOM      7  C   UNL     1     105.755 126.162 145.049  0.00  0.00    +0.000 A 
ATOM      8  C   UNL     1     106.364 126.555 145.444  0.00  0.00    +0.000 A 
ATOM      9  C   UNL     1     106.679 126.248 146.182  0.00  0.00    +0.000 A 
ATOM     10  C   UNL     1     106.677 127.251 145.131  0.00  0.00    +0.000 A 
ATOM     11  C   UNL     1     105.773 127.162 144.028  0.00  0.00    +0.000 A 
ATOM     12  C   UNL     1     106.382 127.555 144.424  0.00  0.00    +0.000 A 
ENDROOT
BRANCH  11  14
ATOM     13  O   UNL     1     106.152 126.436 142.596  0.00  0.00    +0.000 OA
ATOM     14  C   UNL     1     105.478 127.466 143.320  0.00  0.00    +0.000 A 
ATOM     15  C   UNL     1     105.668 127.103 142.604  0.00  0.00    +0.000 A 
ATOM     16  C   UNL     1     104.993 128.134 143.328  0.00  0.00    +0.000 A 
ATOM     17  C   UNL     1     105.373 127.406 141.896  0.00  0.00    +0.000 A 
ATOM     18  C   UNL     1     104.698 128.438 142.621  0.00  0.00    +0.000 A 
ATOM     19  C   UNL     1     104.888 128.074 141.905  0.00  0.00    +0.000 A 
BRANCH  19  20
ATOM     20  O   UNL     1     104.593 128.378 141.197  0.00  0.00    +0.000 OA
ATOM     21  C   UNL     1     103.854 128.745 141.180  0.00  0.00    +0.000 C 
ENDBRANCH  19  20
ENDBRANCH  11  14
BRANCH   5  22
ATOM     22  O   UNL     1     106.655 125.222 147.221  0.00  0.00    +0.000 OA
ATOM     23  C   UNL     1     107.457 125.042 147.288  0.00  0.00    +0.000 C 
ENDBRANCH   5  22
BRANCH  12  24
ATOM     24  O   UNL     1     106.695 128.251 144.111  0.00  0.00    +0.000 OA
ATOM     25  C   UNL     1     107.187 128.726 144.572  0.00  0.00    +0.000 C 
ENDBRANCH  12  24
BRANCH   4  26
ATOM     26  O   UNL     1     105.409 124.419 146.411  0.00  0.00    +0.000 OA
BRANCH  26  35
ATOM     27  O   UNL     1     104.177 124.893 146.958  0.00  0.00    +0.000 OA
ATOM     28  O   UNL     1     102.978 123.009 145.892  0.00  0.00    +0.000 OA
ATOM     29  O   UNL     1     102.147 124.110 146.794  0.00  0.00    +0.000 OA
ATOM     30  O   UNL     1     104.610 123.163 145.700  0.00  0.00    +0.000 OA
ATOM     31  C   UNL     1     103.378 123.637 146.247  0.00  0.00    +0.000 C 
ATOM     32  C   UNL     1     102.962 124.187 146.698  0.00  0.00    +0.000 C 
ATOM     33  C   UNL     1     104.194 123.713 146.151  0.00  0.00    +0.000 C 
ATOM     34  C   UNL     1     103.361 124.815 147.054  0.00  0.00    +0.000 C 
ATOM     35  C   UNL     1     104.593 124.341 146.506  0.00  0.00    +0.000 C 
BRANCH  34  37
ATOM     36  O   UNL     1     103.279 125.666 148.199  0.00  0.00    +0.000 OA
ATOM     37  C   UNL     1     102.946 125.367 147.505  0.00  0.00    +0.000 C 
ENDBRANCH  34  37
ENDBRANCH  26  35
ENDBRANCH   4  26
TORSDOF 7
ENDMDL
MODEL 5
REMARK VINA RESULT:      -8.4      8.218     11.909
REMARK  Name = 44259891
REMARK  7 active torsions:
REMARK  status: ('A' for Active; 'I' for Inactive)
REMARK    1  A    between atoms: O_2  and  C_18
REMARK    2  A    between atoms: O_2  and  C_20
REMARK    3  A    between atoms: O_8  and  C_21
REMARK    4  A    between atoms: O_10  and  C_28
REMARK    5  A    between atoms: O_13  and  C_35
REMARK    6  A    between atoms: C_17  and  C_19
REMARK    7  A    between atoms: C_27  and  C_29
REMARK                            x       y       z     vdW  Elec       q    Type
REMARK                         _______ _______ _______ _____ _____    ______ ____
ROOT
ATOM      1  O   UNL     1     112.631 128.556 136.756  0.00  0.00    +0.000 OA
ATOM      2  O   UNL     1     110.156 129.266 138.067  0.00  0.00    +0.000 OA
ATOM      3  O   UNL     1     110.972 130.267 137.424  0.00  0.00    +0.000 OA
ATOM      4  C   UNL     1     111.151 127.273 137.832  0.00  0.00    +0.000 A 
ATOM      5  C   UNL     1     110.575 127.867 138.063  0.00  0.00    +0.000 A 
ATOM      6  C   UNL     1     111.849 127.509 137.388  0.00  0.00    +0.000 A 
ATOM      7  C   UNL     1     111.960 128.335 137.182  0.00  0.00    +0.000 A 
ATOM      8  C   UNL     1     111.407 128.906 137.405  0.00  0.00    +0.000 A 
ATOM      9  C   UNL     1     110.704 128.688 137.849  0.00  0.00    +0.000 A 
ATOM     10  C   UNL     1     111.525 129.697 137.201  0.00  0.00    +0.000 A 
ATOM     11  C   UNL     1     112.749 129.347 136.553  0.00  0.00    +0.000 A 
ATOM     12  C   UNL     1     112.196 129.917 136.775  0.00  0.00    +0.000 A 
ENDROOT
BRANCH  11  14
ATOM     13  O   UNL     1     112.850 129.011 134.940  0.00  0.00    +0.000 OA
ATOM     14  C   UNL     1     113.420 129.568 136.126  0.00  0.00    +0.000 A 
ATOM     15  C   UNL     1     113.471 129.400 135.320  0.00  0.00    +0.000 A 
ATOM     16  C   UNL     1     114.041 129.957 136.506  0.00  0.00    +0.000 A 
ATOM     17  C   UNL     1     114.141 129.620 134.894  0.00  0.00    +0.000 A 
ATOM     18  C   UNL     1     114.712 130.178 136.080  0.00  0.00    +0.000 A 
ATOM     19  C   UNL     1     114.762 130.009 135.274  0.00  0.00    +0.000 A 
BRANCH  19  20
ATOM     20  O   UNL     1     115.433 130.230 134.848  0.00  0.00    +0.000 OA
ATOM     21  C   UNL     1     115.628 131.028 134.768  0.00  0.00    +0.000 C 
ENDBRANCH  19  20
ENDBRANCH  11  14
BRANCH   5  22
ATOM     22  O   UNL     1     109.903 127.649 138.490  0.00  0.00    +0.000 OA
ATOM     23  C   UNL     1     109.849 127.826 139.293  0.00  0.00    +0.000 C 
ENDBRANCH   5  22
BRANCH  12  24
ATOM     24  O   UNL     1     112.314 130.708 136.572  0.00  0.00    +0.000 OA
ATOM     25  C   UNL     1     111.839 131.295 136.904  0.00  0.00    +0.000 C 
ENDBRANCH  12  24
BRANCH   4  26
ATOM     26  O   UNL     1     111.036 126.482 138.033  0.00  0.00    +0.000 OA
BRANCH  26  35
ATOM     27  O   UNL     1     110.788 125.963 136.725  0.00  0.00    +0.000 OA
ATOM     28  O   UNL     1     112.169 123.978 137.250  0.00  0.00    +0.000 OA
ATOM     29  O   UNL     1     111.460 124.121 135.768  0.00  0.00    +0.000 OA
ATOM     30  O   UNL     1     111.957 125.158 138.383  0.00  0.00    +0.000 OA
ATOM     31  C   UNL     1     111.709 124.640 137.075  0.00  0.00    +0.000 C 
ATOM     32  C   UNL     1     111.355 124.711 136.334  0.00  0.00    +0.000 C 
ATOM     33  C   UNL     1     111.603 125.230 137.642  0.00  0.00    +0.000 C 
ATOM     34  C   UNL     1     110.894 125.373 136.159  0.00  0.00    +0.000 C 
ATOM     35  C   UNL     1     111.142 125.891 137.467  0.00  0.00    +0.000 C 
BRANCH  34  37
ATOM     36  O   UNL     1     109.773 125.745 135.355  0.00  0.00    +0.000 OA
ATOM     37  C   UNL     1     110.540 125.445 135.418  0.00  0.00    +0.000 C 
ENDBRANCH  34  37
ENDBRANCH  26  35
ENDBRANCH   4  26
TORSDOF 7
ENDMDL
MODEL 6
REMARK VINA RESULT:      -8.4      9.274     12.041
REMARK  Name = 44259891
REMARK  7 active torsions:
REMARK  status: ('A' for Active; 'I' for Inactive)
REMARK    1  A    between atoms: O_2  and  C_18
REMARK    2  A    between atoms: O_2  and  C_20
REMARK    3  A    between atoms: O_8  and  C_21
REMARK    4  A    between atoms: O_10  and  C_28
REMARK    5  A    between atoms: O_13  and  C_35
REMARK    6  A    between atoms: C_17  and  C_19
REMARK    7  A    between atoms: C_27  and  C_29
REMARK                            x       y       z     vdW  Elec       q    Type
REMARK                         _______ _______ _______ _____ _____    ______ ____
ROOT
ATOM      1  O   UNL     1     111.992 129.340 135.867  0.00  0.00    +0.000 OA
ATOM      2  O   UNL     1     110.640 126.881 136.551  0.00  0.00    +0.000 OA
ATOM      3  O   UNL     1     112.080 126.956 136.527  0.00  0.00    +0.000 OA
ATOM      4  C   UNL     1     109.808 128.885 135.997  0.00  0.00    +0.000 A 
ATOM      5  C   UNL     1     109.838 128.058 136.226  0.00  0.00    +0.000 A 
ATOM      6  C   UNL     1     110.540 129.319 135.875  0.00  0.00    +0.000 A 
ATOM      7  C   UNL     1     111.292 128.919 135.985  0.00  0.00    +0.000 A 
ATOM      8  C   UNL     1     111.322 128.124 136.205  0.00  0.00    +0.000 A 
ATOM      9  C   UNL     1     110.600 127.675 136.331  0.00  0.00    +0.000 A 
ATOM     10  C   UNL     1     112.051 127.751 136.307  0.00  0.00    +0.000 A 
ATOM     11  C   UNL     1     112.720 128.967 135.969  0.00  0.00    +0.000 A 
ATOM     12  C   UNL     1     112.749 128.173 136.189  0.00  0.00    +0.000 A 
ENDROOT
BRANCH  11  14
ATOM     13  O   UNL     1     113.234 130.049 137.104  0.00  0.00    +0.000 OA
ATOM     14  C   UNL     1     113.420 129.389 135.851  0.00  0.00    +0.000 A 
ATOM     15  C   UNL     1     113.676 129.929 136.419  0.00  0.00    +0.000 A 
ATOM     16  C   UNL     1     113.863 129.269 135.165  0.00  0.00    +0.000 A 
ATOM     17  C   UNL     1     114.375 130.351 136.301  0.00  0.00    +0.000 A 
ATOM     18  C   UNL     1     114.562 129.691 135.047  0.00  0.00    +0.000 A 
ATOM     19  C   UNL     1     114.818 130.231 135.616  0.00  0.00    +0.000 A 
BRANCH  19  20
ATOM     20  O   UNL     1     115.518 130.653 135.498  0.00  0.00    +0.000 OA
ATOM     21  C   UNL     1     115.660 131.024 134.775  0.00  0.00    +0.000 C 
ENDBRANCH  19  20
ENDBRANCH  11  14
BRANCH   5  22
ATOM     22  O   UNL     1     109.141 127.633 136.345  0.00  0.00    +0.000 OA
ATOM     23  C   UNL     1     108.910 127.058 135.801  0.00  0.00    +0.000 C 
ENDBRANCH   5  22
BRANCH  12  24
ATOM     24  O   UNL     1     113.478 127.800 136.291  0.00  0.00    +0.000 OA
ATOM     25  C   UNL     1     113.509 127.002 136.497  0.00  0.00    +0.000 C 
ENDBRANCH  12  24
BRANCH   4  26
ATOM     26  O   UNL     1     109.081 129.260 135.894  0.00  0.00    +0.000 OA
BRANCH  26  35
ATOM     27  O   UNL     1     109.044 130.028 137.099  0.00  0.00    +0.000 OA
ATOM     28  O   UNL     1     108.214 131.983 135.828  0.00  0.00    +0.000 OA
ATOM     29  O   UNL     1     108.454 132.098 137.455  0.00  0.00    +0.000 OA
ATOM     30  O   UNL     1     108.528 130.564 135.047  0.00  0.00    +0.000 OA
ATOM     31  C   UNL     1     108.491 131.331 136.251  0.00  0.00    +0.000 C 
ATOM     32  C   UNL     1     108.610 131.389 137.065  0.00  0.00    +0.000 C 
ATOM     33  C   UNL     1     108.647 130.622 135.860  0.00  0.00    +0.000 C 
ATOM     34  C   UNL     1     108.887 130.738 137.489  0.00  0.00    +0.000 C 
ATOM     35  C   UNL     1     108.924 129.970 136.284  0.00  0.00    +0.000 C 
BRANCH  34  37
ATOM     36  O   UNL     1     108.670 130.237 138.809  0.00  0.00    +0.000 OA
ATOM     37  C   UNL     1     109.006 130.795 138.303  0.00  0.00    +0.000 C 
ENDBRANCH  34  37
ENDBRANCH  26  35
ENDBRANCH   4  26
TORSDOF 7
ENDMDL
MODEL 7
REMARK VINA RESULT:      -8.3     10.274     11.403
REMARK  Name = 44259891
REMARK  7 active torsions:
REMARK  status: ('A' for Active; 'I' for Inactive)
REMARK    1  A    between atoms: O_2  and  C_18
REMARK    2  A    between atoms: O_2  and  C_20
REMARK    3  A    between atoms: O_8  and  C_21
REMARK    4  A    between atoms: O_10  and  C_28
REMARK    5  A    between atoms: O_13  and  C_35
REMARK    6  A    between atoms: C_17  and  C_19
REMARK    7  A    between atoms: C_27  and  C_29
REMARK                            x       y       z     vdW  Elec       q    Type
REMARK                         _______ _______ _______ _____ _____    ______ ____
ROOT
ATOM      1  O   UNL     1     111.653 127.315 136.742  0.00  0.00    +0.000 OA
ATOM      2  O   UNL     1     110.292 129.017 134.845  0.00  0.00    +0.000 OA
ATOM      3  O   UNL     1     110.424 127.600 134.612  0.00  0.00    +0.000 OA
ATOM      4  C   UNL     1     111.277 129.517 136.793  0.00  0.00    +0.000 A 
ATOM      5  C   UNL     1     110.850 129.616 136.055  0.00  0.00    +0.000 A 
ATOM      6  C   UNL     1     111.549 128.736 137.026  0.00  0.00    +0.000 A 
ATOM      7  C   UNL     1     111.390 128.064 136.515  0.00  0.00    +0.000 A 
ATOM      8  C   UNL     1     110.980 128.158 135.804  0.00  0.00    +0.000 A 
ATOM      9  C   UNL     1     110.701 128.932 135.557  0.00  0.00    +0.000 A 
ATOM     10  C   UNL     1     110.834 127.505 135.322  0.00  0.00    +0.000 A 
ATOM     11  C   UNL     1     111.507 126.662 136.259  0.00  0.00    +0.000 A 
ATOM     12  C   UNL     1     111.097 126.757 135.550  0.00  0.00    +0.000 A 
ENDROOT
BRANCH  11  14
ATOM     13  O   UNL     1     113.107 126.278 136.135  0.00  0.00    +0.000 OA
ATOM     14  C   UNL     1     111.770 125.914 136.487  0.00  0.00    +0.000 A 
ATOM     15  C   UNL     1     112.570 125.722 136.425  0.00  0.00    +0.000 A 
ATOM     16  C   UNL     1     111.234 125.358 136.776  0.00  0.00    +0.000 A 
ATOM     17  C   UNL     1     112.834 124.974 136.652  0.00  0.00    +0.000 A 
ATOM     18  C   UNL     1     111.497 124.610 137.004  0.00  0.00    +0.000 A 
ATOM     19  C   UNL     1     112.297 124.418 136.941  0.00  0.00    +0.000 A 
BRANCH  19  20
ATOM     20  O   UNL     1     112.561 123.670 137.168  0.00  0.00    +0.000 OA
ATOM     21  C   UNL     1     112.027 123.044 137.225  0.00  0.00    +0.000 C 
ENDBRANCH  19  20
ENDBRANCH  11  14
BRANCH   5  22
ATOM     22  O   UNL     1     110.586 130.363 135.824  0.00  0.00    +0.000 OA
ATOM     23  C   UNL     1     109.782 130.545 135.859  0.00  0.00    +0.000 C 
ENDBRANCH   5  22
BRANCH  12  24
ATOM     24  O   UNL     1     110.951 126.104 135.067  0.00  0.00    +0.000 OA
ATOM     25  C   UNL     1     110.264 126.072 134.613  0.00  0.00    +0.000 C 
ENDBRANCH  12  24
BRANCH   4  26
ATOM     26  O   UNL     1     111.424 130.169 137.278  0.00  0.00    +0.000 OA
BRANCH  26  35
ATOM     27  O   UNL     1     112.827 130.327 137.056  0.00  0.00    +0.000 OA
ATOM     28  O   UNL     1     113.176 130.642 139.486  0.00  0.00    +0.000 OA
ATOM     29  O   UNL     1     114.461 130.696 138.454  0.00  0.00    +0.000 OA
ATOM     30  O   UNL     1     111.657 130.379 138.898  0.00  0.00    +0.000 OA
ATOM     31  C   UNL     1     113.060 130.537 138.676  0.00  0.00    +0.000 C 
ATOM     32  C   UNL     1     113.702 130.564 138.160  0.00  0.00    +0.000 C 
ATOM     33  C   UNL     1     112.300 130.405 138.382  0.00  0.00    +0.000 C 
ATOM     34  C   UNL     1     113.586 130.459 137.350  0.00  0.00    +0.000 C 
ATOM     35  C   UNL     1     112.183 130.300 137.572  0.00  0.00    +0.000 C 
BRANCH  34  37
ATOM     36  O   UNL     1     114.169 130.900 136.122  0.00  0.00    +0.000 OA
ATOM     37  C   UNL     1     114.229 130.486 136.834  0.00  0.00    +0.000 C 
ENDBRANCH  34  37
ENDBRANCH  26  35
ENDBRANCH   4  26
TORSDOF 7
ENDMDL
MODEL 8
REMARK VINA RESULT:      -8.3      7.739     10.902
REMARK  Name = 44259891
REMARK  7 active torsions:
REMARK  status: ('A' for Active; 'I' for Inactive)
REMARK    1  A    between atoms: O_2  and  C_18
REMARK    2  A    between atoms: O_2  and  C_20
REMARK    3  A    between atoms: O_8  and  C_21
REMARK    4  A    between atoms: O_10  and  C_28
REMARK    5  A    between atoms: O_13  and  C_35
REMARK    6  A    between atoms: C_17  and  C_19
REMARK    7  A    between atoms: C_27  and  C_29
REMARK                            x       y       z     vdW  Elec       q    Type
REMARK                         _______ _______ _______ _____ _____    ______ ____
ROOT
ATOM      1  O   UNL     1     110.969 127.146 136.570  0.00  0.00    +0.000 OA
ATOM      2  O   UNL     1     111.375 124.311 136.192  0.00  0.00    +0.000 OA
ATOM      3  O   UNL     1     110.462 125.050 135.354  0.00  0.00    +0.000 OA
ATOM      4  C   UNL     1     112.289 125.719 137.673  0.00  0.00    +0.000 A 
ATOM      5  C   UNL     1     112.113 124.992 137.252  0.00  0.00    +0.000 A 
ATOM      6  C   UNL     1     111.900 126.450 137.441  0.00  0.00    +0.000 A 
ATOM      7  C   UNL     1     111.340 126.442 136.789  0.00  0.00    +0.000 A 
ATOM      8  C   UNL     1     111.170 125.743 136.384  0.00  0.00    +0.000 A 
ATOM      9  C   UNL     1     111.550 125.004 136.603  0.00  0.00    +0.000 A 
ATOM     10  C   UNL     1     110.631 125.749 135.759  0.00  0.00    +0.000 A 
ATOM     11  C   UNL     1     110.430 127.151 135.946  0.00  0.00    +0.000 A 
ATOM     12  C   UNL     1     110.261 126.453 135.541  0.00  0.00    +0.000 A 
ENDROOT
BRANCH  11  14
ATOM     13  O   UNL     1     109.204 127.759 136.867  0.00  0.00    +0.000 OA
ATOM     14  C   UNL     1     110.059 127.855 135.727  0.00  0.00    +0.000 A 
ATOM     15  C   UNL     1     109.446 128.159 136.187  0.00  0.00    +0.000 A 
ATOM     16  C   UNL     1     110.302 128.255 135.047  0.00  0.00    +0.000 A 
ATOM     17  C   UNL     1     109.075 128.862 135.969  0.00  0.00    +0.000 A 
ATOM     18  C   UNL     1     109.931 128.958 134.828  0.00  0.00    +0.000 A 
ATOM     19  C   UNL     1     109.318 129.262 135.289  0.00  0.00    +0.000 A 
BRANCH  19  20
ATOM     20  O   UNL     1     108.947 129.966 135.070  0.00  0.00    +0.000 OA
ATOM     21  C   UNL     1     109.399 130.620 134.849  0.00  0.00    +0.000 C 
ENDBRANCH  19  20
ENDBRANCH  11  14
BRANCH   5  22
ATOM     22  O   UNL     1     112.482 124.286 137.468  0.00  0.00    +0.000 OA
ATOM     23  C   UNL     1     113.044 123.945 136.970  0.00  0.00    +0.000 C 
ENDBRANCH   5  22
BRANCH  12  24
ATOM     24  O   UNL     1     109.722 126.458 134.917  0.00  0.00    +0.000 OA
ATOM     25  C   UNL     1     109.435 125.747 134.612  0.00  0.00    +0.000 C 
ENDBRANCH  12  24
BRANCH   4  26
ATOM     26  O   UNL     1     112.828 125.717 138.298  0.00  0.00    +0.000 OA
BRANCH  26  35
ATOM     27  O   UNL     1     111.927 126.061 139.352  0.00  0.00    +0.000 OA
ATOM     28  O   UNL     1     113.638 127.560 140.325  0.00  0.00    +0.000 OA
ATOM     29  O   UNL     1     112.167 127.405 141.054  0.00  0.00    +0.000 OA
ATOM     30  O   UNL     1     113.969 126.716 138.947  0.00  0.00    +0.000 OA
ATOM     31  C   UNL     1     113.068 127.061 140.001  0.00  0.00    +0.000 C 
ATOM     32  C   UNL     1     112.333 126.983 140.366  0.00  0.00    +0.000 C 
ATOM     33  C   UNL     1     113.234 126.639 139.311  0.00  0.00    +0.000 C 
ATOM     34  C   UNL     1     111.762 126.484 140.041  0.00  0.00    +0.000 C 
ATOM     35  C   UNL     1     112.663 126.139 138.987  0.00  0.00    +0.000 C 
BRANCH  34  37
ATOM     36  O   UNL     1     110.697 125.656 140.513  0.00  0.00    +0.000 OA
ATOM     37  C   UNL     1     111.026 126.406 140.405  0.00  0.00    +0.000 C 
ENDBRANCH  34  37
ENDBRANCH  26  35
ENDBRANCH   4  26
TORSDOF 7
ENDMDL
MODEL 9
REMARK VINA RESULT:      -8.3      6.816      9.660
REMARK  Name = 44259891
REMARK  7 active torsions:
REMARK  status: ('A' for Active; 'I' for Inactive)
REMARK    1  A    between atoms: O_2  and  C_18
REMARK    2  A    between atoms: O_2  and  C_20
REMARK    3  A    between atoms: O_8  and  C_21
REMARK    4  A    between atoms: O_10  and  C_28
REMARK    5  A    between atoms: O_13  and  C_35
REMARK    6  A    between atoms: C_17  and  C_19
REMARK    7  A    between atoms: C_27  and  C_29
REMARK                            x       y       z     vdW  Elec       q    Type
REMARK                         _______ _______ _______ _____ _____    ______ ____
ROOT
ATOM      1  O   UNL     1     111.743 126.568 139.310  0.00  0.00    +0.000 OA
ATOM      2  O   UNL     1     114.509 126.045 138.659  0.00  0.00    +0.000 OA
ATOM      3  O   UNL     1     114.141 126.640 139.921  0.00  0.00    +0.000 OA
ATOM      4  C   UNL     1     112.646 125.671 137.474  0.00  0.00    +0.000 A 
ATOM      5  C   UNL     1     113.478 125.696 137.685  0.00  0.00    +0.000 A 
ATOM      6  C   UNL     1     112.058 125.968 138.026  0.00  0.00    +0.000 A 
ATOM      7  C   UNL     1     112.311 126.285 138.783  0.00  0.00    +0.000 A 
ATOM      8  C   UNL     1     113.111 126.309 138.987  0.00  0.00    +0.000 A 
ATOM      9  C   UNL     1     113.712 126.017 138.447  0.00  0.00    +0.000 A 
ATOM     10  C   UNL     1     113.342 126.616 139.718  0.00  0.00    +0.000 A 
ATOM     11  C   UNL     1     111.974 126.875 140.040  0.00  0.00    +0.000 A 
ATOM     12  C   UNL     1     112.773 126.899 140.244  0.00  0.00    +0.000 A 
ENDROOT
BRANCH  11  14
ATOM     13  O   UNL     1     111.046 125.816 140.900  0.00  0.00    +0.000 OA
ATOM     14  C   UNL     1     111.405 127.158 140.567  0.00  0.00    +0.000 A 
ATOM     15  C   UNL     1     110.941 126.629 140.997  0.00  0.00    +0.000 A 
ATOM     16  C   UNL     1     111.301 127.971 140.664  0.00  0.00    +0.000 A 
ATOM     17  C   UNL     1     110.373 126.911 141.524  0.00  0.00    +0.000 A 
ATOM     18  C   UNL     1     110.733 128.254 141.191  0.00  0.00    +0.000 A 
ATOM     19  C   UNL     1     110.269 127.724 141.621  0.00  0.00    +0.000 A 
BRANCH  19  20
ATOM     20  O   UNL     1     109.701 128.007 142.147  0.00  0.00    +0.000 OA
ATOM     21  C   UNL     1     108.998 128.332 141.862  0.00  0.00    +0.000 C 
ENDBRANCH  19  20
ENDBRANCH  11  14
BRANCH   5  22
ATOM     22  O   UNL     1     114.049 125.414 137.161  0.00  0.00    +0.000 OA
ATOM     23  C   UNL     1     114.469 124.727 137.339  0.00  0.00    +0.000 C 
ENDBRANCH   5  22
BRANCH  12  24
ATOM     24  O   UNL     1     113.004 127.206 140.974  0.00  0.00    +0.000 OA
ATOM     25  C   UNL     1     113.798 127.376 141.118  0.00  0.00    +0.000 C 
ENDBRANCH  12  24
BRANCH   4  26
ATOM     26  O   UNL     1     112.413 125.365 136.744  0.00  0.00    +0.000 OA
BRANCH  26  35
ATOM     27  O   UNL     1     111.994 126.585 136.130  0.00  0.00    +0.000 OA
ATOM     28  O   UNL     1     110.040 125.422 135.152  0.00  0.00    +0.000 OA
ATOM     29  O   UNL     1     110.272 127.029 134.864  0.00  0.00    +0.000 OA
ATOM     30  O   UNL     1     111.110 124.590 136.092  0.00  0.00    +0.000 OA
ATOM     31  C   UNL     1     110.691 125.810 135.478  0.00  0.00    +0.000 C 
ATOM     32  C   UNL     1     110.807 126.613 135.334  0.00  0.00    +0.000 C 
ATOM     33  C   UNL     1     111.226 125.393 135.948  0.00  0.00    +0.000 C 
ATOM     34  C   UNL     1     111.458 127.001 135.660  0.00  0.00    +0.000 C 
ATOM     35  C   UNL     1     111.877 125.781 136.274  0.00  0.00    +0.000 C 
BRANCH  34  37
ATOM     36  O   UNL     1     112.336 128.091 135.372  0.00  0.00    +0.000 OA
ATOM     37  C   UNL     1     111.575 127.805 135.516  0.00  0.00    +0.000 C 
ENDBRANCH  34  37
ENDBRANCH  26  35
ENDBRANCH   4  26
TORSDOF 7
ENDMDL
MODEL 10
REMARK VINA RESULT:      -8.2      8.990     10.535
REMARK  Name = 44259891
REMARK  7 active torsions:
REMARK  status: ('A' for Active; 'I' for Inactive)
REMARK    1  A    between atoms: O_2  and  C_18
REMARK    2  A    between atoms: O_2  and  C_20
REMARK    3  A    between atoms: O_8  and  C_21
REMARK    4  A    between atoms: O_10  and  C_28
REMARK    5  A    between atoms: O_13  and  C_35
REMARK    6  A    between atoms: C_17  and  C_19
REMARK    7  A    between atoms: C_27  and  C_29
REMARK                            x       y       z     vdW  Elec       q    Type
REMARK                         _______ _______ _______ _____ _____    ______ ____
ROOT
ATOM      1  O   UNL     1     112.085 126.716 137.812  0.00  0.00    +0.000 OA
ATOM      2  O   UNL     1     114.500 126.185 139.306  0.00  0.00    +0.000 OA
ATOM      3  O   UNL     1     114.167 125.415 138.133  0.00  0.00    +0.000 OA
ATOM      4  C   UNL     1     112.890 127.703 139.648  0.00  0.00    +0.000 A 
ATOM      5  C   UNL     1     113.612 127.252 139.759  0.00  0.00    +0.000 A 
ATOM      6  C   UNL     1     112.373 127.520 138.987  0.00  0.00    +0.000 A 
ATOM      7  C   UNL     1     112.585 126.888 138.446  0.00  0.00    +0.000 A 
ATOM      8  C   UNL     1     113.279 126.454 138.552  0.00  0.00    +0.000 A 
ATOM      9  C   UNL     1     113.808 126.624 139.208  0.00  0.00    +0.000 A 
ATOM     10  C   UNL     1     113.473 125.848 138.026  0.00  0.00    +0.000 A 
ATOM     11  C   UNL     1     112.278 126.110 137.286  0.00  0.00    +0.000 A 
ATOM     12  C   UNL     1     112.972 125.677 137.393  0.00  0.00    +0.000 A 
ENDROOT
BRANCH  11  14
ATOM     13  O   UNL     1     112.227 127.116 135.979  0.00  0.00    +0.000 OA
ATOM     14  C   UNL     1     111.778 125.938 136.653  0.00  0.00    +0.000 A 
ATOM     15  C   UNL     1     111.752 126.441 135.999  0.00  0.00    +0.000 A 
ATOM     16  C   UNL     1     111.304 125.264 136.674  0.00  0.00    +0.000 A 
ATOM     17  C   UNL     1     111.252 126.270 135.366  0.00  0.00    +0.000 A 
ATOM     18  C   UNL     1     110.803 125.092 136.040  0.00  0.00    +0.000 A 
ATOM     19  C   UNL     1     110.778 125.595 135.387  0.00  0.00    +0.000 A 
BRANCH  19  20
ATOM     20  O   UNL     1     110.278 125.423 134.754  0.00  0.00    +0.000 OA
ATOM     21  C   UNL     1     109.536 125.780 134.704  0.00  0.00    +0.000 C 
ENDBRANCH  19  20
ENDBRANCH  11  14
BRANCH   5  22
ATOM     22  O   UNL     1     114.115 127.422 140.391  0.00  0.00    +0.000 OA
ATOM     23  C   UNL     1     114.144 126.916 141.042  0.00  0.00    +0.000 C 
ENDBRANCH   5  22
BRANCH  12  24
ATOM     24  O   UNL     1     113.166 125.072 136.867  0.00  0.00    +0.000 OA
ATOM     25  C   UNL     1     113.797 124.567 137.031  0.00  0.00    +0.000 C 
ENDBRANCH  12  24
BRANCH   4  26
ATOM     26  O   UNL     1     112.694 128.309 140.173  0.00  0.00    +0.000 OA
BRANCH  26  35
ATOM     27  O   UNL     1     112.923 129.442 139.333  0.00  0.00    +0.000 OA
ATOM     28  O   UNL     1     110.806 130.453 140.119  0.00  0.00    +0.000 OA
ATOM     29  O   UNL     1     111.740 131.249 139.018  0.00  0.00    +0.000 OA
ATOM     30  O   UNL     1     111.282 128.983 140.697  0.00  0.00    +0.000 OA
ATOM     31  C   UNL     1     111.511 130.116 139.857  0.00  0.00    +0.000 C 
ATOM     32  C   UNL     1     111.978 130.514 139.306  0.00  0.00    +0.000 C 
ATOM     33  C   UNL     1     111.749 129.381 140.146  0.00  0.00    +0.000 C 
ATOM     34  C   UNL     1     112.684 130.177 139.044  0.00  0.00    +0.000 C 
ATOM     35  C   UNL     1     112.455 129.044 139.884  0.00  0.00    +0.000 C 
BRANCH  34  37
ATOM     36  O   UNL     1     113.971 130.607 138.595  0.00  0.00    +0.000 OA
ATOM     37  C   UNL     1     113.152 130.575 138.493  0.00  0.00    +0.000 C 
ENDBRANCH  34  37
ENDBRANCH  26  35
ENDBRANCH   4  26
TORSDOF 7
ENDMDL
