MODEL 1
REMARK VINA RESULT:     -10.6      0.000      0.000
REMARK  Name = 44258974
REMARK  13 active torsions:
REMARK  status: ('A' for Active; 'I' for Inactive)
REMARK    1  A    between atoms: O_1  and  C_23
REMARK    2  A    between atoms: O_1  and  C_25
REMARK    3  A    between atoms: O_7  and  C_32
REMARK    4  A    between atoms: O_7  and  C_40
REMARK    5  A    between atoms: O_10  and  C_33
REMARK    6  A    between atoms: O_10  and  C_48
REMARK    7  A    between atoms: O_12  and  C_39
REMARK    8  A    between atoms: O_12  and  C_46
REMARK    9  A    between atoms: O_21  and  C_62
REMARK   10  A    between atoms: C_31  and  C_33
REMARK   11  A    between atoms: C_48  and  C_51
REMARK   12  A    between atoms: C_50  and  C_52
REMARK   13  A    between atoms: C_55  and  C_58
REMARK                            x       y       z     vdW  Elec       q    Type
REMARK                         _______ _______ _______ _____ _____    ______ ____
ROOT
ATOM      1  O   UNL     1     109.810 126.503 138.048  0.00  0.00    +0.000 OA
ATOM      2  O   UNL     1     110.333 125.824 136.040  0.00  0.00    +0.000 OA
ATOM      3  O   UNL     1     111.458 125.176 138.586  0.00  0.00    +0.000 OA
ATOM      4  C   UNL     1     110.896 125.500 137.313  0.00  0.00    +0.000 C 
ATOM      5  C   UNL     1     110.343 125.913 136.860  0.00  0.00    +0.000 C 
ATOM      6  C   UNL     1     110.906 125.589 138.133  0.00  0.00    +0.000 C 
ATOM      7  C   UNL     1     109.800 126.415 137.227  0.00  0.00    +0.000 C 
ATOM      8  C   UNL     1     110.362 126.091 138.500  0.00  0.00    +0.000 C 
ATOM      9  C   UNL     1     109.248 126.827 136.774  0.00  0.00    +0.000 C 
ENDROOT
BRANCH   4  10
ATOM     10  O   UNL     1     111.438 124.999 136.946  0.00  0.00    +0.000 OA
BRANCH  10  15
ATOM     11  O   UNL     1     112.356 126.075 136.744  0.00  0.00    +0.000 OA
ATOM     12  O   UNL     1     112.656 123.914 136.698  0.00  0.00    +0.000 OA
ATOM     13  O   UNL     1     114.183 124.447 136.371  0.00  0.00    +0.000 OA
ATOM     14  O   UNL     1     114.492 126.066 136.293  0.00  0.00    +0.000 OA
ATOM     15  C   UNL     1     112.202 125.266 136.783  0.00  0.00    +0.000 C 
ATOM     16  C   UNL     1     112.810 124.724 136.659  0.00  0.00    +0.000 C 
ATOM     17  C   UNL     1     113.574 124.990 136.495  0.00  0.00    +0.000 C 
ATOM     18  C   UNL     1     113.728 125.800 136.456  0.00  0.00    +0.000 C 
ATOM     19  C   UNL     1     113.120 126.342 136.580  0.00  0.00    +0.000 C 
BRANCH  19  20
ATOM     20  C   UNL     1     113.274 127.152 136.541  0.00  0.00    +0.000 C 
BRANCH  20  21
ATOM     21  O   UNL     1     112.677 127.674 136.310  0.00  0.00    +0.000 OA
BRANCH  21  23
ATOM     22  O   UNL     1     113.410 128.696 135.631  0.00  0.00    +0.000 OA
ATOM     23  C   UNL     1     112.851 128.472 136.194  0.00  0.00    +0.000 C 
BRANCH  23  24
ATOM     24  C   UNL     1     112.465 129.047 136.644  0.00  0.00    +0.000 C 
ATOM     25  C   UNL     1     111.929 129.560 136.283  0.00  0.00    +0.000 C 
BRANCH  25  27
ATOM     26  O   UNL     1     110.384 131.857 138.079  0.00  0.00    +0.000 OA
ATOM     27  C   UNL     1     111.542 130.135 136.732  0.00  0.00    +0.000 A 
ATOM     28  C   UNL     1     110.766 130.009 136.982  0.00  0.00    +0.000 A 
ATOM     29  C   UNL     1     111.932 130.833 136.931  0.00  0.00    +0.000 A 
ATOM     30  C   UNL     1     110.380 130.584 137.432  0.00  0.00    +0.000 A 
ATOM     31  C   UNL     1     111.546 131.408 137.380  0.00  0.00    +0.000 A 
ATOM     32  C   UNL     1     110.769 131.283 137.630  0.00  0.00    +0.000 A 
BRANCH  30  33
ATOM     33  O   UNL     1     109.604 130.459 137.682  0.00  0.00    +0.000 OA
ATOM     34  C   UNL     1     109.039 130.178 137.150  0.00  0.00    +0.000 C 
ENDBRANCH  30  33
ENDBRANCH  25  27
ENDBRANCH  23  24
ENDBRANCH  21  23
ENDBRANCH  20  21
ENDBRANCH  19  20
ENDBRANCH  10  15
ENDBRANCH   4  10
BRANCH   8  35
ATOM     35  O   UNL     1     110.373 126.179 139.321  0.00  0.00    +0.000 OA
BRANCH  35  39
ATOM     36  O   UNL     1     112.169 128.347 140.062  0.00  0.00    +0.000 OA
ATOM     37  O   UNL     1     109.345 128.584 140.620  0.00  0.00    +0.000 OA
ATOM     38  O   UNL     1     110.265 129.638 140.973  0.00  0.00    +0.000 OA
ATOM     39  C   UNL     1     110.497 126.924 139.653  0.00  0.00    +0.000 A 
ATOM     40  C   UNL     1     111.288 127.257 139.686  0.00  0.00    +0.000 A 
ATOM     41  C   UNL     1     109.835 127.373 139.970  0.00  0.00    +0.000 A 
ATOM     42  C   UNL     1     111.407 128.034 140.034  0.00  0.00    +0.000 A 
ATOM     43  C   UNL     1     110.772 128.464 140.338  0.00  0.00    +0.000 A 
ATOM     44  C   UNL     1     111.662 129.522 140.698  0.00  0.00    +0.000 A 
ATOM     45  C   UNL     1     109.974 128.147 140.314  0.00  0.00    +0.000 A 
ATOM     46  C   UNL     1     110.899 129.208 140.670  0.00  0.00    +0.000 A 
ATOM     47  C   UNL     1     112.296 129.092 140.394  0.00  0.00    +0.000 A 
BRANCH  47  49
ATOM     48  O   UNL     1     115.346 130.349 140.509  0.00  0.00    +0.000 OA
ATOM     49  C   UNL     1     113.059 129.406 140.423  0.00  0.00    +0.000 A 
ATOM     50  C   UNL     1     113.258 130.052 139.949  0.00  0.00    +0.000 A 
ATOM     51  C   UNL     1     113.623 129.075 140.926  0.00  0.00    +0.000 A 
ATOM     52  C   UNL     1     114.020 130.366 139.978  0.00  0.00    +0.000 A 
ATOM     53  C   UNL     1     114.385 129.389 140.954  0.00  0.00    +0.000 A 
ATOM     54  C   UNL     1     114.584 130.035 140.480  0.00  0.00    +0.000 A 
ENDBRANCH  47  49
BRANCH  44  55
ATOM     55  O   UNL     1     111.789 130.267 141.030  0.00  0.00    +0.000 OA
BRANCH  55  64
ATOM     56  O   UNL     1     111.706 129.793 142.375  0.00  0.00    +0.000 OA
ATOM     57  O   UNL     1     110.894 132.013 143.108  0.00  0.00    +0.000 OA
ATOM     58  O   UNL     1     111.081 130.799 144.209  0.00  0.00    +0.000 OA
ATOM     59  O   UNL     1     111.248 131.747 141.518  0.00  0.00    +0.000 OA
ATOM     60  C   UNL     1     111.165 131.273 142.864  0.00  0.00    +0.000 C 
ATOM     61  C   UNL     1     111.258 130.666 143.415  0.00  0.00    +0.000 C 
ATOM     62  C   UNL     1     111.342 131.140 142.069  0.00  0.00    +0.000 C 
ATOM     63  C   UNL     1     111.529 129.926 143.170  0.00  0.00    +0.000 C 
ATOM     64  C   UNL     1     111.612 130.400 141.825  0.00  0.00    +0.000 C 
ATOM     65  C   UNL     1     111.622 129.319 143.721  0.00  0.00    +0.000 C 
ENDBRANCH  55  64
ENDBRANCH  44  55
ENDBRANCH  35  39
ENDBRANCH   8  35
TORSDOF 13
ENDMDL
MODEL 2
REMARK VINA RESULT:     -10.4      6.392      9.531
REMARK  Name = 44258974
REMARK  13 active torsions:
REMARK  status: ('A' for Active; 'I' for Inactive)
REMARK    1  A    between atoms: O_1  and  C_23
REMARK    2  A    between atoms: O_1  and  C_25
REMARK    3  A    between atoms: O_7  and  C_32
REMARK    4  A    between atoms: O_7  and  C_40
REMARK    5  A    between atoms: O_10  and  C_33
REMARK    6  A    between atoms: O_10  and  C_48
REMARK    7  A    between atoms: O_12  and  C_39
REMARK    8  A    between atoms: O_12  and  C_46
REMARK    9  A    between atoms: O_21  and  C_62
REMARK   10  A    between atoms: C_31  and  C_33
REMARK   11  A    between atoms: C_48  and  C_51
REMARK   12  A    between atoms: C_50  and  C_52
REMARK   13  A    between atoms: C_55  and  C_58
REMARK                            x       y       z     vdW  Elec       q    Type
REMARK                         _______ _______ _______ _____ _____    ______ ____
ROOT
ATOM      1  O   UNL     1     106.425 126.358 147.185  0.00  0.00    +0.000 OA
ATOM      2  O   UNL     1     105.959 124.331 147.850  0.00  0.00    +0.000 OA
ATOM      3  O   UNL     1     104.256 126.443 146.951  0.00  0.00    +0.000 OA
ATOM      4  C   UNL     1     105.108 125.387 147.400  0.00  0.00    +0.000 C 
ATOM      5  C   UNL     1     105.863 125.101 147.572  0.00  0.00    +0.000 C 
ATOM      6  C   UNL     1     105.011 126.157 147.122  0.00  0.00    +0.000 C 
ATOM      7  C   UNL     1     106.522 125.587 147.464  0.00  0.00    +0.000 C 
ATOM      8  C   UNL     1     105.670 126.643 147.014  0.00  0.00    +0.000 C 
ATOM      9  C   UNL     1     107.276 125.302 147.635  0.00  0.00    +0.000 C 
ENDROOT
BRANCH   4  10
ATOM     10  O   UNL     1     104.449 124.902 147.508  0.00  0.00    +0.000 OA
BRANCH  10  15
ATOM     11  O   UNL     1     104.628 124.344 146.205  0.00  0.00    +0.000 OA
ATOM     12  O   UNL     1     102.968 124.182 147.613  0.00  0.00    +0.000 OA
ATOM     13  O   UNL     1     102.407 123.264 146.362  0.00  0.00    +0.000 OA
ATOM     14  O   UNL     1     103.327 123.066 145.006  0.00  0.00    +0.000 OA
ATOM     15  C   UNL     1     104.168 124.443 146.882  0.00  0.00    +0.000 C 
ATOM     16  C   UNL     1     103.429 124.083 146.934  0.00  0.00    +0.000 C 
ATOM     17  C   UNL     1     103.148 123.624 146.309  0.00  0.00    +0.000 C 
ATOM     18  C   UNL     1     103.608 123.525 145.631  0.00  0.00    +0.000 C 
ATOM     19  C   UNL     1     104.348 123.884 145.579  0.00  0.00    +0.000 C 
BRANCH  19  20
ATOM     20  C   UNL     1     104.808 123.786 144.902  0.00  0.00    +0.000 C 
BRANCH  20  21
ATOM     21  O   UNL     1     104.985 124.436 144.425  0.00  0.00    +0.000 OA
BRANCH  21  23
ATOM     22  O   UNL     1     106.406 124.335 144.306  0.00  0.00    +0.000 OA
ATOM     23  C   UNL     1     105.664 124.431 143.957  0.00  0.00    +0.000 C 
BRANCH  23  24
ATOM     24  C   UNL     1     105.602 124.523 143.139  0.00  0.00    +0.000 C 
ATOM     25  C   UNL     1     106.272 124.701 142.693  0.00  0.00    +0.000 C 
BRANCH  25  27
ATOM     26  O   UNL     1     106.023 125.067 139.422  0.00  0.00    +0.000 OA
ATOM     27  C   UNL     1     106.210 124.792 141.874  0.00  0.00    +0.000 A 
ATOM     28  C   UNL     1     106.835 125.120 141.448  0.00  0.00    +0.000 A 
ATOM     29  C   UNL     1     105.523 124.557 141.484  0.00  0.00    +0.000 A 
ATOM     30  C   UNL     1     106.773 125.211 140.630  0.00  0.00    +0.000 A 
ATOM     31  C   UNL     1     105.460 124.648 140.667  0.00  0.00    +0.000 A 
ATOM     32  C   UNL     1     106.086 124.976 140.240  0.00  0.00    +0.000 A 
BRANCH  30  33
ATOM     33  O   UNL     1     107.398 125.539 140.203  0.00  0.00    +0.000 OA
ATOM     34  C   UNL     1     108.165 125.509 140.506  0.00  0.00    +0.000 C 
ENDBRANCH  30  33
ENDBRANCH  25  27
ENDBRANCH  23  24
ENDBRANCH  21  23
ENDBRANCH  20  21
ENDBRANCH  19  20
ENDBRANCH  10  15
ENDBRANCH   4  10
BRANCH   8  35
ATOM     35  O   UNL     1     105.573 127.414 146.736  0.00  0.00    +0.000 OA
BRANCH  35  39
ATOM     36  O   UNL     1     105.079 128.157 143.965  0.00  0.00    +0.000 OA
ATOM     37  O   UNL     1     107.797 127.939 144.918  0.00  0.00    +0.000 OA
ATOM     38  O   UNL     1     107.514 128.305 143.551  0.00  0.00    +0.000 OA
ATOM     39  C   UNL     1     105.856 127.620 145.989  0.00  0.00    +0.000 A 
ATOM     40  C   UNL     1     105.307 127.786 145.349  0.00  0.00    +0.000 A 
ATOM     41  C   UNL     1     106.702 127.672 145.845  0.00  0.00    +0.000 A 
ATOM     42  C   UNL     1     105.611 128.000 144.574  0.00  0.00    +0.000 A 
ATOM     43  C   UNL     1     106.423 128.049 144.437  0.00  0.00    +0.000 A 
ATOM     44  C   UNL     1     106.170 128.414 143.078  0.00  0.00    +0.000 A 
ATOM     45  C   UNL     1     106.987 127.888 145.064  0.00  0.00    +0.000 A 
ATOM     46  C   UNL     1     106.703 128.256 143.689  0.00  0.00    +0.000 A 
ATOM     47  C   UNL     1     105.359 128.364 143.217  0.00  0.00    +0.000 A 
BRANCH  47  49
ATOM     48  O   UNL     1     103.230 128.995 140.773  0.00  0.00    +0.000 OA
ATOM     49  C   UNL     1     104.827 128.522 142.606  0.00  0.00    +0.000 A 
ATOM     50  C   UNL     1     104.356 129.199 142.632  0.00  0.00    +0.000 A 
ATOM     51  C   UNL     1     104.765 128.002 141.968  0.00  0.00    +0.000 A 
ATOM     52  C   UNL     1     103.824 129.356 142.022  0.00  0.00    +0.000 A 
ATOM     53  C   UNL     1     104.233 128.160 141.357  0.00  0.00    +0.000 A 
ATOM     54  C   UNL     1     103.762 128.837 141.384  0.00  0.00    +0.000 A 
ENDBRANCH  47  49
BRANCH  44  55
ATOM     55  O   UNL     1     106.450 128.621 142.330  0.00  0.00    +0.000 OA
BRANCH  55  64
ATOM     56  O   UNL     1     106.779 129.955 142.720  0.00  0.00    +0.000 OA
ATOM     57  O   UNL     1     108.532 130.033 140.974  0.00  0.00    +0.000 OA
ATOM     58  O   UNL     1     108.278 131.342 141.946  0.00  0.00    +0.000 OA
ATOM     59  O   UNL     1     107.619 128.673 141.166  0.00  0.00    +0.000 OA
ATOM     60  C   UNL     1     107.948 130.007 141.556  0.00  0.00    +0.000 C 
ATOM     61  C   UNL     1     107.821 130.662 142.042  0.00  0.00    +0.000 C 
ATOM     62  C   UNL     1     107.491 129.327 141.652  0.00  0.00    +0.000 C 
ATOM     63  C   UNL     1     107.237 130.636 142.624  0.00  0.00    +0.000 C 
ATOM     64  C   UNL     1     106.907 129.301 142.234  0.00  0.00    +0.000 C 
ATOM     65  C   UNL     1     107.109 131.290 143.110  0.00  0.00    +0.000 C 
ENDBRANCH  55  64
ENDBRANCH  44  55
ENDBRANCH  35  39
ENDBRANCH   8  35
TORSDOF 13
ENDMDL
MODEL 3
REMARK VINA RESULT:     -10.3      1.742      3.417
REMARK  Name = 44258974
REMARK  13 active torsions:
REMARK  status: ('A' for Active; 'I' for Inactive)
REMARK    1  A    between atoms: O_1  and  C_23
REMARK    2  A    between atoms: O_1  and  C_25
REMARK    3  A    between atoms: O_7  and  C_32
REMARK    4  A    between atoms: O_7  and  C_40
REMARK    5  A    between atoms: O_10  and  C_33
REMARK    6  A    between atoms: O_10  and  C_48
REMARK    7  A    between atoms: O_12  and  C_39
REMARK    8  A    between atoms: O_12  and  C_46
REMARK    9  A    between atoms: O_21  and  C_62
REMARK   10  A    between atoms: C_31  and  C_33
REMARK   11  A    between atoms: C_48  and  C_51
REMARK   12  A    between atoms: C_50  and  C_52
REMARK   13  A    between atoms: C_55  and  C_58
REMARK                            x       y       z     vdW  Elec       q    Type
REMARK                         _______ _______ _______ _____ _____    ______ ____
ROOT
ATOM      1  O   UNL     1     112.717 128.916 136.643  0.00  0.00    +0.000 OA
ATOM      2  O   UNL     1     111.965 128.602 134.618  0.00  0.00    +0.000 OA
ATOM      3  O   UNL     1     111.971 126.881 136.900  0.00  0.00    +0.000 OA
ATOM      4  C   UNL     1     111.968 127.742 135.759  0.00  0.00    +0.000 C 
ATOM      5  C   UNL     1     112.153 128.465 135.409  0.00  0.00    +0.000 C 
ATOM      6  C   UNL     1     112.156 127.605 136.550  0.00  0.00    +0.000 C 
ATOM      7  C   UNL     1     112.528 129.053 135.851  0.00  0.00    +0.000 C 
ATOM      8  C   UNL     1     112.531 128.193 136.992  0.00  0.00    +0.000 C 
ATOM      9  C   UNL     1     112.713 129.777 135.502  0.00  0.00    +0.000 C 
ENDROOT
BRANCH   4  10
ATOM     10  O   UNL     1     111.593 127.154 135.317  0.00  0.00    +0.000 OA
BRANCH  10  15
ATOM     11  O   UNL     1     110.310 127.648 135.705  0.00  0.00    +0.000 OA
ATOM     12  O   UNL     1     110.892 125.769 134.759  0.00  0.00    +0.000 OA
ATOM     13  O   UNL     1     109.257 125.570 134.869  0.00  0.00    +0.000 OA
ATOM     14  O   UNL     1     108.325 126.756 135.536  0.00  0.00    +0.000 OA
ATOM     15  C   UNL     1     110.775 127.054 135.371  0.00  0.00    +0.000 C 
ATOM     16  C   UNL     1     110.425 126.362 135.093  0.00  0.00    +0.000 C 
ATOM     17  C   UNL     1     109.608 126.262 135.147  0.00  0.00    +0.000 C 
ATOM     18  C   UNL     1     109.141 126.856 135.481  0.00  0.00    +0.000 C 
ATOM     19  C   UNL     1     109.492 127.548 135.760  0.00  0.00    +0.000 C 
BRANCH  19  20
ATOM     20  C   UNL     1     109.026 128.141 136.093  0.00  0.00    +0.000 C 
BRANCH  20  21
ATOM     21  O   UNL     1     109.157 128.931 135.890  0.00  0.00    +0.000 OA
BRANCH  21  23
ATOM     22  O   UNL     1     107.870 129.545 135.994  0.00  0.00    +0.000 OA
ATOM     23  C   UNL     1     108.669 129.521 136.197  0.00  0.00    +0.000 C 
BRANCH  23  24
ATOM     24  C   UNL     1     108.982 130.089 136.709  0.00  0.00    +0.000 C 
ATOM     25  C   UNL     1     109.046 130.874 136.464  0.00  0.00    +0.000 C 
BRANCH  25  27
ATOM     26  O   UNL     1     110.295 133.142 138.510  0.00  0.00    +0.000 OA
ATOM     27  C   UNL     1     109.359 131.441 136.976  0.00  0.00    +0.000 A 
ATOM     28  C   UNL     1     110.161 131.628 136.943  0.00  0.00    +0.000 A 
ATOM     29  C   UNL     1     108.869 131.820 137.519  0.00  0.00    +0.000 A 
ATOM     30  C   UNL     1     110.474 132.196 137.455  0.00  0.00    +0.000 A 
ATOM     31  C   UNL     1     109.180 132.388 138.031  0.00  0.00    +0.000 A 
ATOM     32  C   UNL     1     109.984 132.575 137.998  0.00  0.00    +0.000 A 
BRANCH  30  33
ATOM     33  O   UNL     1     111.276 132.383 137.421  0.00  0.00    +0.000 OA
ATOM     34  C   UNL     1     111.586 132.759 136.755  0.00  0.00    +0.000 C 
ENDBRANCH  30  33
ENDBRANCH  25  27
ENDBRANCH  23  24
ENDBRANCH  21  23
ENDBRANCH  20  21
ENDBRANCH  19  20
ENDBRANCH  10  15
ENDBRANCH   4  10
BRANCH   8  35
ATOM     35  O   UNL     1     112.720 128.056 137.784  0.00  0.00    +0.000 OA
BRANCH  35  39
ATOM     36  O   UNL     1     110.627 128.930 139.609  0.00  0.00    +0.000 OA
ATOM     37  O   UNL     1     113.143 130.349 139.542  0.00  0.00    +0.000 OA
ATOM     38  O   UNL     1     112.083 130.754 140.433  0.00  0.00    +0.000 OA
ATOM     39  C   UNL     1     112.449 128.572 138.367  0.00  0.00    +0.000 A 
ATOM     40  C   UNL     1     111.659 128.481 138.693  0.00  0.00    +0.000 A 
ATOM     41  C   UNL     1     112.955 129.206 138.654  0.00  0.00    +0.000 A 
ATOM     42  C   UNL     1     111.386 129.024 139.301  0.00  0.00    +0.000 A 
ATOM     43  C   UNL     1     111.872 129.631 139.575  0.00  0.00    +0.000 A 
ATOM     44  C   UNL     1     110.838 130.053 140.468  0.00  0.00    +0.000 A 
ATOM     45  C   UNL     1     112.664 129.739 139.261  0.00  0.00    +0.000 A 
ATOM     46  C   UNL     1     111.598 130.146 140.159  0.00  0.00    +0.000 A 
ATOM     47  C   UNL     1     110.353 129.445 140.193  0.00  0.00    +0.000 A 
BRANCH  47  49
ATOM     48  O   UNL     1     107.315 129.074 141.430  0.00  0.00    +0.000 OA
ATOM     49  C   UNL     1     109.594 129.353 140.502  0.00  0.00    +0.000 A 
ATOM     50  C   UNL     1     109.010 129.913 140.340  0.00  0.00    +0.000 A 
ATOM     51  C   UNL     1     109.418 128.699 140.973  0.00  0.00    +0.000 A 
ATOM     52  C   UNL     1     108.251 129.820 140.649  0.00  0.00    +0.000 A 
ATOM     53  C   UNL     1     108.658 128.606 141.282  0.00  0.00    +0.000 A 
ATOM     54  C   UNL     1     108.075 129.166 141.121  0.00  0.00    +0.000 A 
ENDBRANCH  47  49
BRANCH  44  55
ATOM     55  O   UNL     1     110.564 130.568 141.051  0.00  0.00    +0.000 OA
BRANCH  55  64
ATOM     56  O   UNL     1     111.262 129.947 142.133  0.00  0.00    +0.000 OA
ATOM     57  O   UNL     1     111.569 132.158 143.203  0.00  0.00    +0.000 OA
ATOM     58  O   UNL     1     112.164 130.801 143.929  0.00  0.00    +0.000 OA
ATOM     59  O   UNL     1     110.769 132.042 141.765  0.00  0.00    +0.000 OA
ATOM     60  C   UNL     1     111.466 131.421 142.847  0.00  0.00    +0.000 C 
ATOM     61  C   UNL     1     111.764 130.743 143.210  0.00  0.00    +0.000 C 
ATOM     62  C   UNL     1     111.066 131.363 142.127  0.00  0.00    +0.000 C 
ATOM     63  C   UNL     1     111.662 130.006 142.853  0.00  0.00    +0.000 C 
ATOM     64  C   UNL     1     110.964 130.626 141.771  0.00  0.00    +0.000 C 
ATOM     65  C   UNL     1     111.959 129.327 143.215  0.00  0.00    +0.000 C 
ENDBRANCH  55  64
ENDBRANCH  44  55
ENDBRANCH  35  39
ENDBRANCH   8  35
TORSDOF 13
ENDMDL
MODEL 4
REMARK VINA RESULT:     -10.1      1.660      6.114
REMARK  Name = 44258974
REMARK  13 active torsions:
REMARK  status: ('A' for Active; 'I' for Inactive)
REMARK    1  A    between atoms: O_1  and  C_23
REMARK    2  A    between atoms: O_1  and  C_25
REMARK    3  A    between atoms: O_7  and  C_32
REMARK    4  A    between atoms: O_7  and  C_40
REMARK    5  A    between atoms: O_10  and  C_33
REMARK    6  A    between atoms: O_10  and  C_48
REMARK    7  A    between atoms: O_12  and  C_39
REMARK    8  A    between atoms: O_12  and  C_46
REMARK    9  A    between atoms: O_21  and  C_62
REMARK   10  A    between atoms: C_31  and  C_33
REMARK   11  A    between atoms: C_48  and  C_51
REMARK   12  A    between atoms: C_50  and  C_52
REMARK   13  A    between atoms: C_55  and  C_58
REMARK                            x       y       z     vdW  Elec       q    Type
REMARK                         _______ _______ _______ _____ _____    ______ ____
ROOT
ATOM      1  O   UNL     1     111.969 128.182 142.025  0.00  0.00    +0.000 OA
ATOM      2  O   UNL     1     110.789 129.726 143.019  0.00  0.00    +0.000 OA
ATOM      3  O   UNL     1     110.076 127.102 142.140  0.00  0.00    +0.000 OA
ATOM      4  C   UNL     1     110.432 128.414 142.580  0.00  0.00    +0.000 C 
ATOM      5  C   UNL     1     110.995 129.012 142.661  0.00  0.00    +0.000 C 
ATOM      6  C   UNL     1     110.638 127.700 142.221  0.00  0.00    +0.000 C 
ATOM      7  C   UNL     1     111.764 128.896 142.383  0.00  0.00    +0.000 C 
ATOM      8  C   UNL     1     111.407 127.584 141.944  0.00  0.00    +0.000 C 
ATOM      9  C   UNL     1     112.326 129.494 142.465  0.00  0.00    +0.000 C 
ENDROOT
BRANCH   4  10
ATOM     10  O   UNL     1     109.664 128.529 142.857  0.00  0.00    +0.000 OA
BRANCH  10  15
ATOM     11  O   UNL     1     109.276 129.217 141.665  0.00  0.00    +0.000 OA
ATOM     12  O   UNL     1     108.081 128.194 143.179  0.00  0.00    +0.000 OA
ATOM     13  O   UNL     1     106.902 128.713 142.148  0.00  0.00    +0.000 OA
ATOM     14  O   UNL     1     107.305 129.568 140.796  0.00  0.00    +0.000 OA
ATOM     15  C   UNL     1     109.074 128.789 142.341  0.00  0.00    +0.000 C 
ATOM     16  C   UNL     1     108.283 128.622 142.502  0.00  0.00    +0.000 C 
ATOM     17  C   UNL     1     107.693 128.881 141.987  0.00  0.00    +0.000 C 
ATOM     18  C   UNL     1     107.895 129.309 141.311  0.00  0.00    +0.000 C 
ATOM     19  C   UNL     1     108.686 129.476 141.150  0.00  0.00    +0.000 C 
BRANCH  19  20
ATOM     20  C   UNL     1     108.888 129.904 140.474  0.00  0.00    +0.000 C 
BRANCH  20  21
ATOM     21  O   UNL     1     109.398 129.573 139.915  0.00  0.00    +0.000 OA
BRANCH  21  23
ATOM     22  O   UNL     1     109.224 130.495 138.836  0.00  0.00    +0.000 OA
ATOM     23  C   UNL     1     109.719 130.046 139.320  0.00  0.00    +0.000 C 
BRANCH  23  24
ATOM     24  C   UNL     1     110.537 130.070 139.210  0.00  0.00    +0.000 C 
ATOM     25  C   UNL     1     110.849 130.387 138.515  0.00  0.00    +0.000 C 
BRANCH  25  27
ATOM     26  O   UNL     1     114.118 130.483 138.072  0.00  0.00    +0.000 OA
ATOM     27  C   UNL     1     111.667 130.411 138.404  0.00  0.00    +0.000 A 
ATOM     28  C   UNL     1     111.981 130.368 137.642  0.00  0.00    +0.000 A 
ATOM     29  C   UNL     1     112.169 130.477 139.054  0.00  0.00    +0.000 A 
ATOM     30  C   UNL     1     112.799 130.393 137.532  0.00  0.00    +0.000 A 
ATOM     31  C   UNL     1     112.986 130.502 138.944  0.00  0.00    +0.000 A 
ATOM     32  C   UNL     1     113.301 130.459 138.182  0.00  0.00    +0.000 A 
BRANCH  30  33
ATOM     33  O   UNL     1     113.113 130.350 136.770  0.00  0.00    +0.000 OA
ATOM     34  C   UNL     1     112.610 130.326 136.117  0.00  0.00    +0.000 C 
ENDBRANCH  30  33
ENDBRANCH  25  27
ENDBRANCH  23  24
ENDBRANCH  21  23
ENDBRANCH  20  21
ENDBRANCH  19  20
ENDBRANCH  10  15
ENDBRANCH   4  10
BRANCH   8  35
ATOM     35  O   UNL     1     111.612 126.870 141.585  0.00  0.00    +0.000 OA
BRANCH  35  39
ATOM     36  O   UNL     1     111.304 126.663 138.697  0.00  0.00    +0.000 OA
ATOM     37  O   UNL     1     113.934 127.065 139.824  0.00  0.00    +0.000 OA
ATOM     38  O   UNL     1     113.743 126.959 138.398  0.00  0.00    +0.000 OA
ATOM     39  C   UNL     1     111.941 126.868 140.829  0.00  0.00    +0.000 A 
ATOM     40  C   UNL     1     111.440 126.764 140.139  0.00  0.00    +0.000 A 
ATOM     41  C   UNL     1     112.789 126.971 140.725  0.00  0.00    +0.000 A 
ATOM     42  C   UNL     1     111.792 126.764 139.355  0.00  0.00    +0.000 A 
ATOM     43  C   UNL     1     112.605 126.862 139.256  0.00  0.00    +0.000 A 
ATOM     44  C   UNL     1     112.443 126.760 137.839  0.00  0.00    +0.000 A 
ATOM     45  C   UNL     1     113.122 126.968 139.933  0.00  0.00    +0.000 A 
ATOM     46  C   UNL     1     112.931 126.860 138.498  0.00  0.00    +0.000 A 
ATOM     47  C   UNL     1     111.630 126.661 137.940  0.00  0.00    +0.000 A 
BRANCH  47  49
ATOM     48  O   UNL     1     109.682 126.260 135.305  0.00  0.00    +0.000 OA
ATOM     49  C   UNL     1     111.144 126.561 137.281  0.00  0.00    +0.000 A 
ATOM     50  C   UNL     1     110.836 125.816 137.104  0.00  0.00    +0.000 A 
ATOM     51  C   UNL     1     110.963 127.206 136.799  0.00  0.00    +0.000 A 
ATOM     52  C   UNL     1     110.349 125.716 136.445  0.00  0.00    +0.000 A 
ATOM     53  C   UNL     1     110.477 127.106 136.141  0.00  0.00    +0.000 A 
ATOM     54  C   UNL     1     110.169 126.361 135.963  0.00  0.00    +0.000 A 
ENDBRANCH  47  49
BRANCH  44  55
ATOM     55  O   UNL     1     112.769 126.758 137.081  0.00  0.00    +0.000 OA
BRANCH  55  64
ATOM     56  O   UNL     1     113.334 125.449 137.178  0.00  0.00    +0.000 OA
ATOM     57  O   UNL     1     115.221 126.156 135.742  0.00  0.00    +0.000 OA
ATOM     58  O   UNL     1     115.157 124.611 136.318  0.00  0.00    +0.000 OA
ATOM     59  O   UNL     1     114.028 127.229 136.124  0.00  0.00    +0.000 OA
ATOM     60  C   UNL     1     114.592 125.920 136.221  0.00  0.00    +0.000 C 
ATOM     61  C   UNL     1     114.560 125.148 136.508  0.00  0.00    +0.000 C 
ATOM     62  C   UNL     1     113.995 126.457 136.412  0.00  0.00    +0.000 C 
ATOM     63  C   UNL     1     113.931 124.912 136.987  0.00  0.00    +0.000 C 
ATOM     64  C   UNL     1     113.366 126.221 136.890  0.00  0.00    +0.000 C 
ATOM     65  C   UNL     1     113.899 124.140 137.275  0.00  0.00    +0.000 C 
ENDBRANCH  55  64
ENDBRANCH  44  55
ENDBRANCH  35  39
ENDBRANCH   8  35
TORSDOF 13
ENDMDL
MODEL 5
REMARK VINA RESULT:     -10.0      1.202      2.264
REMARK  Name = 44258974
REMARK  13 active torsions:
REMARK  status: ('A' for Active; 'I' for Inactive)
REMARK    1  A    between atoms: O_1  and  C_23
REMARK    2  A    between atoms: O_1  and  C_25
REMARK    3  A    between atoms: O_7  and  C_32
REMARK    4  A    between atoms: O_7  and  C_40
REMARK    5  A    between atoms: O_10  and  C_33
REMARK    6  A    between atoms: O_10  and  C_48
REMARK    7  A    between atoms: O_12  and  C_39
REMARK    8  A    between atoms: O_12  and  C_46
REMARK    9  A    between atoms: O_21  and  C_62
REMARK   10  A    between atoms: C_31  and  C_33
REMARK   11  A    between atoms: C_48  and  C_51
REMARK   12  A    between atoms: C_50  and  C_52
REMARK   13  A    between atoms: C_55  and  C_58
REMARK                            x       y       z     vdW  Elec       q    Type
REMARK                         _______ _______ _______ _____ _____    ______ ____
ROOT
ATOM      1  O   UNL     1     110.015 126.318 137.599  0.00  0.00    +0.000 OA
ATOM      2  O   UNL     1     110.798 125.584 135.698  0.00  0.00    +0.000 OA
ATOM      3  O   UNL     1     111.493 124.921 138.390  0.00  0.00    +0.000 OA
ATOM      4  C   UNL     1     111.145 125.252 137.044  0.00  0.00    +0.000 C 
ATOM      5  C   UNL     1     110.689 125.685 136.509  0.00  0.00    +0.000 C 
ATOM      6  C   UNL     1     111.037 125.353 137.855  0.00  0.00    +0.000 C 
ATOM      7  C   UNL     1     110.123 126.218 136.787  0.00  0.00    +0.000 C 
ATOM      8  C   UNL     1     110.470 125.886 138.133  0.00  0.00    +0.000 C 
ATOM      9  C   UNL     1     109.667 126.650 136.253  0.00  0.00    +0.000 C 
ENDROOT
BRANCH   4  10
ATOM     10  O   UNL     1     111.711 124.719 136.767  0.00  0.00    +0.000 OA
BRANCH  10  15
ATOM     11  O   UNL     1     112.720 125.712 136.569  0.00  0.00    +0.000 OA
ATOM     12  O   UNL     1     112.877 123.597 137.088  0.00  0.00    +0.000 OA
ATOM     13  O   UNL     1     114.469 124.029 137.050  0.00  0.00    +0.000 OA
ATOM     14  O   UNL     1     114.895 125.582 136.692  0.00  0.00    +0.000 OA
ATOM     15  C   UNL     1     112.507 124.935 136.748  0.00  0.00    +0.000 C 
ATOM     16  C   UNL     1     113.090 124.375 136.908  0.00  0.00    +0.000 C 
ATOM     17  C   UNL     1     113.886 124.590 136.890  0.00  0.00    +0.000 C 
ATOM     18  C   UNL     1     114.099 125.367 136.711  0.00  0.00    +0.000 C 
ATOM     19  C   UNL     1     113.517 125.927 136.550  0.00  0.00    +0.000 C 
BRANCH  19  20
ATOM     20  C   UNL     1     113.729 126.704 136.371  0.00  0.00    +0.000 C 
BRANCH  20  21
ATOM     21  O   UNL     1     113.295 127.333 136.685  0.00  0.00    +0.000 OA
BRANCH  21  23
ATOM     22  O   UNL     1     113.861 128.219 135.717  0.00  0.00    +0.000 OA
ATOM     23  C   UNL     1     113.412 128.097 136.398  0.00  0.00    +0.000 C 
BRANCH  23  24
ATOM     24  C   UNL     1     113.078 128.741 136.794  0.00  0.00    +0.000 C 
ATOM     25  C   UNL     1     112.525 129.218 136.410  0.00  0.00    +0.000 C 
BRANCH  25  27
ATOM     26  O   UNL     1     111.192 131.791 137.990  0.00  0.00    +0.000 OA
ATOM     27  C   UNL     1     112.192 129.862 136.805  0.00  0.00    +0.000 A 
ATOM     28  C   UNL     1     111.377 129.986 136.775  0.00  0.00    +0.000 A 
ATOM     29  C   UNL     1     112.673 130.379 137.229  0.00  0.00    +0.000 A 
ATOM     30  C   UNL     1     111.043 130.630 137.171  0.00  0.00    +0.000 A 
ATOM     31  C   UNL     1     112.340 131.022 137.624  0.00  0.00    +0.000 A 
ATOM     32  C   UNL     1     111.524 131.147 137.595  0.00  0.00    +0.000 A 
BRANCH  30  33
ATOM     33  O   UNL     1     110.229 130.754 137.141  0.00  0.00    +0.000 OA
ATOM     34  C   UNL     1     109.745 130.229 136.728  0.00  0.00    +0.000 C 
ENDBRANCH  30  33
ENDBRANCH  25  27
ENDBRANCH  23  24
ENDBRANCH  21  23
ENDBRANCH  20  21
ENDBRANCH  19  20
ENDBRANCH  10  15
ENDBRANCH   4  10
BRANCH   8  35
ATOM     35  O   UNL     1     110.362 125.987 138.945  0.00  0.00    +0.000 OA
BRANCH  35  39
ATOM     36  O   UNL     1     109.348 128.481 140.052  0.00  0.00    +0.000 OA
ATOM     37  O   UNL     1     112.198 128.017 139.961  0.00  0.00    +0.000 OA
ATOM     38  O   UNL     1     111.660 129.241 140.503  0.00  0.00    +0.000 OA
ATOM     39  C   UNL     1     110.497 126.723 139.290  0.00  0.00    +0.000 A 
ATOM     40  C   UNL     1     109.836 127.232 139.497  0.00  0.00    +0.000 A 
ATOM     41  C   UNL     1     111.300 126.987 139.447  0.00  0.00    +0.000 A 
ATOM     42  C   UNL     1     109.987 127.998 139.857  0.00  0.00    +0.000 A 
ATOM     43  C   UNL     1     110.758 128.251 140.007  0.00  0.00    +0.000 A 
ATOM     44  C   UNL     1     110.250 129.472 140.548  0.00  0.00    +0.000 A 
ATOM     45  C   UNL     1     111.431 127.756 139.807  0.00  0.00    +0.000 A 
ATOM     46  C   UNL     1     110.890 128.988 140.353  0.00  0.00    +0.000 A 
ATOM     47  C   UNL     1     109.480 129.218 140.398  0.00  0.00    +0.000 A 
BRANCH  47  49
ATOM     48  O   UNL     1     106.925 131.155 141.182  0.00  0.00    +0.000 OA
ATOM     49  C   UNL     1     108.842 129.703 140.594  0.00  0.00    +0.000 A 
ATOM     50  C   UNL     1     108.689 130.384 140.154  0.00  0.00    +0.000 A 
ATOM     51  C   UNL     1     108.355 129.506 141.230  0.00  0.00    +0.000 A 
ATOM     52  C   UNL     1     108.050 130.868 140.350  0.00  0.00    +0.000 A 
ATOM     53  C   UNL     1     107.716 129.990 141.426  0.00  0.00    +0.000 A 
ATOM     54  C   UNL     1     107.563 130.671 140.986  0.00  0.00    +0.000 A 
ENDBRANCH  47  49
BRANCH  44  55
ATOM     55  O   UNL     1     110.382 130.210 140.894  0.00  0.00    +0.000 OA
BRANCH  55  64
ATOM     56  O   UNL     1     110.717 129.668 142.174  0.00  0.00    +0.000 OA
ATOM     57  O   UNL     1     112.186 131.612 142.611  0.00  0.00    +0.000 OA
ATOM     58  O   UNL     1     112.032 130.424 143.745  0.00  0.00    +0.000 OA
ATOM     59  O   UNL     1     111.361 131.505 141.186  0.00  0.00    +0.000 OA
ATOM     60  C   UNL     1     111.696 130.964 142.465  0.00  0.00    +0.000 C 
ATOM     61  C   UNL     1     111.620 130.370 143.032  0.00  0.00    +0.000 C 
ATOM     62  C   UNL     1     111.284 130.911 141.753  0.00  0.00    +0.000 C 
ATOM     63  C   UNL     1     111.130 129.722 142.887  0.00  0.00    +0.000 C 
ATOM     64  C   UNL     1     110.795 130.263 141.607  0.00  0.00    +0.000 C 
ATOM     65  C   UNL     1     111.053 129.128 143.453  0.00  0.00    +0.000 C 
ENDBRANCH  55  64
ENDBRANCH  44  55
ENDBRANCH  35  39
ENDBRANCH   8  35
TORSDOF 13
ENDMDL
MODEL 6
REMARK VINA RESULT:      -9.8      2.481      6.056
REMARK  Name = 44258974
REMARK  13 active torsions:
REMARK  status: ('A' for Active; 'I' for Inactive)
REMARK    1  A    between atoms: O_1  and  C_23
REMARK    2  A    between atoms: O_1  and  C_25
REMARK    3  A    between atoms: O_7  and  C_32
REMARK    4  A    between atoms: O_7  and  C_40
REMARK    5  A    between atoms: O_10  and  C_33
REMARK    6  A    between atoms: O_10  and  C_48
REMARK    7  A    between atoms: O_12  and  C_39
REMARK    8  A    between atoms: O_12  and  C_46
REMARK    9  A    between atoms: O_21  and  C_62
REMARK   10  A    between atoms: C_31  and  C_33
REMARK   11  A    between atoms: C_48  and  C_51
REMARK   12  A    between atoms: C_50  and  C_52
REMARK   13  A    between atoms: C_55  and  C_58
REMARK                            x       y       z     vdW  Elec       q    Type
REMARK                         _______ _______ _______ _____ _____    ______ ____
ROOT
ATOM      1  O   UNL     1     108.192 129.651 142.663  0.00  0.00    +0.000 OA
ATOM      2  O   UNL     1     107.696 127.946 143.933  0.00  0.00    +0.000 OA
ATOM      3  O   UNL     1     106.536 128.854 141.484  0.00  0.00    +0.000 OA
ATOM      4  C   UNL     1     107.116 128.400 142.709  0.00  0.00    +0.000 C 
ATOM      5  C   UNL     1     107.675 128.485 143.310  0.00  0.00    +0.000 C 
ATOM      6  C   UNL     1     107.095 128.939 142.086  0.00  0.00    +0.000 C 
ATOM      7  C   UNL     1     108.213 129.111 143.287  0.00  0.00    +0.000 C 
ATOM      8  C   UNL     1     107.633 129.565 142.063  0.00  0.00    +0.000 C 
ATOM      9  C   UNL     1     108.772 129.197 143.888  0.00  0.00    +0.000 C 
ENDROOT
BRANCH   4  10
ATOM     10  O   UNL     1     106.579 127.775 142.732  0.00  0.00    +0.000 OA
BRANCH  10  15
ATOM     11  O   UNL     1     107.480 126.965 141.975  0.00  0.00    +0.000 OA
ATOM     12  O   UNL     1     105.431 126.594 142.627  0.00  0.00    +0.000 OA
ATOM     13  O   UNL     1     105.759 125.194 141.818  0.00  0.00    +0.000 OA
ATOM     14  O   UNL     1     107.234 124.975 141.113  0.00  0.00    +0.000 OA
ATOM     15  C   UNL     1     106.743 127.074 142.327  0.00  0.00    +0.000 C 
ATOM     16  C   UNL     1     106.169 126.484 142.275  0.00  0.00    +0.000 C 
ATOM     17  C   UNL     1     106.333 125.784 141.870  0.00  0.00    +0.000 C 
ATOM     18  C   UNL     1     107.071 125.675 141.518  0.00  0.00    +0.000 C 
ATOM     19  C   UNL     1     107.644 126.264 141.570  0.00  0.00    +0.000 C 
BRANCH  19  20
ATOM     20  C   UNL     1     108.382 126.155 141.218  0.00  0.00    +0.000 C 
BRANCH  20  21
ATOM     21  O   UNL     1     109.071 126.295 141.652  0.00  0.00    +0.000 OA
BRANCH  21  23
ATOM     22  O   UNL     1     110.034 125.613 140.846  0.00  0.00    +0.000 OA
ATOM     23  C   UNL     1     109.805 126.279 141.276  0.00  0.00    +0.000 C 
BRANCH  23  24
ATOM     24  C   UNL     1     110.310 126.929 141.331  0.00  0.00    +0.000 C 
ATOM     25  C   UNL     1     111.125 126.814 141.386  0.00  0.00    +0.000 C 
BRANCH  25  27
ATOM     26  O   UNL     1     113.147 129.413 141.604  0.00  0.00    +0.000 OA
ATOM     27  C   UNL     1     111.631 127.464 141.441  0.00  0.00    +0.000 A 
ATOM     28  C   UNL     1     112.228 127.570 140.882  0.00  0.00    +0.000 A 
ATOM     29  C   UNL     1     111.539 128.007 142.054  0.00  0.00    +0.000 A 
ATOM     30  C   UNL     1     112.734 128.220 140.937  0.00  0.00    +0.000 A 
ATOM     31  C   UNL     1     112.044 128.657 142.109  0.00  0.00    +0.000 A 
ATOM     32  C   UNL     1     112.642 128.763 141.549  0.00  0.00    +0.000 A 
BRANCH  30  33
ATOM     33  O   UNL     1     113.331 128.325 140.378  0.00  0.00    +0.000 OA
ATOM     34  C   UNL     1     113.556 127.699 139.891  0.00  0.00    +0.000 C 
ENDBRANCH  30  33
ENDBRANCH  25  27
ENDBRANCH  23  24
ENDBRANCH  21  23
ENDBRANCH  20  21
ENDBRANCH  19  20
ENDBRANCH  10  15
ENDBRANCH   4  10
BRANCH   8  35
ATOM     35  O   UNL     1     107.612 130.105 141.439  0.00  0.00    +0.000 OA
BRANCH  35  39
ATOM     36  O   UNL     1     109.156 129.278 139.113  0.00  0.00    +0.000 OA
ATOM     37  O   UNL     1     110.099 131.468 140.745  0.00  0.00    +0.000 OA
ATOM     38  O   UNL     1     110.838 131.031 139.585  0.00  0.00    +0.000 OA
ATOM     39  C   UNL     1     108.269 130.193 140.947  0.00  0.00    +0.000 A 
ATOM     40  C   UNL     1     108.374 129.677 140.268  0.00  0.00    +0.000 A 
ATOM     41  C   UNL     1     108.853 130.802 141.112  0.00  0.00    +0.000 A 
ATOM     42  C   UNL     1     109.061 129.777 139.763  0.00  0.00    +0.000 A 
ATOM     43  C   UNL     1     109.622 130.361 139.921  0.00  0.00    +0.000 A 
ATOM     44  C   UNL     1     110.373 129.948 138.777  0.00  0.00    +0.000 A 
ATOM     45  C   UNL     1     109.534 130.886 140.595  0.00  0.00    +0.000 A 
ATOM     46  C   UNL     1     110.278 130.447 139.428  0.00  0.00    +0.000 A 
ATOM     47  C   UNL     1     109.812 129.364 138.620  0.00  0.00    +0.000 A 
BRANCH  47  49
ATOM     48  O   UNL     1     110.194 127.370 136.017  0.00  0.00    +0.000 OA
ATOM     49  C   UNL     1     109.907 128.866 137.969  0.00  0.00    +0.000 A 
ATOM     50  C   UNL     1     109.442 128.971 137.296  0.00  0.00    +0.000 A 
ATOM     51  C   UNL     1     110.469 128.262 137.991  0.00  0.00    +0.000 A 
ATOM     52  C   UNL     1     109.537 128.472 136.646  0.00  0.00    +0.000 A 
ATOM     53  C   UNL     1     110.565 127.764 137.340  0.00  0.00    +0.000 A 
ATOM     54  C   UNL     1     110.099 127.869 136.668  0.00  0.00    +0.000 A 
ENDBRANCH  47  49
BRANCH  44  55
ATOM     55  O   UNL     1     111.029 130.034 138.284  0.00  0.00    +0.000 OA
BRANCH  55  64
ATOM     56  O   UNL     1     110.508 131.204 137.650  0.00  0.00    +0.000 OA
ATOM     57  O   UNL     1     112.811 131.953 137.139  0.00  0.00    +0.000 OA
ATOM     58  O   UNL     1     111.524 132.873 136.675  0.00  0.00    +0.000 OA
ATOM     59  O   UNL     1     112.564 130.533 137.943  0.00  0.00    +0.000 OA
ATOM     60  C   UNL     1     112.044 131.703 137.309  0.00  0.00    +0.000 C 
ATOM     61  C   UNL     1     111.400 132.164 137.077  0.00  0.00    +0.000 C 
ATOM     62  C   UNL     1     111.920 130.993 137.711  0.00  0.00    +0.000 C 
ATOM     63  C   UNL     1     110.632 131.914 137.247  0.00  0.00    +0.000 C 
ATOM     64  C   UNL     1     111.152 130.744 137.882  0.00  0.00    +0.000 C 
ATOM     65  C   UNL     1     109.988 132.374 137.015  0.00  0.00    +0.000 C 
ENDBRANCH  55  64
ENDBRANCH  44  55
ENDBRANCH  35  39
ENDBRANCH   8  35
TORSDOF 13
ENDMDL
MODEL 7
REMARK VINA RESULT:      -9.8      1.609      5.931
REMARK  Name = 44258974
REMARK  13 active torsions:
REMARK  status: ('A' for Active; 'I' for Inactive)
REMARK    1  A    between atoms: O_1  and  C_23
REMARK    2  A    between atoms: O_1  and  C_25
REMARK    3  A    between atoms: O_7  and  C_32
REMARK    4  A    between atoms: O_7  and  C_40
REMARK    5  A    between atoms: O_10  and  C_33
REMARK    6  A    between atoms: O_10  and  C_48
REMARK    7  A    between atoms: O_12  and  C_39
REMARK    8  A    between atoms: O_12  and  C_46
REMARK    9  A    between atoms: O_21  and  C_62
REMARK   10  A    between atoms: C_31  and  C_33
REMARK   11  A    between atoms: C_48  and  C_51
REMARK   12  A    between atoms: C_50  and  C_52
REMARK   13  A    between atoms: C_55  and  C_58
REMARK                            x       y       z     vdW  Elec       q    Type
REMARK                         _______ _______ _______ _____ _____    ______ ____
ROOT
ATOM      1  O   UNL     1     112.868 128.221 141.258  0.00  0.00    +0.000 OA
ATOM      2  O   UNL     1     111.495 126.667 141.940  0.00  0.00    +0.000 OA
ATOM      3  O   UNL     1     111.396 129.509 142.228  0.00  0.00    +0.000 OA
ATOM      4  C   UNL     1     111.446 128.088 142.084  0.00  0.00    +0.000 C 
ATOM      5  C   UNL     1     111.825 127.410 141.806  0.00  0.00    +0.000 C 
ATOM      6  C   UNL     1     111.776 128.831 141.950  0.00  0.00    +0.000 C 
ATOM      7  C   UNL     1     112.537 127.477 141.392  0.00  0.00    +0.000 C 
ATOM      8  C   UNL     1     112.488 128.898 141.536  0.00  0.00    +0.000 C 
ATOM      9  C   UNL     1     112.917 126.800 141.114  0.00  0.00    +0.000 C 
ENDROOT
BRANCH   4  10
ATOM     10  O   UNL     1     110.735 128.022 142.497  0.00  0.00    +0.000 OA
BRANCH  10  15
ATOM     11  O   UNL     1     109.988 128.054 141.279  0.00  0.00    +0.000 OA
ATOM     12  O   UNL     1     109.359 128.342 143.350  0.00  0.00    +0.000 OA
ATOM     13  O   UNL     1     107.924 128.534 142.558  0.00  0.00    +0.000 OA
ATOM     14  O   UNL     1     107.864 128.405 140.914  0.00  0.00    +0.000 OA
ATOM     15  C   UNL     1     110.016 128.118 142.101  0.00  0.00    +0.000 C 
ATOM     16  C   UNL     1     109.329 128.277 142.527  0.00  0.00    +0.000 C 
ATOM     17  C   UNL     1     108.612 128.374 142.132  0.00  0.00    +0.000 C 
ATOM     18  C   UNL     1     108.582 128.309 141.309  0.00  0.00    +0.000 C 
ATOM     19  C   UNL     1     109.269 128.150 140.884  0.00  0.00    +0.000 C 
BRANCH  19  20
ATOM     20  C   UNL     1     109.240 128.086 140.062  0.00  0.00    +0.000 C 
BRANCH  20  21
ATOM     21  O   UNL     1     109.655 127.482 139.681  0.00  0.00    +0.000 OA
BRANCH  21  23
ATOM     22  O   UNL     1     109.452 128.120 138.418  0.00  0.00    +0.000 OA
ATOM     23  C   UNL     1     109.691 127.463 138.857  0.00  0.00    +0.000 C 
BRANCH  23  24
ATOM     24  C   UNL     1     109.966 126.787 138.471  0.00  0.00    +0.000 C 
ATOM     25  C   UNL     1     110.588 126.844 137.933  0.00  0.00    +0.000 C 
BRANCH  25  27
ATOM     26  O   UNL     1     111.687 124.141 136.392  0.00  0.00    +0.000 OA
ATOM     27  C   UNL     1     110.863 126.168 137.547  0.00  0.00    +0.000 A 
ATOM     28  C   UNL     1     110.605 125.996 136.783  0.00  0.00    +0.000 A 
ATOM     29  C   UNL     1     111.395 125.665 137.926  0.00  0.00    +0.000 A 
ATOM     30  C   UNL     1     110.880 125.319 136.398  0.00  0.00    +0.000 A 
ATOM     31  C   UNL     1     111.671 124.989 137.541  0.00  0.00    +0.000 A 
ATOM     32  C   UNL     1     111.412 124.817 136.776  0.00  0.00    +0.000 A 
BRANCH  30  33
ATOM     33  O   UNL     1     110.622 125.147 135.634  0.00  0.00    +0.000 OA
ATOM     34  C   UNL     1     110.532 125.754 135.081  0.00  0.00    +0.000 C 
ENDBRANCH  30  33
ENDBRANCH  25  27
ENDBRANCH  23  24
ENDBRANCH  21  23
ENDBRANCH  20  21
ENDBRANCH  19  20
ENDBRANCH  10  15
ENDBRANCH   4  10
BRANCH   8  35
ATOM     35  O   UNL     1     112.819 129.642 141.402  0.00  0.00    +0.000 OA
BRANCH  35  39
ATOM     36  O   UNL     1     112.040 130.543 138.745  0.00  0.00    +0.000 OA
ATOM     37  O   UNL     1     114.836 130.145 139.352  0.00  0.00    +0.000 OA
ATOM     38  O   UNL     1     114.414 130.590 138.046  0.00  0.00    +0.000 OA
ATOM     39  C   UNL     1     113.021 129.870 140.636  0.00  0.00    +0.000 A 
ATOM     40  C   UNL     1     112.411 130.094 140.074  0.00  0.00    +0.000 A 
ATOM     41  C   UNL     1     113.846 129.887 140.393  0.00  0.00    +0.000 A 
ATOM     42  C   UNL     1     112.632 130.330 139.279  0.00  0.00    +0.000 A 
ATOM     43  C   UNL     1     113.423 130.346 139.046  0.00  0.00    +0.000 A 
ATOM     44  C   UNL     1     113.031 130.788 137.744  0.00  0.00    +0.000 A 
ATOM     45  C   UNL     1     114.048 130.126 139.593  0.00  0.00    +0.000 A 
ATOM     46  C   UNL     1     113.623 130.575 138.279  0.00  0.00    +0.000 A 
ATOM     47  C   UNL     1     112.240 130.772 137.978  0.00  0.00    +0.000 A 
BRANCH  47  49
ATOM     48  O   UNL     1     109.875 131.626 135.840  0.00  0.00    +0.000 OA
ATOM     49  C   UNL     1     111.649 130.986 137.444  0.00  0.00    +0.000 A 
ATOM     50  C   UNL     1     111.193 130.404 137.077  0.00  0.00    +0.000 A 
ATOM     51  C   UNL     1     111.513 131.782 137.275  0.00  0.00    +0.000 A 
ATOM     52  C   UNL     1     110.602 130.617 136.543  0.00  0.00    +0.000 A 
ATOM     53  C   UNL     1     110.922 131.995 136.741  0.00  0.00    +0.000 A 
ATOM     54  C   UNL     1     110.466 131.413 136.374  0.00  0.00    +0.000 A 
ENDBRANCH  47  49
BRANCH  44  55
ATOM     55  O   UNL     1     113.231 131.017 136.978  0.00  0.00    +0.000 OA
BRANCH  55  64
ATOM     56  O   UNL     1     113.481 129.691 136.506  0.00  0.00    +0.000 OA
ATOM     57  O   UNL     1     115.225 130.563 134.982  0.00  0.00    +0.000 OA
ATOM     58  O   UNL     1     114.895 128.947 135.018  0.00  0.00    +0.000 OA
ATOM     59  O   UNL     1     114.394 131.598 135.961  0.00  0.00    +0.000 OA
ATOM     60  C   UNL     1     114.644 130.272 135.490  0.00  0.00    +0.000 C 
ATOM     61  C   UNL     1     114.479 129.465 135.508  0.00  0.00    +0.000 C 
ATOM     62  C   UNL     1     114.228 130.790 135.980  0.00  0.00    +0.000 C 
ATOM     63  C   UNL     1     113.898 129.174 136.016  0.00  0.00    +0.000 C 
ATOM     64  C   UNL     1     113.647 130.500 136.488  0.00  0.00    +0.000 C 
ATOM     65  C   UNL     1     113.732 128.366 136.035  0.00  0.00    +0.000 C 
ENDBRANCH  55  64
ENDBRANCH  44  55
ENDBRANCH  35  39
ENDBRANCH   8  35
TORSDOF 13
ENDMDL
MODEL 8
REMARK VINA RESULT:      -9.8      2.309      4.573
REMARK  Name = 44258974
REMARK  13 active torsions:
REMARK  status: ('A' for Active; 'I' for Inactive)
REMARK    1  A    between atoms: O_1  and  C_23
REMARK    2  A    between atoms: O_1  and  C_25
REMARK    3  A    between atoms: O_7  and  C_32
REMARK    4  A    between atoms: O_7  and  C_40
REMARK    5  A    between atoms: O_10  and  C_33
REMARK    6  A    between atoms: O_10  and  C_48
REMARK    7  A    between atoms: O_12  and  C_39
REMARK    8  A    between atoms: O_12  and  C_46
REMARK    9  A    between atoms: O_21  and  C_62
REMARK   10  A    between atoms: C_31  and  C_33
REMARK   11  A    between atoms: C_48  and  C_51
REMARK   12  A    between atoms: C_50  and  C_52
REMARK   13  A    between atoms: C_55  and  C_58
REMARK                            x       y       z     vdW  Elec       q    Type
REMARK                         _______ _______ _______ _____ _____    ______ ____
ROOT
ATOM      1  O   UNL     1     111.248 129.933 138.101  0.00  0.00    +0.000 OA
ATOM      2  O   UNL     1     112.781 128.550 137.395  0.00  0.00    +0.000 OA
ATOM      3  O   UNL     1     109.930 128.414 137.252  0.00  0.00    +0.000 OA
ATOM      4  C   UNL     1     111.356 128.482 137.323  0.00  0.00    +0.000 C 
ATOM      5  C   UNL     1     112.042 128.878 137.553  0.00  0.00    +0.000 C 
ATOM      6  C   UNL     1     110.616 128.810 137.482  0.00  0.00    +0.000 C 
ATOM      7  C   UNL     1     111.988 129.605 137.942  0.00  0.00    +0.000 C 
ATOM      8  C   UNL     1     110.562 129.537 137.871  0.00  0.00    +0.000 C 
ATOM      9  C   UNL     1     112.673 130.001 138.172  0.00  0.00    +0.000 C 
ENDROOT
BRANCH   4  10
ATOM     10  O   UNL     1     111.410 127.756 136.935  0.00  0.00    +0.000 OA
BRANCH  10  15
ATOM     11  O   UNL     1     111.342 127.071 138.187  0.00  0.00    +0.000 OA
ATOM     12  O   UNL     1     111.282 126.316 136.139  0.00  0.00    +0.000 OA
ATOM     13  O   UNL     1     111.151 124.911 136.994  0.00  0.00    +0.000 OA
ATOM     14  O   UNL     1     111.147 124.945 138.643  0.00  0.00    +0.000 OA
ATOM     15  C   UNL     1     111.344 127.053 137.362  0.00  0.00    +0.000 C 
ATOM     16  C   UNL     1     111.280 126.334 136.965  0.00  0.00    +0.000 C 
ATOM     17  C   UNL     1     111.214 125.631 137.391  0.00  0.00    +0.000 C 
ATOM     18  C   UNL     1     111.213 125.648 138.217  0.00  0.00    +0.000 C 
ATOM     19  C   UNL     1     111.276 126.367 138.614  0.00  0.00    +0.000 C 
BRANCH  19  20
ATOM     20  C   UNL     1     111.274 126.385 139.439  0.00  0.00    +0.000 C 
BRANCH  20  21
ATOM     21  O   UNL     1     111.895 126.748 139.844  0.00  0.00    +0.000 OA
BRANCH  21  23
ATOM     22  O   UNL     1     111.837 126.198 141.162  0.00  0.00    +0.000 OA
ATOM     23  C   UNL     1     111.848 126.853 140.661  0.00  0.00    +0.000 C 
BRANCH  23  24
ATOM     24  C   UNL     1     111.810 127.615 140.977  0.00  0.00    +0.000 C 
ATOM     25  C   UNL     1     112.333 127.840 141.574  0.00  0.00    +0.000 C 
BRANCH  25  27
ATOM     26  O   UNL     1     112.183 130.885 142.837  0.00  0.00    +0.000 OA
ATOM     27  C   UNL     1     112.295 128.602 141.890  0.00  0.00    +0.000 A 
ATOM     28  C   UNL     1     111.943 128.726 142.626  0.00  0.00    +0.000 A 
ATOM     29  C   UNL     1     112.609 129.238 141.471  0.00  0.00    +0.000 A 
ATOM     30  C   UNL     1     111.906 129.488 142.942  0.00  0.00    +0.000 A 
ATOM     31  C   UNL     1     112.572 129.999 141.786  0.00  0.00    +0.000 A 
ATOM     32  C   UNL     1     112.220 130.123 142.522  0.00  0.00    +0.000 A 
BRANCH  30  33
ATOM     33  O   UNL     1     111.554 129.611 143.677  0.00  0.00    +0.000 OA
ATOM     34  C   UNL     1     111.653 129.058 144.281  0.00  0.00    +0.000 C 
ENDBRANCH  30  33
ENDBRANCH  25  27
ENDBRANCH  23  24
ENDBRANCH  21  23
ENDBRANCH  20  21
ENDBRANCH  19  20
ENDBRANCH  10  15
ENDBRANCH   4  10
BRANCH   8  35
ATOM     35  O   UNL     1     109.822 129.865 138.030  0.00  0.00    +0.000 OA
BRANCH  35  39
ATOM     36  O   UNL     1     108.704 128.934 140.552  0.00  0.00    +0.000 OA
ATOM     37  O   UNL     1     109.542 131.687 140.295  0.00  0.00    +0.000 OA
ATOM     38  O   UNL     1     108.984 131.190 141.529  0.00  0.00    +0.000 OA
ATOM     39  C   UNL     1     109.595 130.011 138.809  0.00  0.00    +0.000 A 
ATOM     40  C   UNL     1     109.259 129.382 139.288  0.00  0.00    +0.000 A 
ATOM     41  C   UNL     1     109.692 130.795 139.149  0.00  0.00    +0.000 A 
ATOM     42  C   UNL     1     109.025 129.544 140.098  0.00  0.00    +0.000 A 
ATOM     43  C   UNL     1     109.119 130.296 140.424  0.00  0.00    +0.000 A 
ATOM     44  C   UNL     1     108.568 129.829 141.658  0.00  0.00    +0.000 A 
ATOM     45  C   UNL     1     109.453 130.938 139.962  0.00  0.00    +0.000 A 
ATOM     46  C   UNL     1     108.891 130.439 141.204  0.00  0.00    +0.000 A 
ATOM     47  C   UNL     1     108.475 129.078 141.331  0.00  0.00    +0.000 A 
BRANCH  47  49
ATOM     48  O   UNL     1     107.187 126.641 143.149  0.00  0.00    +0.000 OA
ATOM     49  C   UNL     1     108.153 128.469 141.786  0.00  0.00    +0.000 A 
ATOM     50  C   UNL     1     108.600 128.119 142.385  0.00  0.00    +0.000 A 
ATOM     51  C   UNL     1     107.384 128.209 141.641  0.00  0.00    +0.000 A 
ATOM     52  C   UNL     1     108.278 127.510 142.839  0.00  0.00    +0.000 A 
ATOM     53  C   UNL     1     107.062 127.600 142.095  0.00  0.00    +0.000 A 
ATOM     54  C   UNL     1     107.509 127.250 142.694  0.00  0.00    +0.000 A 
ENDBRANCH  47  49
BRANCH  44  55
ATOM     55  O   UNL     1     108.340 129.973 142.438  0.00  0.00    +0.000 OA
BRANCH  55  64
ATOM     56  O   UNL     1     107.123 130.639 142.094  0.00  0.00    +0.000 OA
ATOM     57  O   UNL     1     107.336 132.064 144.107  0.00  0.00    +0.000 OA
ATOM     58  O   UNL     1     106.049 132.256 143.094  0.00  0.00    +0.000 OA
ATOM     59  O   UNL     1     108.482 130.922 143.779  0.00  0.00    +0.000 OA
ATOM     60  C   UNL     1     107.265 131.589 143.436  0.00  0.00    +0.000 C 
ATOM     61  C   UNL     1     106.622 131.685 142.930  0.00  0.00    +0.000 C 
ATOM     62  C   UNL     1     107.838 131.018 143.272  0.00  0.00    +0.000 C 
ATOM     63  C   UNL     1     106.551 131.210 142.259  0.00  0.00    +0.000 C 
ATOM     64  C   UNL     1     107.767 130.543 142.602  0.00  0.00    +0.000 C 
ATOM     65  C   UNL     1     105.907 131.306 141.752  0.00  0.00    +0.000 C 
ENDBRANCH  55  64
ENDBRANCH  44  55
ENDBRANCH  35  39
ENDBRANCH   8  35
TORSDOF 13
ENDMDL
MODEL 9
REMARK VINA RESULT:      -9.8      1.842      6.067
REMARK  Name = 44258974
REMARK  13 active torsions:
REMARK  status: ('A' for Active; 'I' for Inactive)
REMARK    1  A    between atoms: O_1  and  C_23
REMARK    2  A    between atoms: O_1  and  C_25
REMARK    3  A    between atoms: O_7  and  C_32
REMARK    4  A    between atoms: O_7  and  C_40
REMARK    5  A    between atoms: O_10  and  C_33
REMARK    6  A    between atoms: O_10  and  C_48
REMARK    7  A    between atoms: O_12  and  C_39
REMARK    8  A    between atoms: O_12  and  C_46
REMARK    9  A    between atoms: O_21  and  C_62
REMARK   10  A    between atoms: C_31  and  C_33
REMARK   11  A    between atoms: C_48  and  C_51
REMARK   12  A    between atoms: C_50  and  C_52
REMARK   13  A    between atoms: C_55  and  C_58
REMARK                            x       y       z     vdW  Elec       q    Type
REMARK                         _______ _______ _______ _____ _____    ______ ____
ROOT
ATOM      1  O   UNL     1     110.558 127.517 141.377  0.00  0.00    +0.000 OA
ATOM      2  O   UNL     1     108.583 127.591 142.303  0.00  0.00    +0.000 OA
ATOM      3  O   UNL     1     110.795 129.393 142.468  0.00  0.00    +0.000 OA
ATOM      4  C   UNL     1     109.689 128.492 142.385  0.00  0.00    +0.000 C 
ATOM      5  C   UNL     1     109.352 127.798 142.092  0.00  0.00    +0.000 C 
ATOM      6  C   UNL     1     110.459 128.699 142.175  0.00  0.00    +0.000 C 
ATOM      7  C   UNL     1     109.787 127.310 141.587  0.00  0.00    +0.000 C 
ATOM      8  C   UNL     1     110.894 128.211 141.670  0.00  0.00    +0.000 C 
ATOM      9  C   UNL     1     109.452 126.617 141.294  0.00  0.00    +0.000 C 
ENDROOT
BRANCH   4  10
ATOM     10  O   UNL     1     109.254 128.980 142.889  0.00  0.00    +0.000 OA
BRANCH  10  15
ATOM     11  O   UNL     1     108.749 129.696 141.761  0.00  0.00    +0.000 OA
ATOM     12  O   UNL     1     108.394 129.961 143.898  0.00  0.00    +0.000 OA
ATOM     13  O   UNL     1     107.458 131.169 143.275  0.00  0.00    +0.000 OA
ATOM     14  O   UNL     1     107.383 131.395 141.642  0.00  0.00    +0.000 OA
ATOM     15  C   UNL     1     108.786 129.584 142.577  0.00  0.00    +0.000 C 
ATOM     16  C   UNL     1     108.356 130.074 143.081  0.00  0.00    +0.000 C 
ATOM     17  C   UNL     1     107.888 130.678 142.770  0.00  0.00    +0.000 C 
ATOM     18  C   UNL     1     107.851 130.791 141.953  0.00  0.00    +0.000 C 
ATOM     19  C   UNL     1     108.281 130.301 141.449  0.00  0.00    +0.000 C 
BRANCH  19  20
ATOM     20  C   UNL     1     108.244 130.413 140.633  0.00  0.00    +0.000 C 
BRANCH  20  21
ATOM     21  O   UNL     1     108.921 130.636 140.216  0.00  0.00    +0.000 OA
BRANCH  21  23
ATOM     22  O   UNL     1     108.662 129.873 139.035  0.00  0.00    +0.000 OA
ATOM     23  C   UNL     1     108.942 130.561 139.395  0.00  0.00    +0.000 C 
BRANCH  23  24
ATOM     24  C   UNL     1     109.244 131.175 138.933  0.00  0.00    +0.000 C 
ATOM     25  C   UNL     1     109.433 131.041 138.142  0.00  0.00    +0.000 C 
BRANCH  25  27
ATOM     26  O   UNL     1     110.638 133.496 136.295  0.00  0.00    +0.000 OA
ATOM     27  C   UNL     1     109.735 131.655 137.680  0.00  0.00    +0.000 A 
ATOM     28  C   UNL     1     109.364 131.858 136.972  0.00  0.00    +0.000 A 
ATOM     29  C   UNL     1     110.406 132.065 137.926  0.00  0.00    +0.000 A 
ATOM     30  C   UNL     1     109.666 132.473 136.510  0.00  0.00    +0.000 A 
ATOM     31  C   UNL     1     110.708 132.679 137.465  0.00  0.00    +0.000 A 
ATOM     32  C   UNL     1     110.337 132.882 136.756  0.00  0.00    +0.000 A 
BRANCH  30  33
ATOM     33  O   UNL     1     109.295 132.676 135.802  0.00  0.00    +0.000 OA
ATOM     34  C   UNL     1     108.915 132.097 135.354  0.00  0.00    +0.000 C 
ENDBRANCH  30  33
ENDBRANCH  25  27
ENDBRANCH  23  24
ENDBRANCH  21  23
ENDBRANCH  20  21
ENDBRANCH  19  20
ENDBRANCH  10  15
ENDBRANCH   4  10
BRANCH   8  35
ATOM     35  O   UNL     1     111.664 128.418 141.459  0.00  0.00    +0.000 OA
BRANCH  35  39
ATOM     36  O   UNL     1     111.909 128.481 138.559  0.00  0.00    +0.000 OA
ATOM     37  O   UNL     1     113.440 126.558 140.076  0.00  0.00    +0.000 OA
ATOM     38  O   UNL     1     113.536 126.618 138.638  0.00  0.00    +0.000 OA
ATOM     39  C   UNL     1     111.994 128.125 140.762  0.00  0.00    +0.000 A 
ATOM     40  C   UNL     1     111.775 128.463 140.004  0.00  0.00    +0.000 A 
ATOM     41  C   UNL     1     112.559 127.477 140.790  0.00  0.00    +0.000 A 
ATOM     42  C   UNL     1     112.123 128.151 139.283  0.00  0.00    +0.000 A 
ATOM     43  C   UNL     1     112.666 127.530 139.310  0.00  0.00    +0.000 A 
ATOM     44  C   UNL     1     112.779 127.569 137.885  0.00  0.00    +0.000 A 
ATOM     45  C   UNL     1     112.897 127.178 140.059  0.00  0.00    +0.000 A 
ATOM     46  C   UNL     1     112.994 127.238 138.611  0.00  0.00    +0.000 A 
ATOM     47  C   UNL     1     112.237 128.189 137.860  0.00  0.00    +0.000 A 
BRANCH  47  49
ATOM     48  O   UNL     1     111.379 129.508 134.957  0.00  0.00    +0.000 OA
ATOM     49  C   UNL     1     112.022 128.519 137.135  0.00  0.00    +0.000 A 
ATOM     50  C   UNL     1     112.530 129.046 136.754  0.00  0.00    +0.000 A 
ATOM     51  C   UNL     1     111.300 128.322 136.789  0.00  0.00    +0.000 A 
ATOM     52  C   UNL     1     112.316 129.375 136.028  0.00  0.00    +0.000 A 
ATOM     53  C   UNL     1     111.085 128.651 136.064  0.00  0.00    +0.000 A 
ATOM     54  C   UNL     1     111.593 129.178 135.683  0.00  0.00    +0.000 A 
ENDBRANCH  47  49
BRANCH  44  55
ATOM     55  O   UNL     1     113.107 127.277 137.187  0.00  0.00    +0.000 OA
BRANCH  55  64
ATOM     56  O   UNL     1     112.329 126.079 137.172  0.00  0.00    +0.000 OA
ATOM     57  O   UNL     1     114.198 124.880 136.077  0.00  0.00    +0.000 OA
ATOM     58  O   UNL     1     112.798 124.080 136.426  0.00  0.00    +0.000 OA
ATOM     59  O   UNL     1     114.353 126.478 136.457  0.00  0.00    +0.000 OA
ATOM     60  C   UNL     1     113.575 125.279 136.442  0.00  0.00    +0.000 C 
ATOM     61  C   UNL     1     112.875 124.879 136.616  0.00  0.00    +0.000 C 
ATOM     62  C   UNL     1     113.652 126.079 136.632  0.00  0.00    +0.000 C 
ATOM     63  C   UNL     1     112.252 125.279 136.981  0.00  0.00    +0.000 C 
ATOM     64  C   UNL     1     113.029 126.478 136.997  0.00  0.00    +0.000 C 
ATOM     65  C   UNL     1     111.552 124.879 137.156  0.00  0.00    +0.000 C 
ENDBRANCH  55  64
ENDBRANCH  44  55
ENDBRANCH  35  39
ENDBRANCH   8  35
TORSDOF 13
ENDMDL
MODEL 10
REMARK VINA RESULT:      -9.7      2.545      5.154
REMARK  Name = 44258974
REMARK  13 active torsions:
REMARK  status: ('A' for Active; 'I' for Inactive)
REMARK    1  A    between atoms: O_1  and  C_23
REMARK    2  A    between atoms: O_1  and  C_25
REMARK    3  A    between atoms: O_7  and  C_32
REMARK    4  A    between atoms: O_7  and  C_40
REMARK    5  A    between atoms: O_10  and  C_33
REMARK    6  A    between atoms: O_10  and  C_48
REMARK    7  A    between atoms: O_12  and  C_39
REMARK    8  A    between atoms: O_12  and  C_46
REMARK    9  A    between atoms: O_21  and  C_62
REMARK   10  A    between atoms: C_31  and  C_33
REMARK   11  A    between atoms: C_48  and  C_51
REMARK   12  A    between atoms: C_50  and  C_52
REMARK   13  A    between atoms: C_55  and  C_58
REMARK                            x       y       z     vdW  Elec       q    Type
REMARK                         _______ _______ _______ _____ _____    ______ ____
ROOT
ATOM      1  O   UNL     1     111.520 126.773 139.609  0.00  0.00    +0.000 OA
ATOM      2  O   UNL     1     113.461 127.466 138.891  0.00  0.00    +0.000 OA
ATOM      3  O   UNL     1     110.843 127.761 137.784  0.00  0.00    +0.000 OA
ATOM      4  C   UNL     1     112.152 127.614 138.338  0.00  0.00    +0.000 C 
ATOM      5  C   UNL     1     112.649 127.330 138.932  0.00  0.00    +0.000 C 
ATOM      6  C   UNL     1     111.340 127.477 138.378  0.00  0.00    +0.000 C 
ATOM      7  C   UNL     1     112.333 126.909 139.568  0.00  0.00    +0.000 C 
ATOM      8  C   UNL     1     111.024 127.056 139.015  0.00  0.00    +0.000 C 
ATOM      9  C   UNL     1     112.829 126.625 140.162  0.00  0.00    +0.000 C 
ENDROOT
BRANCH   4  10
ATOM     10  O   UNL     1     112.469 128.034 137.702  0.00  0.00    +0.000 OA
BRANCH  10  15
ATOM     11  O   UNL     1     112.217 129.271 138.372  0.00  0.00    +0.000 OA
ATOM     12  O   UNL     1     113.398 128.825 136.592  0.00  0.00    +0.000 OA
ATOM     13  O   UNL     1     113.611 130.457 136.706  0.00  0.00    +0.000 OA
ATOM     14  O   UNL     1     112.894 131.299 137.932  0.00  0.00    +0.000 OA
ATOM     15  C   UNL     1     112.575 128.851 137.759  0.00  0.00    +0.000 C 
ATOM     16  C   UNL     1     113.039 129.246 137.205  0.00  0.00    +0.000 C 
ATOM     17  C   UNL     1     113.146 130.062 137.262  0.00  0.00    +0.000 C 
ATOM     18  C   UNL     1     112.787 130.483 137.875  0.00  0.00    +0.000 C 
ATOM     19  C   UNL     1     112.323 130.088 138.429  0.00  0.00    +0.000 C 
BRANCH  19  20
ATOM     20  C   UNL     1     111.964 130.508 139.042  0.00  0.00    +0.000 C 
BRANCH  20  21
ATOM     21  O   UNL     1     112.204 130.383 139.822  0.00  0.00    +0.000 OA
BRANCH  21  23
ATOM     22  O   UNL     1     111.336 131.364 140.393  0.00  0.00    +0.000 OA
ATOM     23  C   UNL     1     111.728 130.641 140.445  0.00  0.00    +0.000 C 
BRANCH  23  24
ATOM     24  C   UNL     1     111.645 130.173 141.121  0.00  0.00    +0.000 C 
ATOM     25  C   UNL     1     111.946 130.435 141.842  0.00  0.00    +0.000 C 
BRANCH  25  27
ATOM     26  O   UNL     1     111.613 128.568 144.543  0.00  0.00    +0.000 OA
ATOM     27  C   UNL     1     111.863 129.968 142.518  0.00  0.00    +0.000 A 
ATOM     28  C   UNL     1     111.700 130.321 143.245  0.00  0.00    +0.000 A 
ATOM     29  C   UNL     1     111.942 129.149 142.465  0.00  0.00    +0.000 A 
ATOM     30  C   UNL     1     111.616 129.853 143.921  0.00  0.00    +0.000 A 
ATOM     31  C   UNL     1     111.859 128.682 143.140  0.00  0.00    +0.000 A 
ATOM     32  C   UNL     1     111.696 129.035 143.868  0.00  0.00    +0.000 A 
BRANCH  30  33
ATOM     33  O   UNL     1     111.453 130.206 144.648  0.00  0.00    +0.000 OA
ATOM     34  C   UNL     1     111.634 131.002 144.771  0.00  0.00    +0.000 C 
ENDBRANCH  30  33
ENDBRANCH  25  27
ENDBRANCH  23  24
ENDBRANCH  21  23
ENDBRANCH  20  21
ENDBRANCH  19  20
ENDBRANCH  10  15
ENDBRANCH   4  10
BRANCH   8  35
ATOM     35  O   UNL     1     110.211 126.920 139.055  0.00  0.00    +0.000 OA
BRANCH  35  39
ATOM     36  O   UNL     1     108.739 128.645 140.881  0.00  0.00    +0.000 OA
ATOM     37  O   UNL     1     109.216 125.888 141.599  0.00  0.00    +0.000 OA
ATOM     38  O   UNL     1     108.490 126.772 142.479  0.00  0.00    +0.000 OA
ATOM     39  C   UNL     1     109.809 127.032 139.767  0.00  0.00    +0.000 A 
ATOM     40  C   UNL     1     109.475 127.799 139.959  0.00  0.00    +0.000 A 
ATOM     41  C   UNL     1     109.723 126.381 140.322  0.00  0.00    +0.000 A 
ATOM     42  C   UNL     1     109.058 127.906 140.703  0.00  0.00    +0.000 A 
ATOM     43  C   UNL     1     108.975 127.281 141.235  0.00  0.00    +0.000 A 
ATOM     44  C   UNL     1     108.254 128.136 142.125  0.00  0.00    +0.000 A 
ATOM     45  C   UNL     1     109.303 126.507 141.061  0.00  0.00    +0.000 A 
ATOM     46  C   UNL     1     108.573 127.396 141.947  0.00  0.00    +0.000 A 
ATOM     47  C   UNL     1     108.337 128.760 141.592  0.00  0.00    +0.000 A 
BRANCH  47  49
ATOM     48  O   UNL     1     107.059 131.718 142.308  0.00  0.00    +0.000 OA
ATOM     49  C   UNL     1     108.018 129.499 141.771  0.00  0.00    +0.000 A 
ATOM     50  C   UNL     1     108.346 129.956 142.375  0.00  0.00    +0.000 A 
ATOM     51  C   UNL     1     107.370 129.783 141.347  0.00  0.00    +0.000 A 
ATOM     52  C   UNL     1     108.027 130.696 142.554  0.00  0.00    +0.000 A 
ATOM     53  C   UNL     1     107.051 130.522 141.526  0.00  0.00    +0.000 A 
ATOM     54  C   UNL     1     107.379 130.979 142.129  0.00  0.00    +0.000 A 
ENDBRANCH  47  49
BRANCH  44  55
ATOM     55  O   UNL     1     107.852 128.251 142.837  0.00  0.00    +0.000 OA
BRANCH  55  64
ATOM     56  O   UNL     1     106.668 127.573 142.411  0.00  0.00    +0.000 OA
ATOM     57  O   UNL     1     106.230 126.872 144.744  0.00  0.00    +0.000 OA
ATOM     58  O   UNL     1     105.192 126.428 143.541  0.00  0.00    +0.000 OA
ATOM     59  O   UNL     1     107.560 127.784 144.392  0.00  0.00    +0.000 OA
ATOM     60  C   UNL     1     106.376 127.106 143.966  0.00  0.00    +0.000 C 
ATOM     61  C   UNL     1     105.857 126.883 143.365  0.00  0.00    +0.000 C 
ATOM     62  C   UNL     1     107.041 127.561 143.790  0.00  0.00    +0.000 C 
ATOM     63  C   UNL     1     106.003 127.117 142.588  0.00  0.00    +0.000 C 
ATOM     64  C   UNL     1     107.187 127.795 143.012  0.00  0.00    +0.000 C 
ATOM     65  C   UNL     1     105.484 126.895 141.986  0.00  0.00    +0.000 C 
ENDBRANCH  55  64
ENDBRANCH  44  55
ENDBRANCH  35  39
ENDBRANCH   8  35
TORSDOF 13
ENDMDL
