MODEL 1
REMARK VINA RESULT:      -8.6      0.000      0.000
REMARK  Name = 131752841
REMARK  7 active torsions:
REMARK  status: ('A' for Active; 'I' for Inactive)
REMARK    1  A    between atoms: O_2  and  C_16
REMARK    2  A    between atoms: O_2  and  C_18
REMARK    3  A    between atoms: O_8  and  C_19
REMARK    4  A    between atoms: O_9  and  C_22
REMARK    5  A    between atoms: O_11  and  C_34
REMARK    6  A    between atoms: C_15  and  C_17
REMARK    7  A    between atoms: C_25  and  C_27
REMARK                            x       y       z     vdW  Elec       q    Type
REMARK                         _______ _______ _______ _____ _____    ______ ____
ROOT
ATOM      1  O   UNL     1     113.019 127.384 136.278  0.00  0.00    +0.000 OA
ATOM      2  O   UNL     1     114.849 125.644 136.476  0.00  0.00    +0.000 OA
ATOM      3  C   UNL     1     111.863 125.573 136.802  0.00  0.00    +0.000 A 
ATOM      4  C   UNL     1     112.461 125.009 136.866  0.00  0.00    +0.000 A 
ATOM      5  C   UNL     1     112.051 126.353 136.609  0.00  0.00    +0.000 A 
ATOM      6  C   UNL     1     112.836 126.568 136.479  0.00  0.00    +0.000 A 
ATOM      7  C   UNL     1     113.247 125.224 136.736  0.00  0.00    +0.000 A 
ATOM      8  C   UNL     1     113.434 126.003 136.543  0.00  0.00    +0.000 A 
ATOM      9  C   UNL     1     114.257 126.215 136.410  0.00  0.00    +0.000 A 
ATOM     10  C   UNL     1     113.835 127.614 136.142  0.00  0.00    +0.000 A 
ATOM     11  C   UNL     1     114.458 127.026 136.209  0.00  0.00    +0.000 A 
ENDROOT
BRANCH  10  12
ATOM     12  C   UNL     1     114.020 128.394 135.949  0.00  0.00    +0.000 A 
ATOM     13  C   UNL     1     113.887 128.997 136.496  0.00  0.00    +0.000 A 
ATOM     14  C   UNL     1     114.337 128.572 135.209  0.00  0.00    +0.000 A 
ATOM     15  C   UNL     1     114.072 129.778 136.303  0.00  0.00    +0.000 A 
ATOM     16  C   UNL     1     114.522 129.352 135.016  0.00  0.00    +0.000 A 
ATOM     17  C   UNL     1     114.389 129.955 135.563  0.00  0.00    +0.000 A 
BRANCH  17  18
ATOM     18  O   UNL     1     114.574 130.735 135.369  0.00  0.00    +0.000 OA
ATOM     19  C   UNL     1     115.362 130.963 135.282  0.00  0.00    +0.000 C 
ENDBRANCH  17  18
ENDBRANCH  10  12
BRANCH   4  20
ATOM     20  O   UNL     1     112.273 124.228 137.060  0.00  0.00    +0.000 OA
ATOM     21  C   UNL     1     112.136 123.677 136.461  0.00  0.00    +0.000 C 
ENDBRANCH   4  20
BRANCH   7  22
ATOM     22  O   UNL     1     113.845 124.659 136.800  0.00  0.00    +0.000 OA
ATOM     23  C   UNL     1     114.423 124.733 137.384  0.00  0.00    +0.000 C 
ENDBRANCH   7  22
BRANCH   3  24
ATOM     24  O   UNL     1     111.077 125.357 136.932  0.00  0.00    +0.000 OA
BRANCH  24  33
ATOM     25  O   UNL     1     110.847 125.874 138.244  0.00  0.00    +0.000 OA
ATOM     26  O   UNL     1     108.747 126.925 137.462  0.00  0.00    +0.000 OA
ATOM     27  O   UNL     1     109.217 127.091 139.034  0.00  0.00    +0.000 OA
ATOM     28  O   UNL     1     109.677 126.058 136.410  0.00  0.00    +0.000 OA
ATOM     29  C   UNL     1     109.447 126.575 137.723  0.00  0.00    +0.000 C 
ATOM     30  C   UNL     1     109.682 126.658 138.509  0.00  0.00    +0.000 C 
ATOM     31  C   UNL     1     109.912 126.141 137.197  0.00  0.00    +0.000 C 
ATOM     32  C   UNL     1     110.382 126.307 138.770  0.00  0.00    +0.000 C 
ATOM     33  C   UNL     1     110.612 125.790 137.457  0.00  0.00    +0.000 C 
BRANCH  32  35
ATOM     34  O   UNL     1     110.978 125.761 139.948  0.00  0.00    +0.000 OA
ATOM     35  C   UNL     1     110.617 126.391 139.556  0.00  0.00    +0.000 C 
ENDBRANCH  32  35
ENDBRANCH  24  33
ENDBRANCH   3  24
TORSDOF 7
ENDMDL
MODEL 2
REMARK VINA RESULT:      -8.4      2.594      4.923
REMARK  Name = 131752841
REMARK  7 active torsions:
REMARK  status: ('A' for Active; 'I' for Inactive)
REMARK    1  A    between atoms: O_2  and  C_16
REMARK    2  A    between atoms: O_2  and  C_18
REMARK    3  A    between atoms: O_8  and  C_19
REMARK    4  A    between atoms: O_9  and  C_22
REMARK    5  A    between atoms: O_11  and  C_34
REMARK    6  A    between atoms: C_15  and  C_17
REMARK    7  A    between atoms: C_25  and  C_27
REMARK                            x       y       z     vdW  Elec       q    Type
REMARK                         _______ _______ _______ _____ _____    ______ ____
ROOT
ATOM      1  O   UNL     1     113.120 127.805 137.297  0.00  0.00    +0.000 OA
ATOM      2  O   UNL     1     114.217 129.011 135.359  0.00  0.00    +0.000 OA
ATOM      3  C   UNL     1     112.907 129.920 137.905  0.00  0.00    +0.000 A 
ATOM      4  C   UNL     1     113.265 130.310 137.272  0.00  0.00    +0.000 A 
ATOM      5  C   UNL     1     112.862 129.096 137.909  0.00  0.00    +0.000 A 
ATOM      6  C   UNL     1     113.174 128.662 137.281  0.00  0.00    +0.000 A 
ATOM      7  C   UNL     1     113.578 129.876 136.644  0.00  0.00    +0.000 A 
ATOM      8  C   UNL     1     113.532 129.053 136.648  0.00  0.00    +0.000 A 
ATOM      9  C   UNL     1     113.861 128.612 135.987  0.00  0.00    +0.000 A 
ATOM     10  C   UNL     1     113.444 127.348 136.645  0.00  0.00    +0.000 A 
ATOM     11  C   UNL     1     113.817 127.754 135.986  0.00  0.00    +0.000 A 
ENDROOT
BRANCH  10  12
ATOM     12  C   UNL     1     113.397 126.524 136.652  0.00  0.00    +0.000 A 
ATOM     13  C   UNL     1     112.694 126.149 136.437  0.00  0.00    +0.000 A 
ATOM     14  C   UNL     1     114.052 126.076 136.874  0.00  0.00    +0.000 A 
ATOM     15  C   UNL     1     112.647 125.326 136.443  0.00  0.00    +0.000 A 
ATOM     16  C   UNL     1     114.005 125.252 136.881  0.00  0.00    +0.000 A 
ATOM     17  C   UNL     1     113.303 124.877 136.665  0.00  0.00    +0.000 A 
BRANCH  17  18
ATOM     18  O   UNL     1     113.256 124.054 136.672  0.00  0.00    +0.000 OA
ATOM     19  C   UNL     1     112.548 123.682 136.872  0.00  0.00    +0.000 C 
ENDBRANCH  17  18
ENDBRANCH  10  12
BRANCH   4  20
ATOM     20  O   UNL     1     113.311 131.134 137.268  0.00  0.00    +0.000 OA
ATOM     21  C   UNL     1     112.724 131.577 136.895  0.00  0.00    +0.000 C 
ENDBRANCH   4  20
BRANCH   7  22
ATOM     22  O   UNL     1     113.936 130.267 136.011  0.00  0.00    +0.000 OA
ATOM     23  C   UNL     1     114.751 130.213 135.900  0.00  0.00    +0.000 C 
ENDBRANCH   7  22
BRANCH   3  24
ATOM     24  O   UNL     1     112.595 130.354 138.534  0.00  0.00    +0.000 OA
BRANCH  24  33
ATOM     25  O   UNL     1     113.576 130.091 139.539  0.00  0.00    +0.000 OA
ATOM     26  O   UNL     1     111.775 129.658 141.182  0.00  0.00    +0.000 OA
ATOM     27  O   UNL     1     113.356 129.539 141.639  0.00  0.00    +0.000 OA
ATOM     28  O   UNL     1     111.395 130.065 139.629  0.00  0.00    +0.000 OA
ATOM     29  C   UNL     1     112.375 129.802 140.634  0.00  0.00    +0.000 C 
ATOM     30  C   UNL     1     113.166 129.743 140.862  0.00  0.00    +0.000 C 
ATOM     31  C   UNL     1     112.185 130.006 139.857  0.00  0.00    +0.000 C 
ATOM     32  C   UNL     1     113.766 129.888 140.315  0.00  0.00    +0.000 C 
ATOM     33  C   UNL     1     112.785 130.150 139.309  0.00  0.00    +0.000 C 
BRANCH  32  35
ATOM     34  O   UNL     1     115.100 130.400 140.303  0.00  0.00    +0.000 OA
ATOM     35  C   UNL     1     114.556 129.829 140.544  0.00  0.00    +0.000 C 
ENDBRANCH  32  35
ENDBRANCH  24  33
ENDBRANCH   3  24
TORSDOF 7
ENDMDL
MODEL 3
REMARK VINA RESULT:      -8.4      2.200      4.563
REMARK  Name = 131752841
REMARK  7 active torsions:
REMARK  status: ('A' for Active; 'I' for Inactive)
REMARK    1  A    between atoms: O_2  and  C_16
REMARK    2  A    between atoms: O_2  and  C_18
REMARK    3  A    between atoms: O_8  and  C_19
REMARK    4  A    between atoms: O_9  and  C_22
REMARK    5  A    between atoms: O_11  and  C_34
REMARK    6  A    between atoms: C_15  and  C_17
REMARK    7  A    between atoms: C_25  and  C_27
REMARK                            x       y       z     vdW  Elec       q    Type
REMARK                         _______ _______ _______ _____ _____    ______ ____
ROOT
ATOM      1  O   UNL     1     112.443 127.313 136.813  0.00  0.00    +0.000 OA
ATOM      2  O   UNL     1     114.539 128.234 135.730  0.00  0.00    +0.000 OA
ATOM      3  C   UNL     1     112.079 129.492 136.910  0.00  0.00    +0.000 A 
ATOM      4  C   UNL     1     112.763 129.788 136.557  0.00  0.00    +0.000 A 
ATOM      5  C   UNL     1     111.977 128.676 136.992  0.00  0.00    +0.000 A 
ATOM      6  C   UNL     1     112.560 128.159 136.721  0.00  0.00    +0.000 A 
ATOM      7  C   UNL     1     113.345 129.271 136.286  0.00  0.00    +0.000 A 
ATOM      8  C   UNL     1     113.244 128.457 136.368  0.00  0.00    +0.000 A 
ATOM      9  C   UNL     1     113.858 127.928 136.082  0.00  0.00    +0.000 A 
ATOM     10  C   UNL     1     113.046 126.769 136.532  0.00  0.00    +0.000 A 
ATOM     11  C   UNL     1     113.759 127.078 136.165  0.00  0.00    +0.000 A 
ENDROOT
BRANCH  10  12
ATOM     12  C   UNL     1     112.942 125.955 136.616  0.00  0.00    +0.000 A 
ATOM     13  C   UNL     1     112.332 125.573 136.213  0.00  0.00    +0.000 A 
ATOM     14  C   UNL     1     113.449 125.522 137.102  0.00  0.00    +0.000 A 
ATOM     15  C   UNL     1     112.228 124.759 136.297  0.00  0.00    +0.000 A 
ATOM     16  C   UNL     1     113.345 124.708 137.186  0.00  0.00    +0.000 A 
ATOM     17  C   UNL     1     112.735 124.326 136.783  0.00  0.00    +0.000 A 
BRANCH  17  18
ATOM     18  O   UNL     1     112.632 123.513 136.867  0.00  0.00    +0.000 OA
ATOM     19  C   UNL     1     111.962 123.219 137.248  0.00  0.00    +0.000 C 
ENDBRANCH  17  18
ENDBRANCH  10  12
BRANCH   4  20
ATOM     20  O   UNL     1     112.864 130.604 136.475  0.00  0.00    +0.000 OA
ATOM     21  C   UNL     1     113.307 131.022 137.030  0.00  0.00    +0.000 C 
ENDBRANCH   4  20
BRANCH   7  22
ATOM     22  O   UNL     1     114.029 129.569 135.933  0.00  0.00    +0.000 OA
ATOM     23  C   UNL     1     114.158 129.460 135.126  0.00  0.00    +0.000 C 
ENDBRANCH   7  22
BRANCH   3  24
ATOM     24  O   UNL     1     111.496 130.009 137.181  0.00  0.00    +0.000 OA
BRANCH  24  33
ATOM     25  O   UNL     1     110.499 129.788 136.181  0.00  0.00    +0.000 OA
ATOM     26  O   UNL     1     108.756 129.716 137.937  0.00  0.00    +0.000 OA
ATOM     27  O   UNL     1     108.340 129.519 136.353  0.00  0.00    +0.000 OA
ATOM     28  O   UNL     1     110.334 129.961 138.351  0.00  0.00    +0.000 OA
ATOM     29  C   UNL     1     109.337 129.740 137.352  0.00  0.00    +0.000 C 
ATOM     30  C   UNL     1     109.129 129.641 136.560  0.00  0.00    +0.000 C 
ATOM     31  C   UNL     1     110.126 129.863 137.559  0.00  0.00    +0.000 C 
ATOM     32  C   UNL     1     109.710 129.665 135.974  0.00  0.00    +0.000 C 
ATOM     33  C   UNL     1     110.708 129.887 136.974  0.00  0.00    +0.000 C 
BRANCH  32  35
ATOM     34  O   UNL     1     109.788 130.090 134.612  0.00  0.00    +0.000 OA
ATOM     35  C   UNL     1     109.502 129.567 135.183  0.00  0.00    +0.000 C 
ENDBRANCH  32  35
ENDBRANCH  24  33
ENDBRANCH   3  24
TORSDOF 7
ENDMDL
MODEL 4
REMARK VINA RESULT:      -8.4      1.680      3.224
REMARK  Name = 131752841
REMARK  7 active torsions:
REMARK  status: ('A' for Active; 'I' for Inactive)
REMARK    1  A    between atoms: O_2  and  C_16
REMARK    2  A    between atoms: O_2  and  C_18
REMARK    3  A    between atoms: O_8  and  C_19
REMARK    4  A    between atoms: O_9  and  C_22
REMARK    5  A    between atoms: O_11  and  C_34
REMARK    6  A    between atoms: C_15  and  C_17
REMARK    7  A    between atoms: C_25  and  C_27
REMARK                            x       y       z     vdW  Elec       q    Type
REMARK                         _______ _______ _______ _____ _____    ______ ____
ROOT
ATOM      1  O   UNL     1     112.217 128.365 135.715  0.00  0.00    +0.000 OA
ATOM      2  O   UNL     1     110.437 130.106 136.181  0.00  0.00    +0.000 OA
ATOM      3  C   UNL     1     110.434 127.104 136.065  0.00  0.00    +0.000 A 
ATOM      4  C   UNL     1     109.857 127.674 136.216  0.00  0.00    +0.000 A 
ATOM      5  C   UNL     1     111.209 127.336 135.900  0.00  0.00    +0.000 A 
ATOM      6  C   UNL     1     111.406 128.137 135.887  0.00  0.00    +0.000 A 
ATOM      7  C   UNL     1     110.054 128.475 136.203  0.00  0.00    +0.000 A 
ATOM      8  C   UNL     1     110.828 128.706 136.039  0.00  0.00    +0.000 A 
ATOM      9  C   UNL     1     111.021 129.544 136.028  0.00  0.00    +0.000 A 
ATOM     10  C   UNL     1     112.428 129.198 135.700  0.00  0.00    +0.000 A 
ATOM     11  C   UNL     1     111.826 129.791 135.858  0.00  0.00    +0.000 A 
ENDROOT
BRANCH  10  12
ATOM     12  C   UNL     1     113.203 129.427 135.536  0.00  0.00    +0.000 A 
ATOM     13  C   UNL     1     113.511 129.327 134.777  0.00  0.00    +0.000 A 
ATOM     14  C   UNL     1     113.671 129.756 136.130  0.00  0.00    +0.000 A 
ATOM     15  C   UNL     1     114.286 129.556 134.612  0.00  0.00    +0.000 A 
ATOM     16  C   UNL     1     114.447 129.985 135.966  0.00  0.00    +0.000 A 
ATOM     17  C   UNL     1     114.754 129.885 135.207  0.00  0.00    +0.000 A 
BRANCH  17  18
ATOM     18  O   UNL     1     115.529 130.114 135.043  0.00  0.00    +0.000 OA
ATOM     19  C   UNL     1     115.709 130.911 134.934  0.00  0.00    +0.000 C 
ENDBRANCH  17  18
ENDBRANCH  10  12
BRANCH   4  20
ATOM     20  O   UNL     1     109.082 127.442 136.380  0.00  0.00    +0.000 OA
ATOM     21  C   UNL     1     108.529 127.392 135.770  0.00  0.00    +0.000 C 
ENDBRANCH   4  20
BRANCH   7  22
ATOM     22  O   UNL     1     109.476 129.044 136.354  0.00  0.00    +0.000 OA
ATOM     23  C   UNL     1     109.501 129.482 137.052  0.00  0.00    +0.000 C 
ENDBRANCH   7  22
BRANCH   3  24
ATOM     24  O   UNL     1     110.237 126.303 136.078  0.00  0.00    +0.000 OA
BRANCH  24  33
ATOM     25  O   UNL     1     110.825 125.924 137.324  0.00  0.00    +0.000 OA
ATOM     26  O   UNL     1     111.760 123.892 136.266  0.00  0.00    +0.000 OA
ATOM     27  O   UNL     1     112.035 124.191 137.864  0.00  0.00    +0.000 OA
ATOM     28  O   UNL     1     110.861 124.948 135.372  0.00  0.00    +0.000 OA
ATOM     29  C   UNL     1     111.448 124.569 136.619  0.00  0.00    +0.000 C 
ATOM     30  C   UNL     1     111.586 124.719 137.418  0.00  0.00    +0.000 C 
ATOM     31  C   UNL     1     110.998 125.098 136.172  0.00  0.00    +0.000 C 
ATOM     32  C   UNL     1     111.274 125.397 137.771  0.00  0.00    +0.000 C 
ATOM     33  C   UNL     1     110.686 125.775 136.524  0.00  0.00    +0.000 C 
BRANCH  32  35
ATOM     34  O   UNL     1     110.777 125.618 139.092  0.00  0.00    +0.000 OA
ATOM     35  C   UNL     1     111.412 125.546 138.570  0.00  0.00    +0.000 C 
ENDBRANCH  32  35
ENDBRANCH  24  33
ENDBRANCH   3  24
TORSDOF 7
ENDMDL
MODEL 5
REMARK VINA RESULT:      -8.4      2.013      2.584
REMARK  Name = 131752841
REMARK  7 active torsions:
REMARK  status: ('A' for Active; 'I' for Inactive)
REMARK    1  A    between atoms: O_2  and  C_16
REMARK    2  A    between atoms: O_2  and  C_18
REMARK    3  A    between atoms: O_8  and  C_19
REMARK    4  A    between atoms: O_9  and  C_22
REMARK    5  A    between atoms: O_11  and  C_34
REMARK    6  A    between atoms: C_15  and  C_17
REMARK    7  A    between atoms: C_25  and  C_27
REMARK                            x       y       z     vdW  Elec       q    Type
REMARK                         _______ _______ _______ _____ _____    ______ ____
ROOT
ATOM      1  O   UNL     1     112.601 128.728 135.754  0.00  0.00    +0.000 OA
ATOM      2  O   UNL     1     113.305 126.501 136.733  0.00  0.00    +0.000 OA
ATOM      3  C   UNL     1     110.649 127.734 136.060  0.00  0.00    +0.000 A 
ATOM      4  C   UNL     1     110.882 127.009 136.378  0.00  0.00    +0.000 A 
ATOM      5  C   UNL     1     111.218 128.296 135.856  0.00  0.00    +0.000 A 
ATOM      6  C   UNL     1     112.019 128.134 135.971  0.00  0.00    +0.000 A 
ATOM      7  C   UNL     1     111.683 126.847 136.493  0.00  0.00    +0.000 A 
ATOM      8  C   UNL     1     112.251 127.409 136.289  0.00  0.00    +0.000 A 
ATOM      9  C   UNL     1     113.082 127.228 136.414  0.00  0.00    +0.000 A 
ATOM     10  C   UNL     1     113.436 128.564 135.871  0.00  0.00    +0.000 A 
ATOM     11  C   UNL     1     113.679 127.810 136.203  0.00  0.00    +0.000 A 
ENDROOT
BRANCH  10  12
ATOM     12  C   UNL     1     114.002 129.129 135.667  0.00  0.00    +0.000 A 
ATOM     13  C   UNL     1     114.163 129.756 136.177  0.00  0.00    +0.000 A 
ATOM     14  C   UNL     1     114.408 129.065 134.951  0.00  0.00    +0.000 A 
ATOM     15  C   UNL     1     114.729 130.320 135.973  0.00  0.00    +0.000 A 
ATOM     16  C   UNL     1     114.974 129.629 134.746  0.00  0.00    +0.000 A 
ATOM     17  C   UNL     1     115.135 130.257 135.257  0.00  0.00    +0.000 A 
BRANCH  17  18
ATOM     18  O   UNL     1     115.701 130.820 135.052  0.00  0.00    +0.000 OA
ATOM     19  C   UNL     1     115.466 131.582 134.838  0.00  0.00    +0.000 C 
ENDBRANCH  17  18
ENDBRANCH  10  12
BRANCH   4  20
ATOM     20  O   UNL     1     110.313 126.447 136.582  0.00  0.00    +0.000 OA
ATOM     21  C   UNL     1     110.118 125.847 136.051  0.00  0.00    +0.000 C 
ENDBRANCH   4  20
BRANCH   7  22
ATOM     22  O   UNL     1     111.915 126.122 136.812  0.00  0.00    +0.000 OA
ATOM     23  C   UNL     1     112.243 126.089 137.567  0.00  0.00    +0.000 C 
ENDBRANCH   7  22
BRANCH   3  24
ATOM     24  O   UNL     1     109.849 127.896 135.945  0.00  0.00    +0.000 OA
BRANCH  24  33
ATOM     25  O   UNL     1     109.638 128.801 137.031  0.00  0.00    +0.000 OA
ATOM     26  O   UNL     1     108.316 130.275 135.547  0.00  0.00    +0.000 OA
ATOM     27  O   UNL     1     108.546 130.688 137.127  0.00  0.00    +0.000 OA
ATOM     28  O   UNL     1     108.968 128.879 134.955  0.00  0.00    +0.000 OA
ATOM     29  C   UNL     1     108.757 129.784 136.041  0.00  0.00    +0.000 C 
ATOM     30  C   UNL     1     108.872 129.990 136.832  0.00  0.00    +0.000 C 
ATOM     31  C   UNL     1     109.083 129.085 135.746  0.00  0.00    +0.000 C 
ATOM     32  C   UNL     1     109.312 129.498 137.327  0.00  0.00    +0.000 C 
ATOM     33  C   UNL     1     109.523 128.594 136.241  0.00  0.00    +0.000 C 
BRANCH  32  35
ATOM     34  O   UNL     1     109.277 129.155 138.714  0.00  0.00    +0.000 OA
ATOM     35  C   UNL     1     109.427 129.704 138.117  0.00  0.00    +0.000 C 
ENDBRANCH  32  35
ENDBRANCH  24  33
ENDBRANCH   3  24
TORSDOF 7
ENDMDL
MODEL 6
REMARK VINA RESULT:      -8.3      8.366     12.119
REMARK  Name = 131752841
REMARK  7 active torsions:
REMARK  status: ('A' for Active; 'I' for Inactive)
REMARK    1  A    between atoms: O_2  and  C_16
REMARK    2  A    between atoms: O_2  and  C_18
REMARK    3  A    between atoms: O_8  and  C_19
REMARK    4  A    between atoms: O_9  and  C_22
REMARK    5  A    between atoms: O_11  and  C_34
REMARK    6  A    between atoms: C_15  and  C_17
REMARK    7  A    between atoms: C_25  and  C_27
REMARK                            x       y       z     vdW  Elec       q    Type
REMARK                         _______ _______ _______ _____ _____    ______ ____
ROOT
ATOM      1  O   UNL     1     104.571 125.317 145.761  0.00  0.00    +0.000 OA
ATOM      2  O   UNL     1     106.379 125.006 147.506  0.00  0.00    +0.000 OA
ATOM      3  C   UNL     1     106.006 126.907 145.210  0.00  0.00    +0.000 A 
ATOM      4  C   UNL     1     106.593 126.803 145.780  0.00  0.00    +0.000 A 
ATOM      5  C   UNL     1     105.342 126.416 145.207  0.00  0.00    +0.000 A 
ATOM      6  C   UNL     1     105.266 125.822 145.774  0.00  0.00    +0.000 A 
ATOM      7  C   UNL     1     106.517 126.209 146.347  0.00  0.00    +0.000 A 
ATOM      8  C   UNL     1     105.854 125.718 146.344  0.00  0.00    +0.000 A 
ATOM      9  C   UNL     1     105.787 125.102 146.940  0.00  0.00    +0.000 A 
ATOM     10  C   UNL     1     104.487 124.696 146.349  0.00  0.00    +0.000 A 
ATOM     11  C   UNL     1     105.098 124.588 146.942  0.00  0.00    +0.000 A 
ENDROOT
BRANCH  10  12
ATOM     12  C   UNL     1     103.822 124.207 146.344  0.00  0.00    +0.000 A 
ATOM     13  C   UNL     1     103.168 124.395 146.809  0.00  0.00    +0.000 A 
ATOM     14  C   UNL     1     103.813 123.530 145.873  0.00  0.00    +0.000 A 
ATOM     15  C   UNL     1     102.503 123.906 146.804  0.00  0.00    +0.000 A 
ATOM     16  C   UNL     1     103.148 123.040 145.868  0.00  0.00    +0.000 A 
ATOM     17  C   UNL     1     102.494 123.229 146.334  0.00  0.00    +0.000 A 
BRANCH  17  18
ATOM     18  O   UNL     1     101.830 122.739 146.328  0.00  0.00    +0.000 OA
ATOM     19  C   UNL     1     101.204 122.899 145.815  0.00  0.00    +0.000 C 
ENDBRANCH  17  18
ENDBRANCH  10  12
BRANCH   4  20
ATOM     20  O   UNL     1     107.256 127.294 145.782  0.00  0.00    +0.000 OA
ATOM     21  C   UNL     1     107.262 127.976 146.247  0.00  0.00    +0.000 C 
ENDBRANCH   4  20
BRANCH   7  22
ATOM     22  O   UNL     1     107.105 126.105 146.916  0.00  0.00    +0.000 OA
ATOM     23  C   UNL     1     107.439 125.361 147.035  0.00  0.00    +0.000 C 
ENDBRANCH   7  22
BRANCH   3  24
ATOM     24  O   UNL     1     106.081 127.502 144.643  0.00  0.00    +0.000 OA
BRANCH  24  33
ATOM     25  O   UNL     1     106.357 126.729 143.473  0.00  0.00    +0.000 OA
ATOM     26  O   UNL     1     104.678 128.039 142.212  0.00  0.00    +0.000 OA
ATOM     27  O   UNL     1     105.513 126.830 141.463  0.00  0.00    +0.000 OA
ATOM     28  O   UNL     1     104.962 128.375 143.802  0.00  0.00    +0.000 OA
ATOM     29  C   UNL     1     105.238 127.602 142.632  0.00  0.00    +0.000 C 
ATOM     30  C   UNL     1     105.655 126.998 142.258  0.00  0.00    +0.000 C 
ATOM     31  C   UNL     1     105.380 127.770 143.428  0.00  0.00    +0.000 C 
ATOM     32  C   UNL     1     106.215 126.561 142.678  0.00  0.00    +0.000 C 
ATOM     33  C   UNL     1     105.939 127.334 143.848  0.00  0.00    +0.000 C 
BRANCH  32  35
ATOM     34  O   UNL     1     107.425 125.824 142.491  0.00  0.00    +0.000 OA
ATOM     35  C   UNL     1     106.632 125.957 142.304  0.00  0.00    +0.000 C 
ENDBRANCH  32  35
ENDBRANCH  24  33
ENDBRANCH   3  24
TORSDOF 7
ENDMDL
MODEL 7
REMARK VINA RESULT:      -8.3      7.106      9.751
REMARK  Name = 131752841
REMARK  7 active torsions:
REMARK  status: ('A' for Active; 'I' for Inactive)
REMARK    1  A    between atoms: O_2  and  C_16
REMARK    2  A    between atoms: O_2  and  C_18
REMARK    3  A    between atoms: O_8  and  C_19
REMARK    4  A    between atoms: O_9  and  C_22
REMARK    5  A    between atoms: O_11  and  C_34
REMARK    6  A    between atoms: C_15  and  C_17
REMARK    7  A    between atoms: C_25  and  C_27
REMARK                            x       y       z     vdW  Elec       q    Type
REMARK                         _______ _______ _______ _____ _____    ______ ____
ROOT
ATOM      1  O   UNL     1     105.022 127.802 142.623  0.00  0.00    +0.000 OA
ATOM      2  O   UNL     1     107.100 128.620 141.430  0.00  0.00    +0.000 OA
ATOM      3  C   UNL     1     106.290 125.990 142.635  0.00  0.00    +0.000 A 
ATOM      4  C   UNL     1     106.965 126.260 142.246  0.00  0.00    +0.000 A 
ATOM      5  C   UNL     1     105.653 126.501 142.757  0.00  0.00    +0.000 A 
ATOM      6  C   UNL     1     105.692 127.280 142.490  0.00  0.00    +0.000 A 
ATOM      7  C   UNL     1     107.004 127.040 141.979  0.00  0.00    +0.000 A 
ATOM      8  C   UNL     1     106.368 127.549 142.101  0.00  0.00    +0.000 A 
ATOM      9  C   UNL     1     106.421 128.360 141.818  0.00  0.00    +0.000 A 
ATOM     10  C   UNL     1     105.057 128.615 142.347  0.00  0.00    +0.000 A 
ATOM     11  C   UNL     1     105.761 128.896 141.942  0.00  0.00    +0.000 A 
ENDROOT
BRANCH  10  12
ATOM     12  C   UNL     1     104.419 129.123 142.470  0.00  0.00    +0.000 A 
ATOM     13  C   UNL     1     103.858 129.233 141.875  0.00  0.00    +0.000 A 
ATOM     14  C   UNL     1     104.341 129.520 143.189  0.00  0.00    +0.000 A 
ATOM     15  C   UNL     1     103.220 129.741 141.998  0.00  0.00    +0.000 A 
ATOM     16  C   UNL     1     103.702 130.029 143.312  0.00  0.00    +0.000 A 
ATOM     17  C   UNL     1     103.142 130.139 142.717  0.00  0.00    +0.000 A 
BRANCH  17  18
ATOM     18  O   UNL     1     102.504 130.647 142.841  0.00  0.00    +0.000 OA
ATOM     19  C   UNL     1     102.427 131.331 142.385  0.00  0.00    +0.000 C 
ENDBRANCH  17  18
ENDBRANCH  10  12
BRANCH   4  20
ATOM     20  O   UNL     1     107.602 125.749 142.124  0.00  0.00    +0.000 OA
ATOM     21  C   UNL     1     107.690 125.366 141.399  0.00  0.00    +0.000 C 
ENDBRANCH   4  20
BRANCH   7  22
ATOM     22  O   UNL     1     107.681 127.308 141.590  0.00  0.00    +0.000 OA
ATOM     23  C   UNL     1     108.171 127.864 141.951  0.00  0.00    +0.000 C 
ENDBRANCH   7  22
BRANCH   3  24
ATOM     24  O   UNL     1     106.251 125.211 142.902  0.00  0.00    +0.000 OA
BRANCH  24  33
ATOM     25  O   UNL     1     106.327 125.482 144.303  0.00  0.00    +0.000 OA
ATOM     26  O   UNL     1     104.655 123.710 144.738  0.00  0.00    +0.000 OA
ATOM     27  O   UNL     1     105.289 124.572 145.993  0.00  0.00    +0.000 OA
ATOM     28  O   UNL     1     105.136 124.029 143.193  0.00  0.00    +0.000 OA
ATOM     29  C   UNL     1     105.213 124.301 144.593  0.00  0.00    +0.000 C 
ATOM     30  C   UNL     1     105.530 124.732 145.221  0.00  0.00    +0.000 C 
ATOM     31  C   UNL     1     105.453 124.460 143.820  0.00  0.00    +0.000 C 
ATOM     32  C   UNL     1     106.087 125.323 145.076  0.00  0.00    +0.000 C 
ATOM     33  C   UNL     1     106.011 125.051 143.675  0.00  0.00    +0.000 C 
BRANCH  32  35
ATOM     34  O   UNL     1     107.221 125.848 145.769  0.00  0.00    +0.000 OA
ATOM     35  C   UNL     1     106.404 125.754 145.703  0.00  0.00    +0.000 C 
ENDBRANCH  32  35
ENDBRANCH  24  33
ENDBRANCH   3  24
TORSDOF 7
ENDMDL
MODEL 8
REMARK VINA RESULT:      -8.3      9.324     11.361
REMARK  Name = 131752841
REMARK  7 active torsions:
REMARK  status: ('A' for Active; 'I' for Inactive)
REMARK    1  A    between atoms: O_2  and  C_16
REMARK    2  A    between atoms: O_2  and  C_18
REMARK    3  A    between atoms: O_8  and  C_19
REMARK    4  A    between atoms: O_9  and  C_22
REMARK    5  A    between atoms: O_11  and  C_34
REMARK    6  A    between atoms: C_15  and  C_17
REMARK    7  A    between atoms: C_25  and  C_27
REMARK                            x       y       z     vdW  Elec       q    Type
REMARK                         _______ _______ _______ _____ _____    ______ ____
ROOT
ATOM      1  O   UNL     1     105.408 126.566 144.257  0.00  0.00    +0.000 OA
ATOM      2  O   UNL     1     107.251 127.850 145.427  0.00  0.00    +0.000 OA
ATOM      3  C   UNL     1     105.776 125.305 146.037  0.00  0.00    +0.000 A 
ATOM      4  C   UNL     1     106.376 125.726 146.415  0.00  0.00    +0.000 A 
ATOM      5  C   UNL     1     105.460 125.585 145.327  0.00  0.00    +0.000 A 
ATOM      6  C   UNL     1     105.745 126.285 144.996  0.00  0.00    +0.000 A 
ATOM      7  C   UNL     1     106.661 126.426 146.084  0.00  0.00    +0.000 A 
ATOM      8  C   UNL     1     106.345 126.705 145.376  0.00  0.00    +0.000 A 
ATOM      9  C   UNL     1     106.650 127.436 145.041  0.00  0.00    +0.000 A 
ATOM     10  C   UNL     1     105.700 127.294 143.909  0.00  0.00    +0.000 A 
ATOM     11  C   UNL     1     106.326 127.732 144.303  0.00  0.00    +0.000 A 
ENDROOT
BRANCH  10  12
ATOM     12  C   UNL     1     105.383 127.571 143.199  0.00  0.00    +0.000 A 
ATOM     13  C   UNL     1     105.540 127.173 142.494  0.00  0.00    +0.000 A 
ATOM     14  C   UNL     1     104.909 128.247 143.195  0.00  0.00    +0.000 A 
ATOM     15  C   UNL     1     105.222 127.451 141.784  0.00  0.00    +0.000 A 
ATOM     16  C   UNL     1     104.592 128.524 142.486  0.00  0.00    +0.000 A 
ATOM     17  C   UNL     1     104.748 128.126 141.781  0.00  0.00    +0.000 A 
BRANCH  17  18
ATOM     18  O   UNL     1     104.431 128.404 141.072  0.00  0.00    +0.000 OA
ATOM     19  C   UNL     1     103.700 128.786 141.069  0.00  0.00    +0.000 C 
ENDBRANCH  17  18
ENDBRANCH  10  12
BRANCH   4  20
ATOM     20  O   UNL     1     106.691 125.446 147.125  0.00  0.00    +0.000 OA
ATOM     21  C   UNL     1     107.402 125.027 147.122  0.00  0.00    +0.000 C 
ENDBRANCH   4  20
BRANCH   7  22
ATOM     22  O   UNL     1     107.261 126.846 146.464  0.00  0.00    +0.000 OA
ATOM     23  C   UNL     1     107.122 127.613 146.732  0.00  0.00    +0.000 C 
ENDBRANCH   7  22
BRANCH   3  24
ATOM     24  O   UNL     1     105.491 124.605 146.367  0.00  0.00    +0.000 OA
BRANCH  24  33
ATOM     25  O   UNL     1     104.269 125.061 146.950  0.00  0.00    +0.000 OA
ATOM     26  O   UNL     1     103.081 123.119 145.980  0.00  0.00    +0.000 OA
ATOM     27  O   UNL     1     102.255 124.222 146.886  0.00  0.00    +0.000 OA
ATOM     28  O   UNL     1     104.699 123.310 145.721  0.00  0.00    +0.000 OA
ATOM     29  C   UNL     1     103.477 123.766 146.304  0.00  0.00    +0.000 C 
ATOM     30  C   UNL     1     103.064 124.318 146.757  0.00  0.00    +0.000 C 
ATOM     31  C   UNL     1     104.286 123.862 146.174  0.00  0.00    +0.000 C 
ATOM     32  C   UNL     1     103.460 124.966 147.080  0.00  0.00    +0.000 C 
ATOM     33  C   UNL     1     104.682 124.509 146.497  0.00  0.00    +0.000 C 
BRANCH  32  35
ATOM     34  O   UNL     1     103.383 125.819 148.224  0.00  0.00    +0.000 OA
ATOM     35  C   UNL     1     103.047 125.517 147.533  0.00  0.00    +0.000 C 
ENDBRANCH  32  35
ENDBRANCH  24  33
ENDBRANCH   3  24
TORSDOF 7
ENDMDL
MODEL 9
REMARK VINA RESULT:      -8.1      9.521     12.935
REMARK  Name = 131752841
REMARK  7 active torsions:
REMARK  status: ('A' for Active; 'I' for Inactive)
REMARK    1  A    between atoms: O_2  and  C_16
REMARK    2  A    between atoms: O_2  and  C_18
REMARK    3  A    between atoms: O_8  and  C_19
REMARK    4  A    between atoms: O_9  and  C_22
REMARK    5  A    between atoms: O_11  and  C_34
REMARK    6  A    between atoms: C_15  and  C_17
REMARK    7  A    between atoms: C_25  and  C_27
REMARK                            x       y       z     vdW  Elec       q    Type
REMARK                         _______ _______ _______ _____ _____    ______ ____
ROOT
ATOM      1  O   UNL     1     104.343 124.641 146.160  0.00  0.00    +0.000 OA
ATOM      2  O   UNL     1     104.970 124.610 148.613  0.00  0.00    +0.000 OA
ATOM      3  C   UNL     1     106.233 125.790 146.156  0.00  0.00    +0.000 A 
ATOM      4  C   UNL     1     106.434 125.778 146.955  0.00  0.00    +0.000 A 
ATOM      5  C   UNL     1     105.544 125.415 145.898  0.00  0.00    +0.000 A 
ATOM      6  C   UNL     1     105.057 125.028 146.441  0.00  0.00    +0.000 A 
ATOM      7  C   UNL     1     105.948 125.391 147.498  0.00  0.00    +0.000 A 
ATOM      8  C   UNL     1     105.260 125.017 147.241  0.00  0.00    +0.000 A 
ATOM      9  C   UNL     1     104.761 124.617 147.816  0.00  0.00    +0.000 A 
ATOM     10  C   UNL     1     103.833 124.237 146.721  0.00  0.00    +0.000 A 
ATOM     11  C   UNL     1     104.043 124.225 147.554  0.00  0.00    +0.000 A 
ENDROOT
BRANCH  10  12
ATOM     12  C   UNL     1     103.145 123.863 146.461  0.00  0.00    +0.000 A 
ATOM     13  C   UNL     1     103.187 123.113 146.119  0.00  0.00    +0.000 A 
ATOM     14  C   UNL     1     102.415 124.239 146.542  0.00  0.00    +0.000 A 
ATOM     15  C   UNL     1     102.499 122.739 145.859  0.00  0.00    +0.000 A 
ATOM     16  C   UNL     1     101.727 123.865 146.282  0.00  0.00    +0.000 A 
ATOM     17  C   UNL     1     101.769 123.115 145.940  0.00  0.00    +0.000 A 
BRANCH  17  18
ATOM     18  O   UNL     1     101.081 122.742 145.681  0.00  0.00    +0.000 OA
ATOM     19  C   UNL     1     100.710 122.995 144.989  0.00  0.00    +0.000 C 
ENDBRANCH  17  18
ENDBRANCH  10  12
BRANCH   4  20
ATOM     20  O   UNL     1     107.123 126.153 147.213  0.00  0.00    +0.000 OA
ATOM     21  C   UNL     1     107.805 125.711 147.353  0.00  0.00    +0.000 C 
ENDBRANCH   4  20
BRANCH   7  22
ATOM     22  O   UNL     1     106.150 125.380 148.298  0.00  0.00    +0.000 OA
ATOM     23  C   UNL     1     105.701 125.804 148.844  0.00  0.00    +0.000 C 
ENDBRANCH   7  22
BRANCH   3  24
ATOM     24  O   UNL     1     106.719 126.177 145.613  0.00  0.00    +0.000 OA
BRANCH  24  33
ATOM     25  O   UNL     1     105.944 127.358 145.395  0.00  0.00    +0.000 OA
ATOM     26  O   UNL     1     106.350 127.174 142.960  0.00  0.00    +0.000 OA
ATOM     27  O   UNL     1     105.440 128.415 143.553  0.00  0.00    +0.000 OA
ATOM     28  O   UNL     1     106.990 126.055 143.990  0.00  0.00    +0.000 OA
ATOM     29  C   UNL     1     106.215 127.235 143.772  0.00  0.00    +0.000 C 
ATOM     30  C   UNL     1     105.760 127.856 144.069  0.00  0.00    +0.000 C 
ATOM     31  C   UNL     1     106.535 126.675 144.287  0.00  0.00    +0.000 C 
ATOM     32  C   UNL     1     105.625 127.917 144.880  0.00  0.00    +0.000 C 
ATOM     33  C   UNL     1     106.400 126.736 145.099  0.00  0.00    +0.000 C 
BRANCH  32  35
ATOM     34  O   UNL     1     105.406 128.933 145.861  0.00  0.00    +0.000 OA
ATOM     35  C   UNL     1     105.170 128.537 145.176  0.00  0.00    +0.000 C 
ENDBRANCH  32  35
ENDBRANCH  24  33
ENDBRANCH   3  24
TORSDOF 7
ENDMDL
MODEL 10
REMARK VINA RESULT:      -8.1      2.373      5.420
REMARK  Name = 131752841
REMARK  7 active torsions:
REMARK  status: ('A' for Active; 'I' for Inactive)
REMARK    1  A    between atoms: O_2  and  C_16
REMARK    2  A    between atoms: O_2  and  C_18
REMARK    3  A    between atoms: O_8  and  C_19
REMARK    4  A    between atoms: O_9  and  C_22
REMARK    5  A    between atoms: O_11  and  C_34
REMARK    6  A    between atoms: C_15  and  C_17
REMARK    7  A    between atoms: C_25  and  C_27
REMARK                            x       y       z     vdW  Elec       q    Type
REMARK                         _______ _______ _______ _____ _____    ______ ____
ROOT
ATOM      1  O   UNL     1     111.298 127.245 136.234  0.00  0.00    +0.000 OA
ATOM      2  O   UNL     1     108.857 127.614 135.669  0.00  0.00    +0.000 OA
ATOM      3  C   UNL     1     111.260 129.412 135.794  0.00  0.00    +0.000 A 
ATOM      4  C   UNL     1     110.464 129.529 135.610  0.00  0.00    +0.000 A 
ATOM      5  C   UNL     1     111.530 128.659 135.998  0.00  0.00    +0.000 A 
ATOM      6  C   UNL     1     111.004 128.024 136.020  0.00  0.00    +0.000 A 
ATOM      7  C   UNL     1     109.938 128.893 135.631  0.00  0.00    +0.000 A 
ATOM      8  C   UNL     1     110.208 128.142 135.836  0.00  0.00    +0.000 A 
ATOM      9  C   UNL     1     109.650 127.487 135.854  0.00  0.00    +0.000 A 
ATOM     10  C   UNL     1     110.755 126.580 136.258  0.00  0.00    +0.000 A 
ATOM     11  C   UNL     1     109.926 126.702 136.067  0.00  0.00    +0.000 A 
ENDROOT
BRANCH  10  12
ATOM     12  C   UNL     1     111.027 125.829 136.463  0.00  0.00    +0.000 A 
ATOM     13  C   UNL     1     111.213 125.283 135.874  0.00  0.00    +0.000 A 
ATOM     14  C   UNL     1     111.114 125.624 137.258  0.00  0.00    +0.000 A 
ATOM     15  C   UNL     1     111.486 124.531 136.079  0.00  0.00    +0.000 A 
ATOM     16  C   UNL     1     111.386 124.873 137.463  0.00  0.00    +0.000 A 
ATOM     17  C   UNL     1     111.572 124.327 136.873  0.00  0.00    +0.000 A 
BRANCH  17  18
ATOM     18  O   UNL     1     111.845 123.576 137.079  0.00  0.00    +0.000 OA
ATOM     19  C   UNL     1     112.653 123.412 137.064  0.00  0.00    +0.000 C 
ENDBRANCH  17  18
ENDBRANCH  10  12
BRANCH   4  20
ATOM     20  O   UNL     1     110.194 130.282 135.405  0.00  0.00    +0.000 OA
ATOM     21  C   UNL     1     110.071 130.473 134.612  0.00  0.00    +0.000 C 
ENDBRANCH   4  20
BRANCH   7  22
ATOM     22  O   UNL     1     109.142 129.011 135.447  0.00  0.00    +0.000 OA
ATOM     23  C   UNL     1     108.571 128.968 136.040  0.00  0.00    +0.000 C 
ENDBRANCH   7  22
BRANCH   3  24
ATOM     24  O   UNL     1     111.786 130.048 135.772  0.00  0.00    +0.000 OA
BRANCH  24  33
ATOM     25  O   UNL     1     111.972 130.296 137.167  0.00  0.00    +0.000 OA
ATOM     26  O   UNL     1     114.420 130.404 136.821  0.00  0.00    +0.000 OA
ATOM     27  O   UNL     1     113.790 130.615 138.331  0.00  0.00    +0.000 OA
ATOM     28  O   UNL     1     113.418 130.120 135.542  0.00  0.00    +0.000 OA
ATOM     29  C   UNL     1     113.604 130.368 136.937  0.00  0.00    +0.000 C 
ATOM     30  C   UNL     1     113.289 130.474 137.691  0.00  0.00    +0.000 C 
ATOM     31  C   UNL     1     113.103 130.226 136.296  0.00  0.00    +0.000 C 
ATOM     32  C   UNL     1     112.473 130.437 137.807  0.00  0.00    +0.000 C 
ATOM     33  C   UNL     1     112.286 130.190 136.412  0.00  0.00    +0.000 C 
BRANCH  32  35
ATOM     34  O   UNL     1     111.534 131.069 138.679  0.00  0.00    +0.000 OA
ATOM     35  C   UNL     1     112.158 130.543 138.561  0.00  0.00    +0.000 C 
ENDBRANCH  32  35
ENDBRANCH  24  33
ENDBRANCH   3  24
TORSDOF 7
ENDMDL
