MODEL 1
REMARK VINA RESULT:      -8.5      0.000      0.000
REMARK  Name = 21722183
REMARK  7 active torsions:
REMARK  status: ('A' for Active; 'I' for Inactive)
REMARK    1  A    between atoms: O_2  and  C_14
REMARK    2  A    between atoms: O_2  and  C_16
REMARK    3  A    between atoms: C_13  and  C_15
REMARK    4  A    between atoms: C_19  and  C_23
REMARK    5  A    between atoms: C_22  and  C_23
REMARK    6  A    between atoms: C_22  and  C_24
REMARK    7  A    between atoms: C_24  and  C_25
REMARK                            x       y       z     vdW  Elec       q    Type
REMARK                         _______ _______ _______ _____ _____    ______ ____
ROOT
ATOM      1  O   UNL     1     110.321 126.083 134.679  0.00  0.00    +0.000 OA
ATOM      2  C   UNL     1     109.364 127.128 136.340  0.00  0.00    +0.000 A 
ATOM      3  C   UNL     1     109.574 126.913 135.571  0.00  0.00    +0.000 A 
ATOM      4  C   UNL     1     109.691 126.731 136.984  0.00  0.00    +0.000 A 
ATOM      5  C   UNL     1     110.439 125.901 136.092  0.00  0.00    +0.000 A 
ATOM      6  C   UNL     1     110.111 126.299 135.447  0.00  0.00    +0.000 A 
ATOM      7  C   UNL     1     110.229 126.117 136.860  0.00  0.00    +0.000 A 
ENDROOT
BRANCH   5   9
ATOM      8  O   UNL     1     110.746 124.618 135.544  0.00  0.00    +0.000 OA
ATOM      9  C   UNL     1     110.976 125.288 135.968  0.00  0.00    +0.000 C 
BRANCH   9  10
ATOM     10  C   UNL     1     111.742 125.344 136.268  0.00  0.00    +0.000 C 
BRANCH  10  11
ATOM     11  C   UNL     1     112.274 124.723 136.159  0.00  0.00    +0.000 C 
BRANCH  11  13
ATOM     12  O   UNL     1     115.278 124.866 137.518  0.00  0.00    +0.000 OA
ATOM     13  C   UNL     1     113.026 124.758 136.499  0.00  0.00    +0.000 A 
ATOM     14  C   UNL     1     113.239 124.220 137.087  0.00  0.00    +0.000 A 
ATOM     15  C   UNL     1     113.563 125.333 136.251  0.00  0.00    +0.000 A 
ATOM     16  C   UNL     1     113.989 124.256 137.426  0.00  0.00    +0.000 A 
ATOM     17  C   UNL     1     114.315 125.368 136.591  0.00  0.00    +0.000 A 
ATOM     18  C   UNL     1     114.528 124.830 137.178  0.00  0.00    +0.000 A 
ENDBRANCH  11  13
ENDBRANCH  10  11
ENDBRANCH   9  10
ENDBRANCH   5   9
BRANCH   2  19
ATOM     19  O   UNL     1     108.827 127.742 136.463  0.00  0.00    +0.000 OA
BRANCH  19  28
ATOM     20  O   UNL     1     109.789 128.775 136.685  0.00  0.00    +0.000 OA
ATOM     21  O   UNL     1     108.346 130.380 135.474  0.00  0.00    +0.000 OA
ATOM     22  O   UNL     1     109.790 130.877 136.099  0.00  0.00    +0.000 OA
ATOM     23  O   UNL     1     107.865 128.812 135.656  0.00  0.00    +0.000 OA
ATOM     24  C   UNL     1     108.827 129.845 135.878  0.00  0.00    +0.000 C 
ATOM     25  C   UNL     1     109.548 130.094 136.190  0.00  0.00    +0.000 C 
ATOM     26  C   UNL     1     108.587 129.062 135.968  0.00  0.00    +0.000 C 
ATOM     27  C   UNL     1     110.029 129.559 136.594  0.00  0.00    +0.000 C 
ATOM     28  C   UNL     1     109.068 128.527 136.372  0.00  0.00    +0.000 C 
BRANCH  27  30
ATOM     29  O   UNL     1     110.924 129.674 137.703  0.00  0.00    +0.000 OA
ATOM     30  C   UNL     1     110.752 129.808 136.907  0.00  0.00    +0.000 C 
ENDBRANCH  27  30
ENDBRANCH  19  28
ENDBRANCH   2  19
TORSDOF 7
ENDMDL
MODEL 2
REMARK VINA RESULT:      -8.4      0.885      1.049
REMARK  Name = 21722183
REMARK  7 active torsions:
REMARK  status: ('A' for Active; 'I' for Inactive)
REMARK    1  A    between atoms: O_2  and  C_14
REMARK    2  A    between atoms: O_2  and  C_16
REMARK    3  A    between atoms: C_13  and  C_15
REMARK    4  A    between atoms: C_19  and  C_23
REMARK    5  A    between atoms: C_22  and  C_23
REMARK    6  A    between atoms: C_22  and  C_24
REMARK    7  A    between atoms: C_24  and  C_25
REMARK                            x       y       z     vdW  Elec       q    Type
REMARK                         _______ _______ _______ _____ _____    ______ ____
ROOT
ATOM      1  O   UNL     1     109.727 126.005 136.720  0.00  0.00    +0.000 OA
ATOM      2  C   UNL     1     109.762 127.641 135.276  0.00  0.00    +0.000 A 
ATOM      3  C   UNL     1     109.533 127.167 135.912  0.00  0.00    +0.000 A 
ATOM      4  C   UNL     1     110.409 127.427 134.813  0.00  0.00    +0.000 A 
ATOM      5  C   UNL     1     110.603 126.264 135.621  0.00  0.00    +0.000 A 
ATOM      6  C   UNL     1     109.954 126.479 136.085  0.00  0.00    +0.000 A 
ATOM      7  C   UNL     1     110.830 126.738 134.985  0.00  0.00    +0.000 A 
ENDROOT
BRANCH   5   9
ATOM      8  O   UNL     1     110.705 124.839 135.600  0.00  0.00    +0.000 OA
ATOM      9  C   UNL     1     111.023 125.576 135.794  0.00  0.00    +0.000 C 
BRANCH   9  10
ATOM     10  C   UNL     1     111.761 125.624 136.159  0.00  0.00    +0.000 C 
BRANCH  10  11
ATOM     11  C   UNL     1     112.173 124.935 136.348  0.00  0.00    +0.000 C 
BRANCH  11  13
ATOM     12  O   UNL     1     115.139 125.127 137.781  0.00  0.00    +0.000 OA
ATOM     13  C   UNL     1     112.915 124.983 136.707  0.00  0.00    +0.000 A 
ATOM     14  C   UNL     1     112.977 125.213 137.497  0.00  0.00    +0.000 A 
ATOM     15  C   UNL     1     113.594 124.801 136.275  0.00  0.00    +0.000 A 
ATOM     16  C   UNL     1     113.718 125.261 137.854  0.00  0.00    +0.000 A 
ATOM     17  C   UNL     1     114.336 124.849 136.634  0.00  0.00    +0.000 A 
ATOM     18  C   UNL     1     114.398 125.079 137.423  0.00  0.00    +0.000 A 
ENDBRANCH  11  13
ENDBRANCH  10  11
ENDBRANCH   9  10
ENDBRANCH   5   9
BRANCH   2  19
ATOM     19  O   UNL     1     109.341 128.330 135.103  0.00  0.00    +0.000 OA
BRANCH  19  28
ATOM     20  O   UNL     1     110.180 129.255 135.797  0.00  0.00    +0.000 OA
ATOM     21  O   UNL     1     108.179 130.480 136.585  0.00  0.00    +0.000 OA
ATOM     22  O   UNL     1     109.686 130.997 137.016  0.00  0.00    +0.000 OA
ATOM     23  O   UNL     1     108.007 129.146 135.629  0.00  0.00    +0.000 OA
ATOM     24  C   UNL     1     108.846 130.071 136.322  0.00  0.00    +0.000 C 
ATOM     25  C   UNL     1     109.599 130.330 136.538  0.00  0.00    +0.000 C 
ATOM     26  C   UNL     1     108.760 129.405 135.845  0.00  0.00    +0.000 C 
ATOM     27  C   UNL     1     110.266 129.922 136.275  0.00  0.00    +0.000 C 
ATOM     28  C   UNL     1     109.427 128.997 135.582  0.00  0.00    +0.000 C 
BRANCH  27  30
ATOM     29  O   UNL     1     111.610 130.252 135.919  0.00  0.00    +0.000 OA
ATOM     30  C   UNL     1     111.020 130.180 136.491  0.00  0.00    +0.000 C 
ENDBRANCH  27  30
ENDBRANCH  19  28
ENDBRANCH   2  19
TORSDOF 7
ENDMDL
MODEL 3
REMARK VINA RESULT:      -8.3      7.155      8.680
REMARK  Name = 21722183
REMARK  7 active torsions:
REMARK  status: ('A' for Active; 'I' for Inactive)
REMARK    1  A    between atoms: O_2  and  C_14
REMARK    2  A    between atoms: O_2  and  C_16
REMARK    3  A    between atoms: C_13  and  C_15
REMARK    4  A    between atoms: C_19  and  C_23
REMARK    5  A    between atoms: C_22  and  C_23
REMARK    6  A    between atoms: C_22  and  C_24
REMARK    7  A    between atoms: C_24  and  C_25
REMARK                            x       y       z     vdW  Elec       q    Type
REMARK                         _______ _______ _______ _____ _____    ______ ____
ROOT
ATOM      1  O   UNL     1     105.211 123.668 142.069  0.00  0.00    +0.000 OA
ATOM      2  C   UNL     1     106.553 125.381 141.903  0.00  0.00    +0.000 A 
ATOM      3  C   UNL     1     106.051 124.814 142.229  0.00  0.00    +0.000 A 
ATOM      4  C   UNL     1     106.719 125.372 141.096  0.00  0.00    +0.000 A 
ATOM      5  C   UNL     1     105.879 124.227 140.937  0.00  0.00    +0.000 A 
ATOM      6  C   UNL     1     105.713 124.236 141.745  0.00  0.00    +0.000 A 
ATOM      7  C   UNL     1     106.381 124.795 140.612  0.00  0.00    +0.000 A 
ENDROOT
BRANCH   5   9
ATOM      8  O   UNL     1     105.844 122.882 140.456  0.00  0.00    +0.000 OA
ATOM      9  C   UNL     1     105.542 123.650 140.453  0.00  0.00    +0.000 C 
BRANCH   9  10
ATOM     10  C   UNL     1     104.903 123.840 139.968  0.00  0.00    +0.000 C 
BRANCH  10  11
ATOM     11  C   UNL     1     104.639 123.300 139.403  0.00  0.00    +0.000 C 
BRANCH  11  13
ATOM     12  O   UNL     1     101.897 123.926 137.676  0.00  0.00    +0.000 OA
ATOM     13  C   UNL     1     103.953 123.457 138.971  0.00  0.00    +0.000 A 
ATOM     14  C   UNL     1     104.006 123.671 138.176  0.00  0.00    +0.000 A 
ATOM     15  C   UNL     1     103.215 123.399 139.335  0.00  0.00    +0.000 A 
ATOM     16  C   UNL     1     103.321 123.827 137.745  0.00  0.00    +0.000 A 
ATOM     17  C   UNL     1     102.529 123.556 138.902  0.00  0.00    +0.000 A 
ATOM     18  C   UNL     1     102.582 123.770 138.107  0.00  0.00    +0.000 A 
ENDBRANCH  11  13
ENDBRANCH  10  11
ENDBRANCH   9  10
ENDBRANCH   5   9
BRANCH   2  19
ATOM     19  O   UNL     1     106.890 125.959 142.387  0.00  0.00    +0.000 OA
BRANCH  19  28
ATOM     20  O   UNL     1     105.919 126.986 142.181  0.00  0.00    +0.000 OA
ATOM     21  O   UNL     1     106.039 127.582 144.580  0.00  0.00    +0.000 OA
ATOM     22  O   UNL     1     105.028 128.411 143.574  0.00  0.00    +0.000 OA
ATOM     23  O   UNL     1     106.970 126.356 143.987  0.00  0.00    +0.000 OA
ATOM     24  C   UNL     1     105.999 127.383 143.780  0.00  0.00    +0.000 C 
ATOM     25  C   UNL     1     105.494 127.798 143.278  0.00  0.00    +0.000 C 
ATOM     26  C   UNL     1     106.464 126.771 143.484  0.00  0.00    +0.000 C 
ATOM     27  C   UNL     1     105.453 127.599 142.478  0.00  0.00    +0.000 C 
ATOM     28  C   UNL     1     106.424 126.572 142.684  0.00  0.00    +0.000 C 
BRANCH  27  30
ATOM     29  O   UNL     1     105.242 128.355 141.283  0.00  0.00    +0.000 OA
ATOM     30  C   UNL     1     104.947 128.014 141.974  0.00  0.00    +0.000 C 
ENDBRANCH  27  30
ENDBRANCH  19  28
ENDBRANCH   2  19
TORSDOF 7
ENDMDL
MODEL 4
REMARK VINA RESULT:      -8.2      1.761      5.650
REMARK  Name = 21722183
REMARK  7 active torsions:
REMARK  status: ('A' for Active; 'I' for Inactive)
REMARK    1  A    between atoms: O_2  and  C_14
REMARK    2  A    between atoms: O_2  and  C_16
REMARK    3  A    between atoms: C_13  and  C_15
REMARK    4  A    between atoms: C_19  and  C_23
REMARK    5  A    between atoms: C_22  and  C_23
REMARK    6  A    between atoms: C_22  and  C_24
REMARK    7  A    between atoms: C_24  and  C_25
REMARK                            x       y       z     vdW  Elec       q    Type
REMARK                         _______ _______ _______ _____ _____    ______ ____
ROOT
ATOM      1  O   UNL     1     108.215 128.490 136.216  0.00  0.00    +0.000 OA
ATOM      2  C   UNL     1     109.860 127.937 134.893  0.00  0.00    +0.000 A 
ATOM      3  C   UNL     1     109.224 127.873 135.414  0.00  0.00    +0.000 A 
ATOM      4  C   UNL     1     110.123 128.681 134.652  0.00  0.00    +0.000 A 
ATOM      5  C   UNL     1     109.114 129.298 135.454  0.00  0.00    +0.000 A 
ATOM      6  C   UNL     1     108.851 128.553 135.695  0.00  0.00    +0.000 A 
ATOM      7  C   UNL     1     109.750 129.361 134.932  0.00  0.00    +0.000 A 
ENDROOT
BRANCH   5   9
ATOM      8  O   UNL     1     107.964 130.144 135.510  0.00  0.00    +0.000 OA
ATOM      9  C   UNL     1     108.740 129.978 135.734  0.00  0.00    +0.000 C 
BRANCH   9  10
ATOM     10  C   UNL     1     109.144 130.491 136.238  0.00  0.00    +0.000 C 
BRANCH  10  11
ATOM     11  C   UNL     1     108.828 131.234 136.409  0.00  0.00    +0.000 C 
BRANCH  11  13
ATOM     12  O   UNL     1     110.355 133.223 138.553  0.00  0.00    +0.000 OA
ATOM     13  C   UNL     1     109.210 131.732 136.945  0.00  0.00    +0.000 A 
ATOM     14  C   UNL     1     109.681 132.351 136.670  0.00  0.00    +0.000 A 
ATOM     15  C   UNL     1     109.120 131.610 137.756  0.00  0.00    +0.000 A 
ATOM     16  C   UNL     1     110.062 132.848 137.206  0.00  0.00    +0.000 A 
ATOM     17  C   UNL     1     109.503 132.107 138.292  0.00  0.00    +0.000 A 
ATOM     18  C   UNL     1     109.973 132.727 138.017  0.00  0.00    +0.000 A 
ENDBRANCH  11  13
ENDBRANCH  10  11
ENDBRANCH   9  10
ENDBRANCH   5   9
BRANCH   2  19
ATOM     19  O   UNL     1     110.233 127.257 134.612  0.00  0.00    +0.000 OA
BRANCH  19  28
ATOM     20  O   UNL     1     111.310 127.198 135.549  0.00  0.00    +0.000 OA
ATOM     21  O   UNL     1     111.013 124.748 135.735  0.00  0.00    +0.000 OA
ATOM     22  O   UNL     1     112.189 125.505 136.611  0.00  0.00    +0.000 OA
ATOM     23  O   UNL     1     110.035 125.624 134.736  0.00  0.00    +0.000 OA
ATOM     24  C   UNL     1     111.112 125.564 135.673  0.00  0.00    +0.000 C 
ATOM     25  C   UNL     1     111.700 125.942 136.111  0.00  0.00    +0.000 C 
ATOM     26  C   UNL     1     110.624 126.002 135.174  0.00  0.00    +0.000 C 
ATOM     27  C   UNL     1     111.799 126.759 136.049  0.00  0.00    +0.000 C 
ATOM     28  C   UNL     1     110.723 126.819 135.112  0.00  0.00    +0.000 C 
BRANCH  27  30
ATOM     29  O   UNL     1     112.943 127.615 136.106  0.00  0.00    +0.000 OA
ATOM     30  C   UNL     1     112.387 127.138 136.487  0.00  0.00    +0.000 C 
ENDBRANCH  27  30
ENDBRANCH  19  28
ENDBRANCH   2  19
TORSDOF 7
ENDMDL
MODEL 5
REMARK VINA RESULT:      -8.1      3.972      5.087
REMARK  Name = 21722183
REMARK  7 active torsions:
REMARK  status: ('A' for Active; 'I' for Inactive)
REMARK    1  A    between atoms: O_2  and  C_14
REMARK    2  A    between atoms: O_2  and  C_16
REMARK    3  A    between atoms: C_13  and  C_15
REMARK    4  A    between atoms: C_19  and  C_23
REMARK    5  A    between atoms: C_22  and  C_23
REMARK    6  A    between atoms: C_22  and  C_24
REMARK    7  A    between atoms: C_24  and  C_25
REMARK                            x       y       z     vdW  Elec       q    Type
REMARK                         _______ _______ _______ _____ _____    ______ ____
ROOT
ATOM      1  O   UNL     1     111.422 127.625 139.303  0.00  0.00    +0.000 OA
ATOM      2  C   UNL     1     112.624 127.938 141.099  0.00  0.00    +0.000 A 
ATOM      3  C   UNL     1     112.058 128.054 140.509  0.00  0.00    +0.000 A 
ATOM      4  C   UNL     1     113.116 127.277 141.074  0.00  0.00    +0.000 A 
ATOM      5  C   UNL     1     112.479 126.847 139.869  0.00  0.00    +0.000 A 
ATOM      6  C   UNL     1     111.986 127.509 139.894  0.00  0.00    +0.000 A 
ATOM      7  C   UNL     1     113.044 126.732 140.459  0.00  0.00    +0.000 A 
ENDROOT
BRANCH   5   9
ATOM      8  O   UNL     1     111.744 125.813 139.212  0.00  0.00    +0.000 OA
ATOM      9  C   UNL     1     112.407 126.302 139.254  0.00  0.00    +0.000 C 
BRANCH   9  10
ATOM     10  C   UNL     1     112.998 126.247 138.681  0.00  0.00    +0.000 C 
BRANCH  10  11
ATOM     11  C   UNL     1     112.976 125.639 138.124  0.00  0.00    +0.000 C 
BRANCH  11  13
ATOM     12  O   UNL     1     115.392 125.356 135.893  0.00  0.00    +0.000 OA
ATOM     13  C   UNL     1     113.581 125.568 137.566  0.00  0.00    +0.000 A 
ATOM     14  C   UNL     1     114.134 124.960 137.632  0.00  0.00    +0.000 A 
ATOM     15  C   UNL     1     113.630 126.106 136.942  0.00  0.00    +0.000 A 
ATOM     16  C   UNL     1     114.738 124.889 137.075  0.00  0.00    +0.000 A 
ATOM     17  C   UNL     1     114.235 126.035 136.384  0.00  0.00    +0.000 A 
ATOM     18  C   UNL     1     114.789 125.427 136.451  0.00  0.00    +0.000 A 
ENDBRANCH  11  13
ENDBRANCH  10  11
ENDBRANCH   9  10
ENDBRANCH   5   9
BRANCH   2  19
ATOM     19  O   UNL     1     112.696 128.483 141.714  0.00  0.00    +0.000 OA
BRANCH  19  28
ATOM     20  O   UNL     1     113.710 129.274 141.092  0.00  0.00    +0.000 OA
ATOM     21  O   UNL     1     112.754 131.311 142.123  0.00  0.00    +0.000 OA
ATOM     22  O   UNL     1     114.088 131.423 141.158  0.00  0.00    +0.000 OA
ATOM     23  O   UNL     1     112.058 129.841 142.401  0.00  0.00    +0.000 OA
ATOM     24  C   UNL     1     113.073 130.632 141.779  0.00  0.00    +0.000 C 
ATOM     25  C   UNL     1     113.739 130.688 141.297  0.00  0.00    +0.000 C 
ATOM     26  C   UNL     1     112.725 129.897 141.918  0.00  0.00    +0.000 C 
ATOM     27  C   UNL     1     114.058 130.009 140.954  0.00  0.00    +0.000 C 
ATOM     28  C   UNL     1     113.044 129.219 141.575  0.00  0.00    +0.000 C 
BRANCH  27  30
ATOM     29  O   UNL     1     115.405 129.634 140.654  0.00  0.00    +0.000 OA
ATOM     30  C   UNL     1     114.725 130.065 140.471  0.00  0.00    +0.000 C 
ENDBRANCH  27  30
ENDBRANCH  19  28
ENDBRANCH   2  19
TORSDOF 7
ENDMDL
MODEL 6
REMARK VINA RESULT:      -8.1      4.213      5.483
REMARK  Name = 21722183
REMARK  7 active torsions:
REMARK  status: ('A' for Active; 'I' for Inactive)
REMARK    1  A    between atoms: O_2  and  C_14
REMARK    2  A    between atoms: O_2  and  C_16
REMARK    3  A    between atoms: C_13  and  C_15
REMARK    4  A    between atoms: C_19  and  C_23
REMARK    5  A    between atoms: C_22  and  C_23
REMARK    6  A    between atoms: C_22  and  C_24
REMARK    7  A    between atoms: C_24  and  C_25
REMARK                            x       y       z     vdW  Elec       q    Type
REMARK                         _______ _______ _______ _____ _____    ______ ____
ROOT
ATOM      1  O   UNL     1     113.732 126.502 140.953  0.00  0.00    +0.000 OA
ATOM      2  C   UNL     1     113.440 128.664 140.870  0.00  0.00    +0.000 A 
ATOM      3  C   UNL     1     113.660 127.917 141.143  0.00  0.00    +0.000 A 
ATOM      4  C   UNL     1     113.072 128.744 140.137  0.00  0.00    +0.000 A 
ATOM      5  C   UNL     1     113.143 127.329 139.947  0.00  0.00    +0.000 A 
ATOM      6  C   UNL     1     113.512 127.250 140.681  0.00  0.00    +0.000 A 
ATOM      7  C   UNL     1     112.923 128.077 139.675  0.00  0.00    +0.000 A 
ENDROOT
BRANCH   5   9
ATOM      8  O   UNL     1     112.356 126.172 139.663  0.00  0.00    +0.000 OA
ATOM      9  C   UNL     1     112.995 126.662 139.485  0.00  0.00    +0.000 C 
BRANCH   9  10
ATOM     10  C   UNL     1     113.485 126.486 138.846  0.00  0.00    +0.000 C 
BRANCH  10  11
ATOM     11  C   UNL     1     113.270 125.895 138.312  0.00  0.00    +0.000 C 
BRANCH  11  13
ATOM     12  O   UNL     1     115.288 125.107 135.822  0.00  0.00    +0.000 OA
ATOM     13  C   UNL     1     113.775 125.698 137.689  0.00  0.00    +0.000 A 
ATOM     14  C   UNL     1     114.322 125.086 137.779  0.00  0.00    +0.000 A 
ATOM     15  C   UNL     1     113.732 126.113 136.978  0.00  0.00    +0.000 A 
ATOM     16  C   UNL     1     114.826 124.890 137.156  0.00  0.00    +0.000 A 
ATOM     17  C   UNL     1     114.237 125.916 136.355  0.00  0.00    +0.000 A 
ATOM     18  C   UNL     1     114.784 125.304 136.444  0.00  0.00    +0.000 A 
ENDBRANCH  11  13
ENDBRANCH  10  11
ENDBRANCH   9  10
ENDBRANCH   5   9
BRANCH   2  19
ATOM     19  O   UNL     1     113.588 129.331 141.332  0.00  0.00    +0.000 OA
BRANCH  19  28
ATOM     20  O   UNL     1     112.466 129.189 142.205  0.00  0.00    +0.000 OA
ATOM     21  O   UNL     1     112.184 131.648 142.244  0.00  0.00    +0.000 OA
ATOM     22  O   UNL     1     111.156 130.686 143.104  0.00  0.00    +0.000 OA
ATOM     23  O   UNL     1     113.400 130.970 141.358  0.00  0.00    +0.000 OA
ATOM     24  C   UNL     1     112.278 130.828 142.231  0.00  0.00    +0.000 C 
ATOM     25  C   UNL     1     111.764 130.348 142.661  0.00  0.00    +0.000 C 
ATOM     26  C   UNL     1     112.886 130.490 141.788  0.00  0.00    +0.000 C 
ATOM     27  C   UNL     1     111.858 129.528 142.648  0.00  0.00    +0.000 C 
ATOM     28  C   UNL     1     112.980 129.670 141.776  0.00  0.00    +0.000 C 
BRANCH  27  30
ATOM     29  O   UNL     1     111.643 128.519 143.638  0.00  0.00    +0.000 OA
ATOM     30  C   UNL     1     111.344 129.047 143.078  0.00  0.00    +0.000 C 
ENDBRANCH  27  30
ENDBRANCH  19  28
ENDBRANCH   2  19
TORSDOF 7
ENDMDL
MODEL 7
REMARK VINA RESULT:      -8.0      1.708      2.833
REMARK  Name = 21722183
REMARK  7 active torsions:
REMARK  status: ('A' for Active; 'I' for Inactive)
REMARK    1  A    between atoms: O_2  and  C_14
REMARK    2  A    between atoms: O_2  and  C_16
REMARK    3  A    between atoms: C_13  and  C_15
REMARK    4  A    between atoms: C_19  and  C_23
REMARK    5  A    between atoms: C_22  and  C_23
REMARK    6  A    between atoms: C_22  and  C_24
REMARK    7  A    between atoms: C_24  and  C_25
REMARK                            x       y       z     vdW  Elec       q    Type
REMARK                         _______ _______ _______ _____ _____    ______ ____
ROOT
ATOM      1  O   UNL     1     112.743 129.559 136.827  0.00  0.00    +0.000 OA
ATOM      2  C   UNL     1     111.429 129.419 135.090  0.00  0.00    +0.000 A 
ATOM      3  C   UNL     1     111.748 129.673 135.807  0.00  0.00    +0.000 A 
ATOM      4  C   UNL     1     111.782 128.799 134.676  0.00  0.00    +0.000 A 
ATOM      5  C   UNL     1     112.776 128.685 135.697  0.00  0.00    +0.000 A 
ATOM      6  C   UNL     1     112.422 129.306 136.110  0.00  0.00    +0.000 A 
ATOM      7  C   UNL     1     112.455 128.432 134.980  0.00  0.00    +0.000 A 
ENDROOT
BRANCH   5   9
ATOM      8  O   UNL     1     114.164 128.730 136.034  0.00  0.00    +0.000 OA
ATOM      9  C   UNL     1     113.450 128.318 136.000  0.00  0.00    +0.000 C 
BRANCH   9  10
ATOM     10  C   UNL     1     113.409 127.540 136.269  0.00  0.00    +0.000 C 
BRANCH  10  11
ATOM     11  C   UNL     1     114.097 127.145 136.494  0.00  0.00    +0.000 C 
BRANCH  11  13
ATOM     12  O   UNL     1     113.962 123.971 137.387  0.00  0.00    +0.000 OA
ATOM     13  C   UNL     1     114.064 126.351 136.717  0.00  0.00    +0.000 A 
ATOM     14  C   UNL     1     114.446 125.778 136.263  0.00  0.00    +0.000 A 
ATOM     15  C   UNL     1     113.648 126.131 137.395  0.00  0.00    +0.000 A 
ATOM     16  C   UNL     1     114.412 124.985 136.486  0.00  0.00    +0.000 A 
ATOM     17  C   UNL     1     113.614 125.337 137.618  0.00  0.00    +0.000 A 
ATOM     18  C   UNL     1     113.996 124.764 137.164  0.00  0.00    +0.000 A 
ENDBRANCH  11  13
ENDBRANCH  10  11
ENDBRANCH   9  10
ENDBRANCH   5   9
BRANCH   2  19
ATOM     19  O   UNL     1     110.755 129.786 134.786  0.00  0.00    +0.000 OA
BRANCH  19  28
ATOM     20  O   UNL     1     109.827 128.863 135.359  0.00  0.00    +0.000 OA
ATOM     21  O   UNL     1     108.173 130.687 135.618  0.00  0.00    +0.000 OA
ATOM     22  O   UNL     1     107.796 129.156 136.105  0.00  0.00    +0.000 OA
ATOM     23  O   UNL     1     109.653 131.002 134.959  0.00  0.00    +0.000 OA
ATOM     24  C   UNL     1     108.724 130.079 135.532  0.00  0.00    +0.000 C 
ATOM     25  C   UNL     1     108.536 129.314 135.775  0.00  0.00    +0.000 C 
ATOM     26  C   UNL     1     109.463 130.237 135.202  0.00  0.00    +0.000 C 
ATOM     27  C   UNL     1     109.087 128.706 135.689  0.00  0.00    +0.000 C 
ATOM     28  C   UNL     1     110.015 129.629 135.116  0.00  0.00    +0.000 C 
BRANCH  27  30
ATOM     29  O   UNL     1     108.944 127.314 135.397  0.00  0.00    +0.000 OA
ATOM     30  C   UNL     1     108.899 127.940 135.933  0.00  0.00    +0.000 C 
ENDBRANCH  27  30
ENDBRANCH  19  28
ENDBRANCH   2  19
TORSDOF 7
ENDMDL
MODEL 8
REMARK VINA RESULT:      -8.0      3.462      5.132
REMARK  Name = 21722183
REMARK  7 active torsions:
REMARK  status: ('A' for Active; 'I' for Inactive)
REMARK    1  A    between atoms: O_2  and  C_14
REMARK    2  A    between atoms: O_2  and  C_16
REMARK    3  A    between atoms: C_13  and  C_15
REMARK    4  A    between atoms: C_19  and  C_23
REMARK    5  A    between atoms: C_22  and  C_23
REMARK    6  A    between atoms: C_22  and  C_24
REMARK    7  A    between atoms: C_24  and  C_25
REMARK                            x       y       z     vdW  Elec       q    Type
REMARK                         _______ _______ _______ _____ _____    ______ ____
ROOT
ATOM      1  O   UNL     1     113.698 125.597 138.334  0.00  0.00    +0.000 OA
ATOM      2  C   UNL     1     113.287 127.284 139.658  0.00  0.00    +0.000 A 
ATOM      3  C   UNL     1     113.522 126.537 139.396  0.00  0.00    +0.000 A 
ATOM      4  C   UNL     1     112.993 127.836 139.120  0.00  0.00    +0.000 A 
ATOM      5  C   UNL     1     113.170 126.896 138.058  0.00  0.00    +0.000 A 
ATOM      6  C   UNL     1     113.463 126.343 138.597  0.00  0.00    +0.000 A 
ATOM      7  C   UNL     1     112.935 127.642 138.321  0.00  0.00    +0.000 A 
ENDROOT
BRANCH   5   9
ATOM      8  O   UNL     1     113.792 126.655 136.795  0.00  0.00    +0.000 OA
ATOM      9  C   UNL     1     113.111 126.703 137.258  0.00  0.00    +0.000 C 
BRANCH   9  10
ATOM     10  C   UNL     1     112.373 126.557 136.923  0.00  0.00    +0.000 C 
BRANCH  10  11
ATOM     11  C   UNL     1     112.308 126.418 136.112  0.00  0.00    +0.000 C 
BRANCH  11  13
ATOM     12  O   UNL     1     109.368 125.721 134.785  0.00  0.00    +0.000 OA
ATOM     13  C   UNL     1     111.573 126.243 135.780  0.00  0.00    +0.000 A 
ATOM     14  C   UNL     1     111.280 125.472 135.807  0.00  0.00    +0.000 A 
ATOM     15  C   UNL     1     111.131 126.840 135.421  0.00  0.00    +0.000 A 
ATOM     16  C   UNL     1     110.546 125.298 135.475  0.00  0.00    +0.000 A 
ATOM     17  C   UNL     1     110.395 126.666 135.089  0.00  0.00    +0.000 A 
ATOM     18  C   UNL     1     110.103 125.895 135.116  0.00  0.00    +0.000 A 
ENDBRANCH  11  13
ENDBRANCH  10  11
ENDBRANCH   9  10
ENDBRANCH   5   9
BRANCH   2  19
ATOM     19  O   UNL     1     113.345 127.477 140.458  0.00  0.00    +0.000 OA
BRANCH  19  28
ATOM     20  O   UNL     1     112.040 127.028 140.828  0.00  0.00    +0.000 OA
ATOM     21  O   UNL     1     111.856 128.895 142.443  0.00  0.00    +0.000 OA
ATOM     22  O   UNL     1     110.613 127.823 142.276  0.00  0.00    +0.000 OA
ATOM     23  O   UNL     1     113.222 128.722 141.534  0.00  0.00    +0.000 OA
ATOM     24  C   UNL     1     111.918 128.272 141.905  0.00  0.00    +0.000 C 
ATOM     25  C   UNL     1     111.296 127.737 141.821  0.00  0.00    +0.000 C 
ATOM     26  C   UNL     1     112.600 128.186 141.451  0.00  0.00    +0.000 C 
ATOM     27  C   UNL     1     111.358 127.115 141.283  0.00  0.00    +0.000 C 
ATOM     28  C   UNL     1     112.661 127.564 140.912  0.00  0.00    +0.000 C 
BRANCH  27  30
ATOM     29  O   UNL     1     110.870 125.771 141.303  0.00  0.00    +0.000 OA
ATOM     30  C   UNL     1     110.735 126.579 141.199  0.00  0.00    +0.000 C 
ENDBRANCH  27  30
ENDBRANCH  19  28
ENDBRANCH   2  19
TORSDOF 7
ENDMDL
MODEL 9
REMARK VINA RESULT:      -8.0      9.704     11.560
REMARK  Name = 21722183
REMARK  7 active torsions:
REMARK  status: ('A' for Active; 'I' for Inactive)
REMARK    1  A    between atoms: O_2  and  C_14
REMARK    2  A    between atoms: O_2  and  C_16
REMARK    3  A    between atoms: C_13  and  C_15
REMARK    4  A    between atoms: C_19  and  C_23
REMARK    5  A    between atoms: C_22  and  C_23
REMARK    6  A    between atoms: C_22  and  C_24
REMARK    7  A    between atoms: C_24  and  C_25
REMARK                            x       y       z     vdW  Elec       q    Type
REMARK                         _______ _______ _______ _____ _____    ______ ____
ROOT
ATOM      1  O   UNL     1     106.514 125.704 143.706  0.00  0.00    +0.000 OA
ATOM      2  C   UNL     1     105.513 125.459 145.630  0.00  0.00    +0.000 A 
ATOM      3  C   UNL     1     105.937 125.284 144.944  0.00  0.00    +0.000 A 
ATOM      4  C   UNL     1     105.241 126.226 145.763  0.00  0.00    +0.000 A 
ATOM      5  C   UNL     1     105.818 126.646 144.524  0.00  0.00    +0.000 A 
ATOM      6  C   UNL     1     106.090 125.877 144.391  0.00  0.00    +0.000 A 
ATOM      7  C   UNL     1     105.394 126.819 145.210  0.00  0.00    +0.000 A 
ENDROOT
BRANCH   5   9
ATOM      8  O   UNL     1     106.737 127.531 143.882  0.00  0.00    +0.000 OA
ATOM      9  C   UNL     1     105.970 127.239 143.971  0.00  0.00    +0.000 C 
BRANCH   9  10
ATOM     10  C   UNL     1     105.357 127.539 143.509  0.00  0.00    +0.000 C 
BRANCH  10  11
ATOM     11  C   UNL     1     105.491 128.188 143.018  0.00  0.00    +0.000 C 
BRANCH  11  13
ATOM     12  O   UNL     1     103.056 129.347 141.116  0.00  0.00    +0.000 OA
ATOM     13  C   UNL     1     104.882 128.478 142.542  0.00  0.00    +0.000 A 
ATOM     14  C   UNL     1     104.728 128.129 141.810  0.00  0.00    +0.000 A 
ATOM     15  C   UNL     1     104.427 129.117 142.798  0.00  0.00    +0.000 A 
ATOM     16  C   UNL     1     104.120 128.419 141.335  0.00  0.00    +0.000 A 
ATOM     17  C   UNL     1     103.818 129.407 142.322  0.00  0.00    +0.000 A 
ATOM     18  C   UNL     1     103.664 129.058 141.591  0.00  0.00    +0.000 A 
ENDBRANCH  11  13
ENDBRANCH  10  11
ENDBRANCH   9  10
ENDBRANCH   5   9
BRANCH   2  19
ATOM     19  O   UNL     1     105.360 124.866 146.183  0.00  0.00    +0.000 OA
BRANCH  19  28
ATOM     20  O   UNL     1     106.590 124.972 146.902  0.00  0.00    +0.000 OA
ATOM     21  O   UNL     1     105.385 124.561 149.024  0.00  0.00    +0.000 OA
ATOM     22  O   UNL     1     107.017 124.804 149.036  0.00  0.00    +0.000 OA
ATOM     23  O   UNL     1     104.557 124.592 147.597  0.00  0.00    +0.000 OA
ATOM     24  C   UNL     1     105.787 124.698 148.317  0.00  0.00    +0.000 C 
ATOM     25  C   UNL     1     106.602 124.820 148.323  0.00  0.00    +0.000 C 
ATOM     26  C   UNL     1     105.373 124.714 147.604  0.00  0.00    +0.000 C 
ATOM     27  C   UNL     1     107.004 124.957 147.615  0.00  0.00    +0.000 C 
ATOM     28  C   UNL     1     105.775 124.851 146.897  0.00  0.00    +0.000 C 
BRANCH  27  30
ATOM     29  O   UNL     1     108.134 125.786 147.337  0.00  0.00    +0.000 OA
ATOM     30  C   UNL     1     107.821 125.078 147.621  0.00  0.00    +0.000 C 
ENDBRANCH  27  30
ENDBRANCH  19  28
ENDBRANCH   2  19
TORSDOF 7
ENDMDL
MODEL 10
REMARK VINA RESULT:      -7.9      1.355      5.373
REMARK  Name = 21722183
REMARK  7 active torsions:
REMARK  status: ('A' for Active; 'I' for Inactive)
REMARK    1  A    between atoms: O_2  and  C_14
REMARK    2  A    between atoms: O_2  and  C_16
REMARK    3  A    between atoms: C_13  and  C_15
REMARK    4  A    between atoms: C_19  and  C_23
REMARK    5  A    between atoms: C_22  and  C_23
REMARK    6  A    between atoms: C_22  and  C_24
REMARK    7  A    between atoms: C_24  and  C_25
REMARK                            x       y       z     vdW  Elec       q    Type
REMARK                         _______ _______ _______ _____ _____    ______ ____
ROOT
ATOM      1  O   UNL     1     110.794 125.719 134.726  0.00  0.00    +0.000 OA
ATOM      2  C   UNL     1     111.249 125.063 136.757  0.00  0.00    +0.000 A 
ATOM      3  C   UNL     1     111.288 125.142 135.937  0.00  0.00    +0.000 A 
ATOM      4  C   UNL     1     110.681 125.478 137.186  0.00  0.00    +0.000 A 
ATOM      5  C   UNL     1     110.188 126.055 135.975  0.00  0.00    +0.000 A 
ATOM      6  C   UNL     1     110.757 125.638 135.546  0.00  0.00    +0.000 A 
ATOM      7  C   UNL     1     110.150 125.974 136.795  0.00  0.00    +0.000 A 
ENDROOT
BRANCH   5   9
ATOM      8  O   UNL     1     109.051 126.227 135.127  0.00  0.00    +0.000 OA
ATOM      9  C   UNL     1     109.657 126.550 135.584  0.00  0.00    +0.000 C 
BRANCH   9  10
ATOM     10  C   UNL     1     109.732 127.369 135.650  0.00  0.00    +0.000 C 
BRANCH  10  11
ATOM     11  C   UNL     1     109.145 127.863 135.346  0.00  0.00    +0.000 C 
BRANCH  11  13
ATOM     12  O   UNL     1     109.491 131.140 135.523  0.00  0.00    +0.000 OA
ATOM     13  C   UNL     1     109.232 128.683 135.390  0.00  0.00    +0.000 A 
ATOM     14  C   UNL     1     109.755 129.070 134.883  0.00  0.00    +0.000 A 
ATOM     15  C   UNL     1     108.795 129.114 135.941  0.00  0.00    +0.000 A 
ATOM     16  C   UNL     1     109.841 129.889 134.927  0.00  0.00    +0.000 A 
ATOM     17  C   UNL     1     108.882 129.934 135.985  0.00  0.00    +0.000 A 
ATOM     18  C   UNL     1     109.405 130.321 135.478  0.00  0.00    +0.000 A 
ENDBRANCH  11  13
ENDBRANCH  10  11
ENDBRANCH   9  10
ENDBRANCH   5   9
BRANCH   2  19
ATOM     19  O   UNL     1     111.780 124.567 137.148  0.00  0.00    +0.000 OA
BRANCH  19  28
ATOM     20  O   UNL     1     112.560 125.530 137.860  0.00  0.00    +0.000 OA
ATOM     21  O   UNL     1     114.631 124.374 137.156  0.00  0.00    +0.000 OA
ATOM     22  O   UNL     1     114.720 125.722 138.103  0.00  0.00    +0.000 OA
ATOM     23  O   UNL     1     113.161 123.796 136.679  0.00  0.00    +0.000 OA
ATOM     24  C   UNL     1     113.941 124.759 137.391  0.00  0.00    +0.000 C 
ATOM     25  C   UNL     1     113.985 125.433 137.864  0.00  0.00    +0.000 C 
ATOM     26  C   UNL     1     113.206 124.471 137.152  0.00  0.00    +0.000 C 
ATOM     27  C   UNL     1     113.295 125.818 138.099  0.00  0.00    +0.000 C 
ATOM     28  C   UNL     1     112.516 124.856 137.387  0.00  0.00    +0.000 C 
BRANCH  27  30
ATOM     29  O   UNL     1     112.959 126.509 139.305  0.00  0.00    +0.000 OA
ATOM     30  C   UNL     1     113.339 126.493 138.573  0.00  0.00    +0.000 C 
ENDBRANCH  27  30
ENDBRANCH  19  28
ENDBRANCH   2  19
TORSDOF 7
ENDMDL
