MODEL 1
REMARK VINA RESULT:     -10.9      0.000      0.000
REMARK  Name = 44258595
REMARK  7 active torsions:
REMARK  status: ('A' for Active; 'I' for Inactive)
REMARK    1  A    between atoms: O_3  and  C_26
REMARK    2  A    between atoms: O_3  and  C_32
REMARK    3  A    between atoms: O_5  and  C_29
REMARK    4  A    between atoms: O_5  and  C_33
REMARK    5  A    between atoms: C_27  and  C_30
REMARK    6  A    between atoms: C_28  and  C_31
REMARK    7  A    between atoms: C_39  and  C_40
REMARK                            x       y       z     vdW  Elec       q    Type
REMARK                         _______ _______ _______ _____ _____    ______ ____
ROOT
ATOM      1  O   UNL     1     112.846 125.843 138.510  0.00  0.00    +0.000 OA
ATOM      2  O   UNL     1     111.292 123.852 137.125  0.00  0.00    +0.000 OA
ATOM      3  O   UNL     1     113.941 124.442 136.226  0.00  0.00    +0.000 OA
ATOM      4  O   UNL     1     114.751 125.433 136.893  0.00  0.00    +0.000 OA
ATOM      5  C   UNL     1     112.074 124.837 137.803  0.00  0.00    +0.000 A 
ATOM      6  C   UNL     1     112.776 125.265 137.879  0.00  0.00    +0.000 A 
ATOM      7  C   UNL     1     111.995 124.279 137.201  0.00  0.00    +0.000 A 
ATOM      8  C   UNL     1     113.398 125.133 137.354  0.00  0.00    +0.000 A 
ATOM      9  C   UNL     1     113.575 126.291 138.595  0.00  0.00    +0.000 A 
ATOM     10  C   UNL     1     113.318 124.574 136.752  0.00  0.00    +0.000 A 
ATOM     11  C   UNL     1     112.617 124.147 136.676  0.00  0.00    +0.000 A 
ATOM     12  C   UNL     1     114.134 125.571 137.423  0.00  0.00    +0.000 A 
ATOM     13  C   UNL     1     114.223 126.154 138.048  0.00  0.00    +0.000 A 
ENDROOT
BRANCH   9  18
ATOM     14  O   UNL     1     114.480 126.998 141.213  0.00  0.00    +0.000 OA
ATOM     15  C   UNL     1     113.806 127.965 140.404  0.00  0.00    +0.000 A 
ATOM     16  C   UNL     1     114.105 127.202 140.507  0.00  0.00    +0.000 A 
ATOM     17  C   UNL     1     113.431 128.170 139.698  0.00  0.00    +0.000 A 
ATOM     18  C   UNL     1     113.652 126.850 139.198  0.00  0.00    +0.000 A 
ATOM     19  C   UNL     1     114.027 126.645 139.904  0.00  0.00    +0.000 A 
ATOM     20  C   UNL     1     113.354 127.612 139.095  0.00  0.00    +0.000 A 
BRANCH  15  21
ATOM     21  O   UNL     1     113.883 128.523 141.006  0.00  0.00    +0.000 OA
BRANCH  21  30
ATOM     22  O   UNL     1     112.557 128.460 141.535  0.00  0.00    +0.000 OA
ATOM     23  O   UNL     1     112.521 130.927 141.735  0.00  0.00    +0.000 OA
ATOM     24  O   UNL     1     111.206 130.043 142.197  0.00  0.00    +0.000 OA
ATOM     25  O   UNL     1     113.859 130.167 141.140  0.00  0.00    +0.000 OA
ATOM     26  C   UNL     1     112.533 130.105 141.668  0.00  0.00    +0.000 C 
ATOM     27  C   UNL     1     111.876 129.663 141.899  0.00  0.00    +0.000 C 
ATOM     28  C   UNL     1     113.202 129.725 141.371  0.00  0.00    +0.000 C 
ATOM     29  C   UNL     1     111.888 128.841 141.832  0.00  0.00    +0.000 C 
ATOM     30  C   UNL     1     113.214 128.903 141.304  0.00  0.00    +0.000 C 
BRANCH  29  33
ATOM     31  O   UNL     1     110.610 128.275 141.534  0.00  0.00    +0.000 OA
ATOM     32  O   UNL     1     111.194 128.080 142.823  0.00  0.00    +0.000 OA
ATOM     33  C   UNL     1     111.231 128.399 142.063  0.00  0.00    +0.000 C 
ENDBRANCH  29  33
ENDBRANCH  21  30
ENDBRANCH  15  21
ENDBRANCH   9  18
BRANCH   5  34
ATOM     34  O   UNL     1     111.452 124.969 138.328  0.00  0.00    +0.000 OA
BRANCH  34  42
ATOM     35  O   UNL     1     110.816 125.818 137.370  0.00  0.00    +0.000 OA
ATOM     36  O   UNL     1     109.103 126.429 139.049  0.00  0.00    +0.000 OA
ATOM     37  O   UNL     1     110.310 125.376 139.447  0.00  0.00    +0.000 OA
ATOM     38  O   UNL     1     109.039 127.073 137.532  0.00  0.00    +0.000 OA
ATOM     39  C   UNL     1     109.674 126.225 138.489  0.00  0.00    +0.000 C 
ATOM     40  C   UNL     1     110.278 125.699 138.689  0.00  0.00    +0.000 C 
ATOM     41  C   UNL     1     109.642 126.547 137.731  0.00  0.00    +0.000 C 
ATOM     42  C   UNL     1     110.849 125.495 138.129  0.00  0.00    +0.000 C 
ATOM     43  C   UNL     1     110.212 126.344 137.171  0.00  0.00    +0.000 C 
BRANCH  43  46
ATOM     44  O   UNL     1     110.618 127.342 136.233  0.00  0.00    +0.000 OA
ATOM     45  O   UNL     1     109.712 126.312 135.834  0.00  0.00    +0.000 OA
ATOM     46  C   UNL     1     110.180 126.666 136.413  0.00  0.00    +0.000 C 
ENDBRANCH  43  46
ENDBRANCH  34  42
ENDBRANCH   5  34
TORSDOF 7
ENDMDL
MODEL 2
REMARK VINA RESULT:     -10.8      2.607      3.645
REMARK  Name = 44258595
REMARK  7 active torsions:
REMARK  status: ('A' for Active; 'I' for Inactive)
REMARK    1  A    between atoms: O_3  and  C_26
REMARK    2  A    between atoms: O_3  and  C_32
REMARK    3  A    between atoms: O_5  and  C_29
REMARK    4  A    between atoms: O_5  and  C_33
REMARK    5  A    between atoms: C_27  and  C_30
REMARK    6  A    between atoms: C_28  and  C_31
REMARK    7  A    between atoms: C_39  and  C_40
REMARK                            x       y       z     vdW  Elec       q    Type
REMARK                         _______ _______ _______ _____ _____    ______ ____
ROOT
ATOM      1  O   UNL     1     112.645 126.394 136.566  0.00  0.00    +0.000 OA
ATOM      2  O   UNL     1     111.396 123.798 136.613  0.00  0.00    +0.000 OA
ATOM      3  O   UNL     1     114.189 124.023 137.178  0.00  0.00    +0.000 OA
ATOM      4  O   UNL     1     114.852 125.305 137.165  0.00  0.00    +0.000 OA
ATOM      5  C   UNL     1     112.028 125.080 136.593  0.00  0.00    +0.000 A 
ATOM      6  C   UNL     1     112.704 125.545 136.681  0.00  0.00    +0.000 A 
ATOM      7  C   UNL     1     112.073 124.263 136.701  0.00  0.00    +0.000 A 
ATOM      8  C   UNL     1     113.425 125.193 136.876  0.00  0.00    +0.000 A 
ATOM      9  C   UNL     1     113.346 126.884 136.656  0.00  0.00    +0.000 A 
ATOM     10  C   UNL     1     113.468 124.376 136.983  0.00  0.00    +0.000 A 
ATOM     11  C   UNL     1     112.793 123.911 136.896  0.00  0.00    +0.000 A 
ATOM     12  C   UNL     1     114.136 125.665 136.970  0.00  0.00    +0.000 A 
ATOM     13  C   UNL     1     114.096 126.517 136.859  0.00  0.00    +0.000 A 
ENDROOT
BRANCH   9  18
ATOM     14  O   UNL     1     113.516 129.167 134.945  0.00  0.00    +0.000 OA
ATOM     15  C   UNL     1     113.206 129.334 136.331  0.00  0.00    +0.000 A 
ATOM     16  C   UNL     1     113.384 128.842 135.692  0.00  0.00    +0.000 A 
ATOM     17  C   UNL     1     113.074 129.008 137.077  0.00  0.00    +0.000 A 
ATOM     18  C   UNL     1     113.299 127.700 136.548  0.00  0.00    +0.000 A 
ATOM     19  C   UNL     1     113.431 128.026 135.801  0.00  0.00    +0.000 A 
ATOM     20  C   UNL     1     113.121 128.192 137.186  0.00  0.00    +0.000 A 
BRANCH  15  21
ATOM     21  O   UNL     1     113.159 130.149 136.222  0.00  0.00    +0.000 OA
BRANCH  21  30
ATOM     22  O   UNL     1     111.737 130.269 136.151  0.00  0.00    +0.000 OA
ATOM     23  O   UNL     1     111.840 132.323 137.527  0.00  0.00    +0.000 OA
ATOM     24  O   UNL     1     110.383 131.758 136.997  0.00  0.00    +0.000 OA
ATOM     25  O   UNL     1     113.228 131.519 137.140  0.00  0.00    +0.000 OA
ATOM     26  C   UNL     1     111.805 131.638 137.068  0.00  0.00    +0.000 C 
ATOM     27  C   UNL     1     111.078 131.356 136.803  0.00  0.00    +0.000 C 
ATOM     28  C   UNL     1     112.499 131.237 136.875  0.00  0.00    +0.000 C 
ATOM     29  C   UNL     1     111.043 130.671 136.345  0.00  0.00    +0.000 C 
ATOM     30  C   UNL     1     112.465 130.552 136.416  0.00  0.00    +0.000 C 
BRANCH  29  33
ATOM     31  O   UNL     1     109.852 129.915 136.572  0.00  0.00    +0.000 OA
ATOM     32  O   UNL     1     110.049 130.580 135.323  0.00  0.00    +0.000 OA
ATOM     33  C   UNL     1     110.315 130.389 136.080  0.00  0.00    +0.000 C 
ENDBRANCH  29  33
ENDBRANCH  21  30
ENDBRANCH  15  21
ENDBRANCH   9  18
BRANCH   5  34
ATOM     34  O   UNL     1     111.309 125.432 136.398  0.00  0.00    +0.000 OA
BRANCH  34  42
ATOM     35  O   UNL     1     110.976 125.526 137.785  0.00  0.00    +0.000 OA
ATOM     36  O   UNL     1     108.910 126.761 137.205  0.00  0.00    +0.000 OA
ATOM     37  O   UNL     1     109.932 126.255 136.012  0.00  0.00    +0.000 OA
ATOM     38  O   UNL     1     109.266 126.443 138.784  0.00  0.00    +0.000 OA
ATOM     39  C   UNL     1     109.599 126.349 137.398  0.00  0.00    +0.000 C 
ATOM     40  C   UNL     1     110.109 126.096 136.801  0.00  0.00    +0.000 C 
ATOM     41  C   UNL     1     109.776 126.190 138.188  0.00  0.00    +0.000 C 
ATOM     42  C   UNL     1     110.798 125.685 136.994  0.00  0.00    +0.000 C 
ATOM     43  C   UNL     1     110.465 125.779 138.381  0.00  0.00    +0.000 C 
BRANCH  43  46
ATOM     44  O   UNL     1     111.153 126.118 139.586  0.00  0.00    +0.000 OA
ATOM     45  O   UNL     1     110.313 124.963 139.544  0.00  0.00    +0.000 OA
ATOM     46  C   UNL     1     110.643 125.619 139.170  0.00  0.00    +0.000 C 
ENDBRANCH  43  46
ENDBRANCH  34  42
ENDBRANCH   5  34
TORSDOF 7
ENDMDL
MODEL 3
REMARK VINA RESULT:     -10.5      3.386      6.743
REMARK  Name = 44258595
REMARK  7 active torsions:
REMARK  status: ('A' for Active; 'I' for Inactive)
REMARK    1  A    between atoms: O_3  and  C_26
REMARK    2  A    between atoms: O_3  and  C_32
REMARK    3  A    between atoms: O_5  and  C_29
REMARK    4  A    between atoms: O_5  and  C_33
REMARK    5  A    between atoms: C_27  and  C_30
REMARK    6  A    between atoms: C_28  and  C_31
REMARK    7  A    between atoms: C_39  and  C_40
REMARK                            x       y       z     vdW  Elec       q    Type
REMARK                         _______ _______ _______ _____ _____    ______ ____
ROOT
ATOM      1  O   UNL     1     109.903 130.346 136.504  0.00  0.00    +0.000 OA
ATOM      2  O   UNL     1     110.601 132.709 137.998  0.00  0.00    +0.000 OA
ATOM      3  O   UNL     1     109.452 132.981 135.394  0.00  0.00    +0.000 OA
ATOM      4  O   UNL     1     109.089 131.822 134.614  0.00  0.00    +0.000 OA
ATOM      5  C   UNL     1     110.250 131.545 137.246  0.00  0.00    +0.000 A 
ATOM      6  C   UNL     1     109.942 131.202 136.561  0.00  0.00    +0.000 A 
ATOM      7  C   UNL     1     110.292 132.366 137.313  0.00  0.00    +0.000 A 
ATOM      8  C   UNL     1     109.676 131.681 135.944  0.00  0.00    +0.000 A 
ATOM      9  C   UNL     1     109.583 129.983 135.793  0.00  0.00    +0.000 A 
ATOM     10  C   UNL     1     109.718 132.502 136.012  0.00  0.00    +0.000 A 
ATOM     11  C   UNL     1     110.026 132.845 136.696  0.00  0.00    +0.000 A 
ATOM     12  C   UNL     1     109.353 131.337 135.227  0.00  0.00    +0.000 A 
ATOM     13  C   UNL     1     109.306 130.481 135.150  0.00  0.00    +0.000 A 
ENDROOT
BRANCH   9  18
ATOM     14  O   UNL     1     108.101 127.552 136.047  0.00  0.00    +0.000 OA
ATOM     15  C   UNL     1     109.458 127.518 135.600  0.00  0.00    +0.000 A 
ATOM     16  C   UNL     1     108.800 127.946 135.856  0.00  0.00    +0.000 A 
ATOM     17  C   UNL     1     110.157 127.912 135.408  0.00  0.00    +0.000 A 
ATOM     18  C   UNL     1     109.541 129.162 135.729  0.00  0.00    +0.000 A 
ATOM     19  C   UNL     1     108.842 128.767 135.920  0.00  0.00    +0.000 A 
ATOM     20  C   UNL     1     110.198 128.734 135.473  0.00  0.00    +0.000 A 
BRANCH  15  21
ATOM     21  O   UNL     1     109.416 126.698 135.535  0.00  0.00    +0.000 OA
BRANCH  21  30
ATOM     22  O   UNL     1     110.080 126.360 136.755  0.00  0.00    +0.000 OA
ATOM     23  O   UNL     1     111.281 124.533 135.596  0.00  0.00    +0.000 OA
ATOM     24  O   UNL     1     111.545 124.804 137.202  0.00  0.00    +0.000 OA
ATOM     25  O   UNL     1     110.217 125.479 134.763  0.00  0.00    +0.000 OA
ATOM     26  C   UNL     1     110.881 125.142 135.983  0.00  0.00    +0.000 C 
ATOM     27  C   UNL     1     111.012 125.278 136.785  0.00  0.00    +0.000 C 
ATOM     28  C   UNL     1     110.349 125.615 135.566  0.00  0.00    +0.000 C 
ATOM     29  C   UNL     1     110.612 125.887 137.171  0.00  0.00    +0.000 C 
ATOM     30  C   UNL     1     109.949 126.224 135.952  0.00  0.00    +0.000 C 
BRANCH  29  33
ATOM     31  O   UNL     1     110.242 125.688 138.537  0.00  0.00    +0.000 OA
ATOM     32  O   UNL     1     111.379 126.492 138.215  0.00  0.00    +0.000 OA
ATOM     33  C   UNL     1     110.744 126.022 137.974  0.00  0.00    +0.000 C 
ENDBRANCH  29  33
ENDBRANCH  21  30
ENDBRANCH  15  21
ENDBRANCH   9  18
BRANCH   5  34
ATOM     34  O   UNL     1     110.515 131.067 137.863  0.00  0.00    +0.000 OA
BRANCH  34  42
ATOM     35  O   UNL     1     111.842 131.078 137.331  0.00  0.00    +0.000 OA
ATOM     36  O   UNL     1     112.703 130.151 139.459  0.00  0.00    +0.000 OA
ATOM     37  O   UNL     1     111.089 130.449 139.281  0.00  0.00    +0.000 OA
ATOM     38  O   UNL     1     113.741 130.472 138.218  0.00  0.00    +0.000 OA
ATOM     39  C   UNL     1     112.416 130.460 138.749  0.00  0.00    +0.000 C 
ATOM     40  C   UNL     1     111.609 130.609 138.661  0.00  0.00    +0.000 C 
ATOM     41  C   UNL     1     112.935 130.620 138.129  0.00  0.00    +0.000 C 
ATOM     42  C   UNL     1     111.322 130.918 137.952  0.00  0.00    +0.000 C 
ATOM     43  C   UNL     1     112.648 130.929 137.420  0.00  0.00    +0.000 C 
BRANCH  43  46
ATOM     44  O   UNL     1     113.298 130.521 136.215  0.00  0.00    +0.000 OA
ATOM     45  O   UNL     1     113.555 131.816 136.763  0.00  0.00    +0.000 OA
ATOM     46  C   UNL     1     113.167 131.089 136.800  0.00  0.00    +0.000 C 
ENDBRANCH  43  46
ENDBRANCH  34  42
ENDBRANCH   5  34
TORSDOF 7
ENDMDL
MODEL 4
REMARK VINA RESULT:     -10.4      2.159      5.130
REMARK  Name = 44258595
REMARK  7 active torsions:
REMARK  status: ('A' for Active; 'I' for Inactive)
REMARK    1  A    between atoms: O_3  and  C_26
REMARK    2  A    between atoms: O_3  and  C_32
REMARK    3  A    between atoms: O_5  and  C_29
REMARK    4  A    between atoms: O_5  and  C_33
REMARK    5  A    between atoms: C_27  and  C_30
REMARK    6  A    between atoms: C_28  and  C_31
REMARK    7  A    between atoms: C_39  and  C_40
REMARK                            x       y       z     vdW  Elec       q    Type
REMARK                         _______ _______ _______ _____ _____    ______ ____
ROOT
ATOM      1  O   UNL     1     110.964 128.883 138.484  0.00  0.00    +0.000 OA
ATOM      2  O   UNL     1     108.580 130.354 137.810  0.00  0.00    +0.000 OA
ATOM      3  O   UNL     1     110.743 131.702 139.105  0.00  0.00    +0.000 OA
ATOM      4  O   UNL     1     111.954 131.000 139.459  0.00  0.00    +0.000 OA
ATOM      5  C   UNL     1     109.768 129.636 138.150  0.00  0.00    +0.000 A 
ATOM      6  C   UNL     1     110.525 129.622 138.479  0.00  0.00    +0.000 A 
ATOM      7  C   UNL     1     109.337 130.340 138.139  0.00  0.00    +0.000 A 
ATOM      8  C   UNL     1     110.850 130.310 138.797  0.00  0.00    +0.000 A 
ATOM      9  C   UNL     1     111.753 128.861 138.826  0.00  0.00    +0.000 A 
ATOM     10  C   UNL     1     110.418 131.013 138.786  0.00  0.00    +0.000 A 
ATOM     11  C   UNL     1     109.662 131.028 138.457  0.00  0.00    +0.000 A 
ATOM     12  C   UNL     1     111.636 130.308 139.143  0.00  0.00    +0.000 A 
ATOM     13  C   UNL     1     112.091 129.578 139.157  0.00  0.00    +0.000 A 
ENDROOT
BRANCH   9  18
ATOM     14  O   UNL     1     112.365 126.353 140.051  0.00  0.00    +0.000 OA
ATOM     15  C   UNL     1     113.040 126.747 138.855  0.00  0.00    +0.000 A 
ATOM     16  C   UNL     1     112.488 126.903 139.449  0.00  0.00    +0.000 A 
ATOM     17  C   UNL     1     113.163 127.297 138.252  0.00  0.00    +0.000 A 
ATOM     18  C   UNL     1     112.182 128.157 138.835  0.00  0.00    +0.000 A 
ATOM     19  C   UNL     1     112.059 127.607 139.438  0.00  0.00    +0.000 A 
ATOM     20  C   UNL     1     112.734 128.001 138.242  0.00  0.00    +0.000 A 
BRANCH  15  21
ATOM     21  O   UNL     1     113.469 126.043 138.865  0.00  0.00    +0.000 OA
BRANCH  21  30
ATOM     22  O   UNL     1     112.775 125.332 137.838  0.00  0.00    +0.000 OA
ATOM     23  O   UNL     1     114.938 124.567 136.908  0.00  0.00    +0.000 OA
ATOM     24  O   UNL     1     113.524 124.110 136.190  0.00  0.00    +0.000 OA
ATOM     25  O   UNL     1     114.910 125.533 138.245  0.00  0.00    +0.000 OA
ATOM     26  C   UNL     1     114.217 124.822 137.218  0.00  0.00    +0.000 C 
ATOM     27  C   UNL     1     113.510 124.594 136.859  0.00  0.00    +0.000 C 
ATOM     28  C   UNL     1     114.203 125.305 137.886  0.00  0.00    +0.000 C 
ATOM     29  C   UNL     1     112.789 124.849 137.169  0.00  0.00    +0.000 C 
ATOM     30  C   UNL     1     113.483 125.560 138.196  0.00  0.00    +0.000 C 
BRANCH  29  33
ATOM     31  O   UNL     1     111.788 125.048 136.169  0.00  0.00    +0.000 OA
ATOM     32  O   UNL     1     111.670 123.964 137.092  0.00  0.00    +0.000 OA
ATOM     33  C   UNL     1     112.082 124.620 136.810  0.00  0.00    +0.000 C 
ENDBRANCH  29  33
ENDBRANCH  21  30
ENDBRANCH  15  21
ENDBRANCH   9  18
BRANCH   5  34
ATOM     34  O   UNL     1     109.443 128.949 137.832  0.00  0.00    +0.000 OA
BRANCH  34  42
ATOM     35  O   UNL     1     109.851 129.355 136.524  0.00  0.00    +0.000 OA
ATOM     36  O   UNL     1     109.116 127.172 135.616  0.00  0.00    +0.000 OA
ATOM     37  O   UNL     1     108.953 127.494 137.227  0.00  0.00    +0.000 OA
ATOM     38  O   UNL     1     109.769 128.306 134.612  0.00  0.00    +0.000 OA
ATOM     39  C   UNL     1     109.361 127.900 135.919  0.00  0.00    +0.000 C 
ATOM     40  C   UNL     1     109.279 128.060 136.725  0.00  0.00    +0.000 C 
ATOM     41  C   UNL     1     109.687 128.466 135.417  0.00  0.00    +0.000 C 
ATOM     42  C   UNL     1     109.524 128.788 137.027  0.00  0.00    +0.000 C 
ATOM     43  C   UNL     1     109.932 129.194 135.719  0.00  0.00    +0.000 C 
BRANCH  43  46
ATOM     44  O   UNL     1     111.078 129.812 135.129  0.00  0.00    +0.000 OA
ATOM     45  O   UNL     1     109.767 130.277 134.803  0.00  0.00    +0.000 OA
ATOM     46  C   UNL     1     110.258 129.761 135.217  0.00  0.00    +0.000 C 
ENDBRANCH  43  46
ENDBRANCH  34  42
ENDBRANCH   5  34
TORSDOF 7
ENDMDL
MODEL 5
REMARK VINA RESULT:     -10.3      7.647     10.684
REMARK  Name = 44258595
REMARK  7 active torsions:
REMARK  status: ('A' for Active; 'I' for Inactive)
REMARK    1  A    between atoms: O_3  and  C_26
REMARK    2  A    between atoms: O_3  and  C_32
REMARK    3  A    between atoms: O_5  and  C_29
REMARK    4  A    between atoms: O_5  and  C_33
REMARK    5  A    between atoms: C_27  and  C_30
REMARK    6  A    between atoms: C_28  and  C_31
REMARK    7  A    between atoms: C_39  and  C_40
REMARK                            x       y       z     vdW  Elec       q    Type
REMARK                         _______ _______ _______ _____ _____    ______ ____
ROOT
ATOM      1  O   UNL     1     105.798 125.200 146.863  0.00  0.00    +0.000 OA
ATOM      2  O   UNL     1     105.039 124.411 149.528  0.00  0.00    +0.000 OA
ATOM      3  O   UNL     1     107.802 124.824 148.918  0.00  0.00    +0.000 OA
ATOM      4  O   UNL     1     108.222 125.219 147.595  0.00  0.00    +0.000 OA
ATOM      5  C   UNL     1     105.429 124.802 148.210  0.00  0.00    +0.000 A 
ATOM      6  C   UNL     1     106.020 125.002 147.668  0.00  0.00    +0.000 A 
ATOM      7  C   UNL     1     105.630 124.611 148.987  0.00  0.00    +0.000 A 
ATOM      8  C   UNL     1     106.810 125.009 147.904  0.00  0.00    +0.000 A 
ATOM      9  C   UNL     1     106.409 125.408 146.294  0.00  0.00    +0.000 A 
ATOM     10  C   UNL     1     107.010 124.817 148.682  0.00  0.00    +0.000 A 
ATOM     11  C   UNL     1     106.421 124.618 149.222  0.00  0.00    +0.000 A 
ATOM     12  C   UNL     1     107.434 125.214 147.351  0.00  0.00    +0.000 A 
ATOM     13  C   UNL     1     107.232 125.415 146.540  0.00  0.00    +0.000 A 
ENDROOT
BRANCH   9  18
ATOM     14  O   UNL     1     105.843 124.597 143.612  0.00  0.00    +0.000 OA
ATOM     15  C   UNL     1     105.799 125.982 143.964  0.00  0.00    +0.000 A 
ATOM     16  C   UNL     1     105.923 125.193 144.177  0.00  0.00    +0.000 A 
ATOM     17  C   UNL     1     105.879 126.578 144.529  0.00  0.00    +0.000 A 
ATOM     18  C   UNL     1     106.205 125.599 145.518  0.00  0.00    +0.000 A 
ATOM     19  C   UNL     1     106.126 125.003 144.953  0.00  0.00    +0.000 A 
ATOM     20  C   UNL     1     106.082 126.386 145.305  0.00  0.00    +0.000 A 
BRANCH  15  21
ATOM     21  O   UNL     1     105.596 126.172 143.189  0.00  0.00    +0.000 OA
BRANCH  21  30
ATOM     22  O   UNL     1     106.865 126.691 142.786  0.00  0.00    +0.000 OA
ATOM     23  O   UNL     1     105.727 128.467 141.491  0.00  0.00    +0.000 OA
ATOM     24  O   UNL     1     107.375 128.395 141.519  0.00  0.00    +0.000 OA
ATOM     25  O   UNL     1     104.838 127.357 142.326  0.00  0.00    +0.000 OA
ATOM     26  C   UNL     1     106.107 127.876 141.923  0.00  0.00    +0.000 C 
ATOM     27  C   UNL     1     106.930 127.839 141.937  0.00  0.00    +0.000 C 
ATOM     28  C   UNL     1     105.662 127.320 142.339  0.00  0.00    +0.000 C 
ATOM     29  C   UNL     1     107.309 127.247 142.368  0.00  0.00    +0.000 C 
ATOM     30  C   UNL     1     106.040 126.728 142.771  0.00  0.00    +0.000 C 
BRANCH  29  33
ATOM     31  O   UNL     1     108.528 126.628 141.952  0.00  0.00    +0.000 OA
ATOM     32  O   UNL     1     108.563 127.758 142.826  0.00  0.00    +0.000 OA
ATOM     33  C   UNL     1     108.134 127.211 142.382  0.00  0.00    +0.000 C 
ENDBRANCH  29  33
ENDBRANCH  21  30
ENDBRANCH  15  21
ENDBRANCH   9  18
BRANCH   5  34
ATOM     34  O   UNL     1     104.639 124.795 147.974  0.00  0.00    +0.000 OA
BRANCH  34  42
ATOM     35  O   UNL     1     104.482 126.163 148.358  0.00  0.00    +0.000 OA
ATOM     36  O   UNL     1     102.021 125.907 148.260  0.00  0.00    +0.000 OA
ATOM     37  O   UNL     1     103.000 124.625 147.909  0.00  0.00    +0.000 OA
ATOM     38  O   UNL     1     102.685 127.359 148.676  0.00  0.00    +0.000 OA
ATOM     39  C   UNL     1     102.842 125.992 148.293  0.00  0.00    +0.000 C 
ATOM     40  C   UNL     1     103.330 125.351 148.117  0.00  0.00    +0.000 C 
ATOM     41  C   UNL     1     103.173 126.718 148.501  0.00  0.00    +0.000 C 
ATOM     42  C   UNL     1     104.150 125.436 148.150  0.00  0.00    +0.000 C 
ATOM     43  C   UNL     1     103.993 126.803 148.533  0.00  0.00    +0.000 C 
BRANCH  43  46
ATOM     44  O   UNL     1     104.520 128.076 148.154  0.00  0.00    +0.000 OA
ATOM     45  O   UNL     1     104.460 127.709 149.534  0.00  0.00    +0.000 OA
ATOM     46  C   UNL     1     104.324 127.529 148.741  0.00  0.00    +0.000 C 
ENDBRANCH  43  46
ENDBRANCH  34  42
ENDBRANCH   5  34
TORSDOF 7
ENDMDL
MODEL 6
REMARK VINA RESULT:     -10.3      2.725      5.924
REMARK  Name = 44258595
REMARK  7 active torsions:
REMARK  status: ('A' for Active; 'I' for Inactive)
REMARK    1  A    between atoms: O_3  and  C_26
REMARK    2  A    between atoms: O_3  and  C_32
REMARK    3  A    between atoms: O_5  and  C_29
REMARK    4  A    between atoms: O_5  and  C_33
REMARK    5  A    between atoms: C_27  and  C_30
REMARK    6  A    between atoms: C_28  and  C_31
REMARK    7  A    between atoms: C_39  and  C_40
REMARK                            x       y       z     vdW  Elec       q    Type
REMARK                         _______ _______ _______ _____ _____    ______ ____
ROOT
ATOM      1  O   UNL     1     110.113 129.300 137.462  0.00  0.00    +0.000 OA
ATOM      2  O   UNL     1     109.023 131.959 137.251  0.00  0.00    +0.000 OA
ATOM      3  O   UNL     1     107.874 129.843 135.710  0.00  0.00    +0.000 OA
ATOM      4  O   UNL     1     108.391 128.498 135.788  0.00  0.00    +0.000 OA
ATOM      5  C   UNL     1     109.554 130.635 137.346  0.00  0.00    +0.000 A 
ATOM      6  C   UNL     1     109.540 129.841 137.121  0.00  0.00    +0.000 A 
ATOM      7  C   UNL     1     109.009 131.164 137.026  0.00  0.00    +0.000 A 
ATOM      8  C   UNL     1     108.980 129.577 136.576  0.00  0.00    +0.000 A 
ATOM      9  C   UNL     1     110.104 128.472 137.231  0.00  0.00    +0.000 A 
ATOM     10  C   UNL     1     108.434 130.107 136.256  0.00  0.00    +0.000 A 
ATOM     11  C   UNL     1     108.449 130.900 136.481  0.00  0.00    +0.000 A 
ATOM     12  C   UNL     1     108.955 128.754 136.333  0.00  0.00    +0.000 A 
ATOM     13  C   UNL     1     109.520 128.197 136.663  0.00  0.00    +0.000 A 
ENDROOT
BRANCH   9  18
ATOM     14  O   UNL     1     110.838 126.604 139.266  0.00  0.00    +0.000 OA
ATOM     15  C   UNL     1     111.744 126.889 138.197  0.00  0.00    +0.000 A 
ATOM     16  C   UNL     1     111.017 127.010 138.571  0.00  0.00    +0.000 A 
ATOM     17  C   UNL     1     111.923 127.296 137.502  0.00  0.00    +0.000 A 
ATOM     18  C   UNL     1     110.650 127.944 137.553  0.00  0.00    +0.000 A 
ATOM     19  C   UNL     1     110.471 127.538 138.248  0.00  0.00    +0.000 A 
ATOM     20  C   UNL     1     111.376 127.823 137.181  0.00  0.00    +0.000 A 
BRANCH  15  21
ATOM     21  O   UNL     1     112.290 126.362 138.519  0.00  0.00    +0.000 OA
BRANCH  21  30
ATOM     22  O   UNL     1     112.098 125.240 137.655  0.00  0.00    +0.000 OA
ATOM     23  O   UNL     1     114.551 124.980 137.451  0.00  0.00    +0.000 OA
ATOM     24  O   UNL     1     113.543 123.945 136.655  0.00  0.00    +0.000 OA
ATOM     25  O   UNL     1     113.925 126.188 138.383  0.00  0.00    +0.000 OA
ATOM     26  C   UNL     1     113.733 125.067 137.519  0.00  0.00    +0.000 C 
ATOM     27  C   UNL     1     113.230 124.550 137.121  0.00  0.00    +0.000 C 
ATOM     28  C   UNL     1     113.421 125.671 137.985  0.00  0.00    +0.000 C 
ATOM     29  C   UNL     1     112.412 124.636 137.189  0.00  0.00    +0.000 C 
ATOM     30  C   UNL     1     112.603 125.758 138.053  0.00  0.00    +0.000 C 
BRANCH  29  33
ATOM     31  O   UNL     1     111.659 123.422 137.157  0.00  0.00    +0.000 OA
ATOM     32  O   UNL     1     111.653 124.297 136.027  0.00  0.00    +0.000 OA
ATOM     33  C   UNL     1     111.908 124.118 136.791  0.00  0.00    +0.000 C 
ENDBRANCH  29  33
ENDBRANCH  21  30
ENDBRANCH  15  21
ENDBRANCH   9  18
BRANCH   5  34
ATOM     34  O   UNL     1     110.114 130.899 137.891  0.00  0.00    +0.000 OA
BRANCH  34  42
ATOM     35  O   UNL     1     109.180 130.701 138.955  0.00  0.00    +0.000 OA
ATOM     36  O   UNL     1     110.755 131.773 140.536  0.00  0.00    +0.000 OA
ATOM     37  O   UNL     1     111.163 131.614 138.945  0.00  0.00    +0.000 OA
ATOM     38  O   UNL     1     109.297 131.217 141.072  0.00  0.00    +0.000 OA
ATOM     39  C   UNL     1     110.230 131.415 140.009  0.00  0.00    +0.000 C 
ATOM     40  C   UNL     1     110.435 131.336 139.213  0.00  0.00    +0.000 C 
ATOM     41  C   UNL     1     109.502 131.138 140.277  0.00  0.00    +0.000 C 
ATOM     42  C   UNL     1     109.910 130.979 138.686  0.00  0.00    +0.000 C 
ATOM     43  C   UNL     1     108.977 130.780 139.750  0.00  0.00    +0.000 C 
BRANCH  43  46
ATOM     44  O   UNL     1     108.152 129.702 140.197  0.00  0.00    +0.000 OA
ATOM     45  O   UNL     1     107.615 131.023 140.107  0.00  0.00    +0.000 OA
ATOM     46  C   UNL     1     108.248 130.502 140.018  0.00  0.00    +0.000 C 
ENDBRANCH  43  46
ENDBRANCH  34  42
ENDBRANCH   5  34
TORSDOF 7
ENDMDL
MODEL 7
REMARK VINA RESULT:     -10.3      2.954      4.935
REMARK  Name = 44258595
REMARK  7 active torsions:
REMARK  status: ('A' for Active; 'I' for Inactive)
REMARK    1  A    between atoms: O_3  and  C_26
REMARK    2  A    between atoms: O_3  and  C_32
REMARK    3  A    between atoms: O_5  and  C_29
REMARK    4  A    between atoms: O_5  and  C_33
REMARK    5  A    between atoms: C_27  and  C_30
REMARK    6  A    between atoms: C_28  and  C_31
REMARK    7  A    between atoms: C_39  and  C_40
REMARK                            x       y       z     vdW  Elec       q    Type
REMARK                         _______ _______ _______ _____ _____    ______ ____
ROOT
ATOM      1  O   UNL     1     111.276 127.431 136.233  0.00  0.00    +0.000 OA
ATOM      2  O   UNL     1     113.528 125.751 136.869  0.00  0.00    +0.000 OA
ATOM      3  O   UNL     1     111.179 124.581 135.736  0.00  0.00    +0.000 OA
ATOM      4  O   UNL     1     110.030 125.389 135.403  0.00  0.00    +0.000 OA
ATOM      5  C   UNL     1     112.404 126.573 136.549  0.00  0.00    +0.000 A 
ATOM      6  C   UNL     1     111.637 126.652 136.253  0.00  0.00    +0.000 A 
ATOM      7  C   UNL     1     112.761 125.830 136.573  0.00  0.00    +0.000 A 
ATOM      8  C   UNL     1     111.229 125.988 135.982  0.00  0.00    +0.000 A 
ATOM      9  C   UNL     1     110.477 127.520 135.926  0.00  0.00    +0.000 A 
ATOM     10  C   UNL     1     111.587 125.246 136.007  0.00  0.00    +0.000 A 
ATOM     11  C   UNL     1     112.353 125.166 136.302  0.00  0.00    +0.000 A 
ATOM     12  C   UNL     1     110.431 126.058 135.672  0.00  0.00    +0.000 A 
ATOM     13  C   UNL     1     110.052 126.829 135.644  0.00  0.00    +0.000 A 
ENDROOT
BRANCH   9  18
ATOM     14  O   UNL     1     110.065 130.025 134.613  0.00  0.00    +0.000 OA
ATOM     15  C   UNL     1     109.411 129.753 135.854  0.00  0.00    +0.000 A 
ATOM     16  C   UNL     1     109.916 129.517 135.245  0.00  0.00    +0.000 A 
ATOM     17  C   UNL     1     109.262 129.245 136.487  0.00  0.00    +0.000 A 
ATOM     18  C   UNL     1     110.122 128.264 135.902  0.00  0.00    +0.000 A 
ATOM     19  C   UNL     1     110.271 128.773 135.270  0.00  0.00    +0.000 A 
ATOM     20  C   UNL     1     109.618 128.501 136.510  0.00  0.00    +0.000 A 
BRANCH  15  21
ATOM     21  O   UNL     1     109.056 130.496 135.830  0.00  0.00    +0.000 OA
BRANCH  21  30
ATOM     22  O   UNL     1     109.918 131.226 136.706  0.00  0.00    +0.000 OA
ATOM     23  O   UNL     1     107.944 132.190 137.846  0.00  0.00    +0.000 OA
ATOM     24  O   UNL     1     109.464 132.599 138.342  0.00  0.00    +0.000 OA
ATOM     25  O   UNL     1     107.740 131.139 136.591  0.00  0.00    +0.000 OA
ATOM     26  C   UNL     1     108.602 131.869 137.466  0.00  0.00    +0.000 C 
ATOM     27  C   UNL     1     109.362 132.073 137.713  0.00  0.00    +0.000 C 
ATOM     28  C   UNL     1     108.500 131.344 136.839  0.00  0.00    +0.000 C 
ATOM     29  C   UNL     1     110.020 131.752 137.333  0.00  0.00    +0.000 C 
ATOM     30  C   UNL     1     109.158 131.022 136.458  0.00  0.00    +0.000 C 
BRANCH  29  33
ATOM     31  O   UNL     1     111.128 131.558 138.214  0.00  0.00    +0.000 OA
ATOM     32  O   UNL     1     111.191 132.560 137.196  0.00  0.00    +0.000 OA
ATOM     33  C   UNL     1     110.780 131.957 137.581  0.00  0.00    +0.000 C 
ENDBRANCH  29  33
ENDBRANCH  21  30
ENDBRANCH  15  21
ENDBRANCH   9  18
BRANCH   5  34
ATOM     34  O   UNL     1     112.812 127.236 136.819  0.00  0.00    +0.000 OA
BRANCH  34  42
ATOM     35  O   UNL     1     112.405 126.946 138.158  0.00  0.00    +0.000 OA
ATOM     36  O   UNL     1     113.401 129.080 138.923  0.00  0.00    +0.000 OA
ATOM     37  O   UNL     1     113.475 128.658 137.329  0.00  0.00    +0.000 OA
ATOM     38  O   UNL     1     112.662 128.079 140.006  0.00  0.00    +0.000 OA
ATOM     39  C   UNL     1     113.068 128.368 138.668  0.00  0.00    +0.000 C 
ATOM     40  C   UNL     1     113.106 128.158 137.871  0.00  0.00    +0.000 C 
ATOM     41  C   UNL     1     112.699 127.869 139.209  0.00  0.00    +0.000 C 
ATOM     42  C   UNL     1     112.774 127.447 137.616  0.00  0.00    +0.000 C 
ATOM     43  C   UNL     1     112.367 127.158 138.955  0.00  0.00    +0.000 C 
BRANCH  43  46
ATOM     44  O   UNL     1     111.180 126.696 139.601  0.00  0.00    +0.000 OA
ATOM     45  O   UNL     1     112.444 126.119 139.932  0.00  0.00    +0.000 OA
ATOM     46  C   UNL     1     111.998 126.657 139.496  0.00  0.00    +0.000 C 
ENDBRANCH  43  46
ENDBRANCH  34  42
ENDBRANCH   5  34
TORSDOF 7
ENDMDL
MODEL 8
REMARK VINA RESULT:     -10.2      3.152      6.509
REMARK  Name = 44258595
REMARK  7 active torsions:
REMARK  status: ('A' for Active; 'I' for Inactive)
REMARK    1  A    between atoms: O_3  and  C_26
REMARK    2  A    between atoms: O_3  and  C_32
REMARK    3  A    between atoms: O_5  and  C_29
REMARK    4  A    between atoms: O_5  and  C_33
REMARK    5  A    between atoms: C_27  and  C_30
REMARK    6  A    between atoms: C_28  and  C_31
REMARK    7  A    between atoms: C_39  and  C_40
REMARK                            x       y       z     vdW  Elec       q    Type
REMARK                         _______ _______ _______ _____ _____    ______ ____
ROOT
ATOM      1  O   UNL     1     110.043 130.008 136.469  0.00  0.00    +0.000 OA
ATOM      2  O   UNL     1     110.845 132.555 137.551  0.00  0.00    +0.000 OA
ATOM      3  O   UNL     1     109.083 132.476 135.301  0.00  0.00    +0.000 OA
ATOM      4  O   UNL     1     108.659 131.220 134.730  0.00  0.00    +0.000 OA
ATOM      5  C   UNL     1     110.440 131.298 137.005  0.00  0.00    +0.000 A 
ATOM      6  C   UNL     1     110.011 130.865 136.447  0.00  0.00    +0.000 A 
ATOM      7  C   UNL     1     110.416 132.122 136.993  0.00  0.00    +0.000 A 
ATOM      8  C   UNL     1     109.559 131.258 135.880  0.00  0.00    +0.000 A 
ATOM      9  C   UNL     1     109.598 129.551 135.892  0.00  0.00    +0.000 A 
ATOM     10  C   UNL     1     109.536 132.083 135.869  0.00  0.00    +0.000 A 
ATOM     11  C   UNL     1     109.964 132.515 136.426  0.00  0.00    +0.000 A 
ATOM     12  C   UNL     1     109.108 130.820 135.295  0.00  0.00    +0.000 A 
ATOM     13  C   UNL     1     109.128 129.960 135.301  0.00  0.00    +0.000 A 
ENDROOT
BRANCH   9  18
ATOM     14  O   UNL     1     108.344 127.047 136.458  0.00  0.00    +0.000 OA
ATOM     15  C   UNL     1     109.673 127.077 135.932  0.00  0.00    +0.000 A 
ATOM     16  C   UNL     1     108.995 127.475 136.188  0.00  0.00    +0.000 A 
ATOM     17  C   UNL     1     110.324 127.505 135.662  0.00  0.00    +0.000 A 
ATOM     18  C   UNL     1     109.623 128.727 135.905  0.00  0.00    +0.000 A 
ATOM     19  C   UNL     1     108.972 128.299 136.174  0.00  0.00    +0.000 A 
ATOM     20  C   UNL     1     110.299 128.330 135.649  0.00  0.00    +0.000 A 
BRANCH  15  21
ATOM     21  O   UNL     1     109.697 126.254 135.945  0.00  0.00    +0.000 OA
BRANCH  21  30
ATOM     22  O   UNL     1     110.422 126.052 137.160  0.00  0.00    +0.000 OA
ATOM     23  O   UNL     1     111.810 124.332 136.047  0.00  0.00    +0.000 OA
ATOM     24  O   UNL     1     112.072 124.703 137.633  0.00  0.00    +0.000 OA
ATOM     25  O   UNL     1     110.623 125.107 135.203  0.00  0.00    +0.000 OA
ATOM     26  C   UNL     1     111.347 124.905 136.418  0.00  0.00    +0.000 C 
ATOM     27  C   UNL     1     111.478 125.091 137.210  0.00  0.00    +0.000 C 
ATOM     28  C   UNL     1     110.754 125.292 135.996  0.00  0.00    +0.000 C 
ATOM     29  C   UNL     1     111.015 125.664 137.582  0.00  0.00    +0.000 C 
ATOM     30  C   UNL     1     110.291 125.866 136.367  0.00  0.00    +0.000 C 
BRANCH  29  33
ATOM     31  O   UNL     1     110.727 125.455 138.965  0.00  0.00    +0.000 OA
ATOM     32  O   UNL     1     111.697 126.430 138.577  0.00  0.00    +0.000 OA
ATOM     33  C   UNL     1     111.147 125.850 138.375  0.00  0.00    +0.000 C 
ENDBRANCH  29  33
ENDBRANCH  21  30
ENDBRANCH  15  21
ENDBRANCH   9  18
BRANCH   5  34
ATOM     34  O   UNL     1     110.891 130.906 137.572  0.00  0.00    +0.000 OA
BRANCH  34  42
ATOM     35  O   UNL     1     109.815 130.815 138.508  0.00  0.00    +0.000 OA
ATOM     36  O   UNL     1     111.441 130.800 140.375  0.00  0.00    +0.000 OA
ATOM     37  O   UNL     1     111.974 130.896 138.816  0.00  0.00    +0.000 OA
ATOM     38  O   UNL     1     109.823 130.714 140.688  0.00  0.00    +0.000 OA
ATOM     39  C   UNL     1     110.898 130.805 139.752  0.00  0.00    +0.000 C 
ATOM     40  C   UNL     1     111.166 130.853 138.973  0.00  0.00    +0.000 C 
ATOM     41  C   UNL     1     110.090 130.762 139.909  0.00  0.00    +0.000 C 
ATOM     42  C   UNL     1     110.625 130.858 138.351  0.00  0.00    +0.000 C 
ATOM     43  C   UNL     1     109.549 130.767 139.287  0.00  0.00    +0.000 C 
BRANCH  43  46
ATOM     44  O   UNL     1     108.367 129.988 139.486  0.00  0.00    +0.000 OA
ATOM     45  O   UNL     1     108.304 131.414 139.556  0.00  0.00    +0.000 OA
ATOM     46  C   UNL     1     108.740 130.724 139.443  0.00  0.00    +0.000 C 
ENDBRANCH  43  46
ENDBRANCH  34  42
ENDBRANCH   5  34
TORSDOF 7
ENDMDL
MODEL 9
REMARK VINA RESULT:     -10.2      2.922      3.893
REMARK  Name = 44258595
REMARK  7 active torsions:
REMARK  status: ('A' for Active; 'I' for Inactive)
REMARK    1  A    between atoms: O_3  and  C_26
REMARK    2  A    between atoms: O_3  and  C_32
REMARK    3  A    between atoms: O_5  and  C_29
REMARK    4  A    between atoms: O_5  and  C_33
REMARK    5  A    between atoms: C_27  and  C_30
REMARK    6  A    between atoms: C_28  and  C_31
REMARK    7  A    between atoms: C_39  and  C_40
REMARK                            x       y       z     vdW  Elec       q    Type
REMARK                         _______ _______ _______ _____ _____    ______ ____
ROOT
ATOM      1  O   UNL     1     111.734 127.379 137.283  0.00  0.00    +0.000 OA
ATOM      2  O   UNL     1     111.193 124.680 138.132  0.00  0.00    +0.000 OA
ATOM      3  O   UNL     1     113.774 125.334 137.092  0.00  0.00    +0.000 OA
ATOM      4  O   UNL     1     114.084 126.675 136.656  0.00  0.00    +0.000 OA
ATOM      5  C   UNL     1     111.475 126.015 137.707  0.00  0.00    +0.000 A 
ATOM      6  C   UNL     1     111.999 126.569 137.392  0.00  0.00    +0.000 A 
ATOM      7  C   UNL     1     111.718 125.234 137.817  0.00  0.00    +0.000 A 
ATOM      8  C   UNL     1     112.765 126.342 137.187  0.00  0.00    +0.000 A 
ATOM      9  C   UNL     1     112.275 127.961 136.955  0.00  0.00    +0.000 A 
ATOM     10  C   UNL     1     113.007 125.561 137.297  0.00  0.00    +0.000 A 
ATOM     11  C   UNL     1     112.484 125.007 137.612  0.00  0.00    +0.000 A 
ATOM     12  C   UNL     1     113.320 126.910 136.858  0.00  0.00    +0.000 A 
ATOM     13  C   UNL     1     113.073 127.725 136.741  0.00  0.00    +0.000 A 
ENDROOT
BRANCH   9  18
ATOM     14  O   UNL     1     111.162 129.995 135.284  0.00  0.00    +0.000 OA
ATOM     15  C   UNL     1     111.540 130.302 136.627  0.00  0.00    +0.000 A 
ATOM     16  C   UNL     1     111.473 129.758 136.010  0.00  0.00    +0.000 A 
ATOM     17  C   UNL     1     111.851 130.065 137.354  0.00  0.00    +0.000 A 
ATOM     18  C   UNL     1     112.030 128.741 136.846  0.00  0.00    +0.000 A 
ATOM     19  C   UNL     1     111.719 128.978 136.120  0.00  0.00    +0.000 A 
ATOM     20  C   UNL     1     112.097 129.285 137.462  0.00  0.00    +0.000 A 
BRANCH  15  21
ATOM     21  O   UNL     1     111.295 131.081 136.518  0.00  0.00    +0.000 OA
BRANCH  21  30
ATOM     22  O   UNL     1     109.999 130.993 137.113  0.00  0.00    +0.000 OA
ATOM     23  O   UNL     1     110.365 133.170 138.232  0.00  0.00    +0.000 OA
ATOM     24  O   UNL     1     108.946 132.357 138.455  0.00  0.00    +0.000 OA
ATOM     25  O   UNL     1     111.539 132.533 137.264  0.00  0.00    +0.000 OA
ATOM     26  C   UNL     1     110.242 132.444 137.859  0.00  0.00    +0.000 C 
ATOM     27  C   UNL     1     109.534 132.038 137.970  0.00  0.00    +0.000 C 
ATOM     28  C   UNL     1     110.829 132.126 137.376  0.00  0.00    +0.000 C 
ATOM     29  C   UNL     1     109.412 131.312 137.598  0.00  0.00    +0.000 C 
ATOM     30  C   UNL     1     110.708 131.400 137.002  0.00  0.00    +0.000 C 
BRANCH  29  33
ATOM     31  O   UNL     1     108.080 131.009 137.177  0.00  0.00    +0.000 OA
ATOM     32  O   UNL     1     108.616 130.396 138.352  0.00  0.00    +0.000 OA
ATOM     33  C   UNL     1     108.702 130.906 137.709  0.00  0.00    +0.000 C 
ENDBRANCH  29  33
ENDBRANCH  21  30
ENDBRANCH  15  21
ENDBRANCH   9  18
BRANCH   5  34
ATOM     34  O   UNL     1     110.709 126.241 137.912  0.00  0.00    +0.000 OA
BRANCH  34  42
ATOM     35  O   UNL     1     111.126 126.484 139.258  0.00  0.00    +0.000 OA
ATOM     36  O   UNL     1     108.759 126.713 139.949  0.00  0.00    +0.000 OA
ATOM     37  O   UNL     1     109.132 126.394 138.373  0.00  0.00    +0.000 OA
ATOM     38  O   UNL     1     109.965 126.879 141.063  0.00  0.00    +0.000 OA
ATOM     39  C   UNL     1     109.549 126.636 139.718  0.00  0.00    +0.000 C 
ATOM     40  C   UNL     1     109.734 126.477 138.930  0.00  0.00    +0.000 C 
ATOM     41  C   UNL     1     110.150 126.720 140.275  0.00  0.00    +0.000 C 
ATOM     42  C   UNL     1     110.523 126.400 138.700  0.00  0.00    +0.000 C 
ATOM     43  C   UNL     1     110.939 126.643 140.045  0.00  0.00    +0.000 C 
BRANCH  43  46
ATOM     44  O   UNL     1     111.934 127.449 140.680  0.00  0.00    +0.000 OA
ATOM     45  O   UNL     1     111.753 126.089 141.080  0.00  0.00    +0.000 OA
ATOM     46  C   UNL     1     111.542 126.726 140.602  0.00  0.00    +0.000 C 
ENDBRANCH  43  46
ENDBRANCH  34  42
ENDBRANCH   5  34
TORSDOF 7
ENDMDL
MODEL 10
REMARK VINA RESULT:     -10.1      2.012      5.484
REMARK  Name = 44258595
REMARK  7 active torsions:
REMARK  status: ('A' for Active; 'I' for Inactive)
REMARK    1  A    between atoms: O_3  and  C_26
REMARK    2  A    between atoms: O_3  and  C_32
REMARK    3  A    between atoms: O_5  and  C_29
REMARK    4  A    between atoms: O_5  and  C_33
REMARK    5  A    between atoms: C_27  and  C_30
REMARK    6  A    between atoms: C_28  and  C_31
REMARK    7  A    between atoms: C_39  and  C_40
REMARK                            x       y       z     vdW  Elec       q    Type
REMARK                         _______ _______ _______ _____ _____    ______ ____
ROOT
ATOM      1  O   UNL     1     110.867 128.713 138.619  0.00  0.00    +0.000 OA
ATOM      2  O   UNL     1     108.626 129.246 140.349  0.00  0.00    +0.000 OA
ATOM      3  O   UNL     1     110.460 131.352 139.737  0.00  0.00    +0.000 OA
ATOM      4  O   UNL     1     111.595 131.125 138.875  0.00  0.00    +0.000 OA
ATOM      5  C   UNL     1     109.742 128.995 139.493  0.00  0.00    +0.000 A 
ATOM      6  C   UNL     1     110.420 129.263 139.105  0.00  0.00    +0.000 A 
ATOM      7  C   UNL     1     109.304 129.514 139.962  0.00  0.00    +0.000 A 
ATOM      8  C   UNL     1     110.659 130.048 139.186  0.00  0.00    +0.000 A 
ATOM      9  C   UNL     1     111.574 128.985 138.212  0.00  0.00    +0.000 A 
ATOM     10  C   UNL     1     110.221 130.566 139.656  0.00  0.00    +0.000 A 
ATOM     11  C   UNL     1     109.544 130.299 140.043  0.00  0.00    +0.000 A 
ATOM     12  C   UNL     1     111.363 130.338 138.788  0.00  0.00    +0.000 A 
ATOM     13  C   UNL     1     111.824 129.803 138.297  0.00  0.00    +0.000 A 
ENDROOT
BRANCH   9  18
ATOM     14  O   UNL     1     112.162 127.861 135.651  0.00  0.00    +0.000 OA
ATOM     15  C   UNL     1     112.883 127.424 136.806  0.00  0.00    +0.000 A 
ATOM     16  C   UNL     1     112.304 127.903 136.463  0.00  0.00    +0.000 A 
ATOM     17  C   UNL     1     113.025 127.466 137.618  0.00  0.00    +0.000 A 
ATOM     18  C   UNL     1     112.011 128.465 137.744  0.00  0.00    +0.000 A 
ATOM     19  C   UNL     1     111.869 128.423 136.932  0.00  0.00    +0.000 A 
ATOM     20  C   UNL     1     112.588 127.987 138.086  0.00  0.00    +0.000 A 
BRANCH  15  21
ATOM     21  O   UNL     1     113.318 126.904 136.337  0.00  0.00    +0.000 OA
BRANCH  21  30
ATOM     22  O   UNL     1     112.605 125.695 136.600  0.00  0.00    +0.000 OA
ATOM     23  O   UNL     1     114.749 124.482 136.840  0.00  0.00    +0.000 OA
ATOM     24  O   UNL     1     113.321 123.676 137.023  0.00  0.00    +0.000 OA
ATOM     25  O   UNL     1     114.748 126.096 136.498  0.00  0.00    +0.000 OA
ATOM     26  C   UNL     1     114.034 124.886 136.760  0.00  0.00    +0.000 C 
ATOM     27  C   UNL     1     113.321 124.484 136.851  0.00  0.00    +0.000 C 
ATOM     28  C   UNL     1     114.034 125.693 136.589  0.00  0.00    +0.000 C 
ATOM     29  C   UNL     1     112.606 124.887 136.771  0.00  0.00    +0.000 C 
ATOM     30  C   UNL     1     113.319 126.097 136.509  0.00  0.00    +0.000 C 
BRANCH  29  33
ATOM     31  O   UNL     1     111.563 124.393 137.614  0.00  0.00    +0.000 OA
ATOM     32  O   UNL     1     111.507 124.172 136.203  0.00  0.00    +0.000 OA
ATOM     33  C   UNL     1     111.892 124.484 136.863  0.00  0.00    +0.000 C 
ENDBRANCH  29  33
ENDBRANCH  21  30
ENDBRANCH  15  21
ENDBRANCH   9  18
BRANCH   5  34
ATOM     34  O   UNL     1     109.503 128.211 139.411  0.00  0.00    +0.000 OA
BRANCH  34  42
ATOM     35  O   UNL     1     110.188 127.876 140.619  0.00  0.00    +0.000 OA
ATOM     36  O   UNL     1     109.544 125.503 140.327  0.00  0.00    +0.000 OA
ATOM     37  O   UNL     1     109.074 126.630 139.216  0.00  0.00    +0.000 OA
ATOM     38  O   UNL     1     110.444 125.960 141.632  0.00  0.00    +0.000 OA
ATOM     39  C   UNL     1     109.759 126.295 140.424  0.00  0.00    +0.000 C 
ATOM     40  C   UNL     1     109.523 126.857 139.869  0.00  0.00    +0.000 C 
ATOM     41  C   UNL     1     110.209 126.522 141.077  0.00  0.00    +0.000 C 
ATOM     42  C   UNL     1     109.738 127.648 139.966  0.00  0.00    +0.000 C 
ATOM     43  C   UNL     1     110.423 127.313 141.174  0.00  0.00    +0.000 C 
BRANCH  43  46
ATOM     44  O   UNL     1     111.697 127.558 141.774  0.00  0.00    +0.000 OA
ATOM     45  O   UNL     1     110.501 127.752 142.531  0.00  0.00    +0.000 OA
ATOM     46  C   UNL     1     110.873 127.541 141.827  0.00  0.00    +0.000 C 
ENDBRANCH  43  46
ENDBRANCH  34  42
ENDBRANCH   5  34
TORSDOF 7
ENDMDL
