MODEL 1
REMARK VINA RESULT:     -12.9      0.000      0.000
REMARK  Name = 
REMARK  13 active torsions:
REMARK  status: ('A' for Active; 'I' for Inactive)
REMARK    1  A    between atoms: C_1  and  C_56
REMARK    2  A    between atoms: C_2  and  C_7
REMARK    3  A    between atoms: C_12  and  O_20
REMARK    4  A    between atoms: O_20  and  C_21
REMARK    5  A    between atoms: C_23  and  C_30
REMARK    6  A    between atoms: C_30  and  O_31
REMARK    7  A    between atoms: O_31  and  C_34
REMARK    8  A    between atoms: C_45  and  C_50
REMARK    9  A    between atoms: C_55  and  O_63
REMARK   10  A    between atoms: O_63  and  C_64
REMARK   11  A    between atoms: C_66  and  C_73
REMARK   12  A    between atoms: C_73  and  O_74
REMARK   13  A    between atoms: O_74  and  C_77
REMARK                            x       y       z     vdW  Elec       q    Type
REMARK                         _______ _______ _______ _____ _____    ______ ____
ROOT
ATOM      1  C   UNL     1     110.280 127.890 141.256  0.00  0.00    +0.000 A 
ATOM      2  C   UNL     1     109.613 128.308 141.876  0.00  0.00    +0.000 A 
ATOM      3  C   UNL     1     108.646 128.025 141.834  0.00  0.00    +0.000 A 
ATOM      4  C   UNL     1     108.357 127.335 141.181  0.00  0.00    +0.000 A 
ATOM      5  C   UNL     1     109.025 126.917 140.561  0.00  0.00    +0.000 A 
ATOM      6  C   UNL     1     109.979 127.189 140.596  0.00  0.00    +0.000 A 
ATOM      7  O   UNL     1     108.723 126.216 139.901  0.00  0.00    +0.000 OA
ATOM      8  O   UNL     1     110.646 126.771 139.976  0.00  0.00    +0.000 OA
ENDROOT
BRANCH   2   9
ATOM      9  C   UNL     1     109.902 128.999 142.529  0.00  0.00    +0.000 A 
ATOM     10  O   UNL     1     110.580 128.769 143.218  0.00  0.00    +0.000 OA
ATOM     11  C   UNL     1     110.878 129.464 143.885  0.00  0.00    +0.000 A 
ATOM     12  C   UNL     1     110.489 130.387 143.848  0.00  0.00    +0.000 A 
ATOM     13  C   UNL     1     109.802 130.612 143.145  0.00  0.00    +0.000 A 
ATOM     14  C   UNL     1     109.513 129.922 142.493  0.00  0.00    +0.000 A 
ATOM     15  C   UNL     1     111.555 129.234 144.574  0.00  0.00    +0.000 A 
ATOM     16  C   UNL     1     111.855 129.930 145.241  0.00  0.00    +0.000 A 
ATOM     17  C   UNL     1     111.465 130.853 145.205  0.00  0.00    +0.000 A 
ATOM     18  C   UNL     1     110.778 131.078 144.501  0.00  0.00    +0.000 A 
ATOM     19  O   UNL     1     109.419 131.518 143.109  0.00  0.00    +0.000 OA
ATOM     20  O   UNL     1     110.395 131.984 144.465  0.00  0.00    +0.000 OA
ATOM     21  O   UNL     1     112.532 129.700 145.930  0.00  0.00    +0.000 OA
BRANCH  14  22
ATOM     22  O   UNL     1     108.835 130.151 141.803  0.00  0.00    +0.000 OA
BRANCH  22  23
ATOM     23  C   UNL     1     107.911 130.361 142.068  0.00  0.00    +0.000 C 
ATOM     24  O   UNL     1     107.580 130.112 142.972  0.00  0.00    +0.000 OA
ATOM     25  C   UNL     1     106.640 130.325 143.241  0.00  0.00    +0.000 C 
ATOM     26  C   UNL     1     106.030 130.787 142.606  0.00  0.00    +0.000 C 
ATOM     27  C   UNL     1     106.358 131.043 141.687  0.00  0.00    +0.000 C 
ATOM     28  C   UNL     1     107.298 130.830 141.418  0.00  0.00    +0.000 C 
ATOM     29  O   UNL     1     107.629 131.079 140.514  0.00  0.00    +0.000 OA
ATOM     30  O   UNL     1     105.747 131.505 141.053  0.00  0.00    +0.000 OA
ATOM     31  O   UNL     1     105.089 131.000 142.875  0.00  0.00    +0.000 OA
BRANCH  25  32
ATOM     32  C   UNL     1     106.309 130.076 144.144  0.00  0.00    +0.000 C 
BRANCH  32  33
ATOM     33  O   UNL     1     106.945 129.739 144.840  0.00  0.00    +0.000 OA
BRANCH  33  34
ATOM     34  C   UNL     1     106.611 129.126 145.568  0.00  0.00    +0.000 C 
ATOM     35  O   UNL     1     105.713 129.271 145.966  0.00  0.00    +0.000 OA
ATOM     36  C   UNL     1     105.378 128.657 146.696  0.00  0.00    +0.000 C 
ATOM     37  C   UNL     1     105.956 127.904 147.014  0.00  0.00    +0.000 C 
ATOM     38  C   UNL     1     106.868 127.764 146.604  0.00  0.00    +0.000 C 
ATOM     39  C   UNL     1     107.189 128.373 145.887  0.00  0.00    +0.000 C 
ATOM     40  O   UNL     1     108.100 128.232 145.477  0.00  0.00    +0.000 OA
ATOM     41  O   UNL     1     107.445 127.011 146.923  0.00  0.00    +0.000 OA
ATOM     42  O   UNL     1     105.635 127.296 147.731  0.00  0.00    +0.000 OA
ATOM     43  C   UNL     1     104.480 128.803 147.093  0.00  0.00    +0.000 C 
ENDBRANCH  33  34
ENDBRANCH  32  33
ENDBRANCH  25  32
ENDBRANCH  22  23
ENDBRANCH  14  22
ENDBRANCH   2   9
BRANCH   1  50
ATOM     44  C   UNL     1     111.196 129.886 139.261  0.00  0.00    +0.000 A 
ATOM     45  O   UNL     1     110.906 129.215 139.933  0.00  0.00    +0.000 OA
ATOM     46  C   UNL     1     111.592 128.720 140.479  0.00  0.00    +0.000 A 
ATOM     47  C   UNL     1     112.562 128.913 140.336  0.00  0.00    +0.000 A 
ATOM     48  C   UNL     1     112.852 129.584 139.664  0.00  0.00    +0.000 A 
ATOM     49  C   UNL     1     112.165 130.079 139.117  0.00  0.00    +0.000 A 
ATOM     50  C   UNL     1     111.302 128.048 141.151  0.00  0.00    +0.000 A 
ATOM     51  C   UNL     1     111.989 127.553 141.698  0.00  0.00    +0.000 A 
ATOM     52  C   UNL     1     112.958 127.746 141.554  0.00  0.00    +0.000 A 
ATOM     53  C   UNL     1     113.248 128.418 140.882  0.00  0.00    +0.000 A 
ATOM     54  O   UNL     1     113.821 129.777 139.520  0.00  0.00    +0.000 OA
ATOM     55  O   UNL     1     114.217 128.611 140.739  0.00  0.00    +0.000 OA
ATOM     56  O   UNL     1     111.698 126.882 142.370  0.00  0.00    +0.000 OA
BRANCH  44  58
ATOM     57  C   UNL     1     110.400 131.365 138.844  0.00  0.00    +0.000 A 
ATOM     58  C   UNL     1     110.509 130.381 138.715  0.00  0.00    +0.000 A 
ATOM     59  C   UNL     1     109.951 129.890 138.056  0.00  0.00    +0.000 A 
ATOM     60  C   UNL     1     109.264 130.385 137.510  0.00  0.00    +0.000 A 
ATOM     61  C   UNL     1     109.155 131.369 137.639  0.00  0.00    +0.000 A 
ATOM     62  C   UNL     1     109.713 131.860 138.298  0.00  0.00    +0.000 A 
ATOM     63  O   UNL     1     108.476 131.876 137.103  0.00  0.00    +0.000 OA
ATOM     64  O   UNL     1     109.604 132.843 138.428  0.00  0.00    +0.000 OA
ENDBRANCH  44  58
BRANCH  49  65
ATOM     65  O   UNL     1     112.454 130.750 138.445  0.00  0.00    +0.000 OA
BRANCH  65  66
ATOM     66  C   UNL     1     112.942 130.468 137.619  0.00  0.00    +0.000 C 
ATOM     67  O   UNL     1     112.911 129.503 137.337  0.00  0.00    +0.000 OA
ATOM     68  C   UNL     1     113.399 129.221 136.510  0.00  0.00    +0.000 C 
ATOM     69  C   UNL     1     113.909 129.881 135.973  0.00  0.00    +0.000 C 
ATOM     70  C   UNL     1     113.940 130.847 136.255  0.00  0.00    +0.000 C 
ATOM     71  C   UNL     1     113.452 131.129 137.081  0.00  0.00    +0.000 C 
ATOM     72  O   UNL     1     113.483 132.094 137.365  0.00  0.00    +0.000 OA
ATOM     73  O   UNL     1     114.450 131.507 135.717  0.00  0.00    +0.000 OA
ATOM     74  O   UNL     1     114.396 129.600 135.147  0.00  0.00    +0.000 OA
BRANCH  68  75
ATOM     75  C   UNL     1     113.368 128.255 136.227  0.00  0.00    +0.000 C 
BRANCH  75  76
ATOM     76  O   UNL     1     112.607 127.683 136.528  0.00  0.00    +0.000 OA
BRANCH  76  77
ATOM     77  C   UNL     1     112.726 126.683 136.559  0.00  0.00    +0.000 C 
ATOM     78  O   UNL     1     113.607 126.295 136.805  0.00  0.00    +0.000 OA
ATOM     79  C   UNL     1     113.725 125.295 136.837  0.00  0.00    +0.000 C 
ATOM     80  C   UNL     1     112.949 124.705 136.618  0.00  0.00    +0.000 C 
ATOM     81  C   UNL     1     112.070 125.093 136.371  0.00  0.00    +0.000 C 
ATOM     82  C   UNL     1     111.951 126.093 136.340  0.00  0.00    +0.000 C 
ATOM     83  O   UNL     1     111.070 126.481 136.094  0.00  0.00    +0.000 OA
ATOM     84  O   UNL     1     111.294 124.503 136.152  0.00  0.00    +0.000 OA
ATOM     85  O   UNL     1     113.068 123.705 136.649  0.00  0.00    +0.000 OA
ATOM     86  C   UNL     1     114.605 124.907 137.083  0.00  0.00    +0.000 C 
ENDBRANCH  76  77
ENDBRANCH  75  76
ENDBRANCH  68  75
ENDBRANCH  65  66
ENDBRANCH  49  65
ENDBRANCH   1  50
TORSDOF 13
ENDMDL
MODEL 2
REMARK VINA RESULT:     -12.7      1.701      8.366
REMARK  Name = 
REMARK  13 active torsions:
REMARK  status: ('A' for Active; 'I' for Inactive)
REMARK    1  A    between atoms: C_1  and  C_56
REMARK    2  A    between atoms: C_2  and  C_7
REMARK    3  A    between atoms: C_12  and  O_20
REMARK    4  A    between atoms: O_20  and  C_21
REMARK    5  A    between atoms: C_23  and  C_30
REMARK    6  A    between atoms: C_30  and  O_31
REMARK    7  A    between atoms: O_31  and  C_34
REMARK    8  A    between atoms: C_45  and  C_50
REMARK    9  A    between atoms: C_55  and  O_63
REMARK   10  A    between atoms: O_63  and  C_64
REMARK   11  A    between atoms: C_66  and  C_73
REMARK   12  A    between atoms: C_73  and  O_74
REMARK   13  A    between atoms: O_74  and  C_77
REMARK                            x       y       z     vdW  Elec       q    Type
REMARK                         _______ _______ _______ _____ _____    ______ ____
ROOT
ATOM      1  C   UNL     1     109.733 127.380 141.043  0.00  0.00    +0.000 A 
ATOM      2  C   UNL     1     109.706 127.471 140.045  0.00  0.00    +0.000 A 
ATOM      3  C   UNL     1     109.248 126.763 139.491  0.00  0.00    +0.000 A 
ATOM      4  C   UNL     1     108.826 125.981 139.934  0.00  0.00    +0.000 A 
ATOM      5  C   UNL     1     108.853 125.890 140.931  0.00  0.00    +0.000 A 
ATOM      6  C   UNL     1     109.302 126.582 141.484  0.00  0.00    +0.000 A 
ATOM      7  O   UNL     1     108.422 125.092 141.372  0.00  0.00    +0.000 OA
ATOM      8  O   UNL     1     109.329 126.491 142.482  0.00  0.00    +0.000 OA
ENDROOT
BRANCH   2   9
ATOM      9  C   UNL     1     110.128 128.254 139.603  0.00  0.00    +0.000 A 
ATOM     10  O   UNL     1     109.644 129.121 139.575  0.00  0.00    +0.000 OA
ATOM     11  C   UNL     1     110.066 129.920 139.127  0.00  0.00    +0.000 A 
ATOM     12  C   UNL     1     110.974 129.836 138.713  0.00  0.00    +0.000 A 
ATOM     13  C   UNL     1     111.459 128.952 138.746  0.00  0.00    +0.000 A 
ATOM     14  C   UNL     1     111.036 128.170 139.188  0.00  0.00    +0.000 A 
ATOM     15  C   UNL     1     109.582 130.787 139.099  0.00  0.00    +0.000 A 
ATOM     16  C   UNL     1     110.004 131.588 138.652  0.00  0.00    +0.000 A 
ATOM     17  C   UNL     1     110.912 131.503 138.237  0.00  0.00    +0.000 A 
ATOM     18  C   UNL     1     111.397 130.619 138.271  0.00  0.00    +0.000 A 
ATOM     19  O   UNL     1     112.351 128.869 138.339  0.00  0.00    +0.000 OA
ATOM     20  O   UNL     1     112.289 130.536 137.864  0.00  0.00    +0.000 OA
ATOM     21  O   UNL     1     109.519 132.454 138.623  0.00  0.00    +0.000 OA
BRANCH  14  22
ATOM     22  O   UNL     1     111.521 127.302 139.217  0.00  0.00    +0.000 OA
BRANCH  22  23
ATOM     23  C   UNL     1     111.698 126.807 138.386  0.00  0.00    +0.000 C 
ATOM     24  O   UNL     1     111.218 127.045 137.548  0.00  0.00    +0.000 OA
ATOM     25  C   UNL     1     111.398 126.541 136.702  0.00  0.00    +0.000 C 
ATOM     26  C   UNL     1     112.059 125.798 136.693  0.00  0.00    +0.000 C 
ATOM     27  C   UNL     1     112.551 125.550 137.539  0.00  0.00    +0.000 C 
ATOM     28  C   UNL     1     112.371 126.054 138.385  0.00  0.00    +0.000 C 
ATOM     29  O   UNL     1     112.850 125.817 139.222  0.00  0.00    +0.000 OA
ATOM     30  O   UNL     1     113.212 124.808 137.529  0.00  0.00    +0.000 OA
ATOM     31  O   UNL     1     112.240 125.294 135.847  0.00  0.00    +0.000 OA
BRANCH  25  32
ATOM     32  C   UNL     1     110.918 126.778 135.865  0.00  0.00    +0.000 C 
BRANCH  32  33
ATOM     33  O   UNL     1     109.964 127.078 135.898  0.00  0.00    +0.000 OA
BRANCH  33  34
ATOM     34  C   UNL     1     109.734 128.039 135.695  0.00  0.00    +0.000 C 
ATOM     35  O   UNL     1     110.403 128.628 135.256  0.00  0.00    +0.000 OA
ATOM     36  C   UNL     1     110.172 129.590 135.052  0.00  0.00    +0.000 C 
ATOM     37  C   UNL     1     109.269 129.946 135.295  0.00  0.00    +0.000 C 
ATOM     38  C   UNL     1     108.595 129.341 135.742  0.00  0.00    +0.000 C 
ATOM     39  C   UNL     1     108.830 128.396 135.938  0.00  0.00    +0.000 C 
ATOM     40  O   UNL     1     108.157 127.791 136.385  0.00  0.00    +0.000 OA
ATOM     41  O   UNL     1     107.692 129.698 135.985  0.00  0.00    +0.000 OA
ATOM     42  O   UNL     1     109.034 130.892 135.099  0.00  0.00    +0.000 OA
ATOM     43  C   UNL     1     110.842 130.178 134.613  0.00  0.00    +0.000 C 
ENDBRANCH  33  34
ENDBRANCH  32  33
ENDBRANCH  25  32
ENDBRANCH  22  23
ENDBRANCH  14  22
ENDBRANCH   2   9
BRANCH   1  50
ATOM     44  C   UNL     1     108.005 129.431 142.311  0.00  0.00    +0.000 A 
ATOM     45  O   UNL     1     108.596 128.750 141.896  0.00  0.00    +0.000 OA
ATOM     46  C   UNL     1     109.559 128.676 142.184  0.00  0.00    +0.000 A 
ATOM     47  C   UNL     1     109.906 129.294 142.888  0.00  0.00    +0.000 A 
ATOM     48  C   UNL     1     109.314 129.975 143.303  0.00  0.00    +0.000 A 
ATOM     49  C   UNL     1     108.352 130.049 143.015  0.00  0.00    +0.000 A 
ATOM     50  C   UNL     1     110.150 127.994 141.769  0.00  0.00    +0.000 A 
ATOM     51  C   UNL     1     111.113 127.921 142.058  0.00  0.00    +0.000 A 
ATOM     52  C   UNL     1     111.460 128.538 142.761  0.00  0.00    +0.000 A 
ATOM     53  C   UNL     1     110.869 129.220 143.176  0.00  0.00    +0.000 A 
ATOM     54  O   UNL     1     109.661 130.593 144.006  0.00  0.00    +0.000 OA
ATOM     55  O   UNL     1     111.216 129.838 143.879  0.00  0.00    +0.000 OA
ATOM     56  O   UNL     1     111.705 127.239 141.643  0.00  0.00    +0.000 OA
BRANCH  44  58
ATOM     57  C   UNL     1     106.713 130.364 141.636  0.00  0.00    +0.000 A 
ATOM     58  C   UNL     1     107.042 129.505 142.023  0.00  0.00    +0.000 A 
ATOM     59  C   UNL     1     106.432 128.727 142.125  0.00  0.00    +0.000 A 
ATOM     60  C   UNL     1     105.470 128.801 141.837  0.00  0.00    +0.000 A 
ATOM     61  C   UNL     1     105.141 129.661 141.450  0.00  0.00    +0.000 A 
ATOM     62  C   UNL     1     105.751 130.438 141.348  0.00  0.00    +0.000 A 
ATOM     63  O   UNL     1     104.186 129.750 141.158  0.00  0.00    +0.000 OA
ATOM     64  O   UNL     1     105.422 131.298 140.961  0.00  0.00    +0.000 OA
ENDBRANCH  44  58
BRANCH  49  65
ATOM     65  O   UNL     1     107.759 130.730 143.429  0.00  0.00    +0.000 OA
BRANCH  65  66
ATOM     66  C   UNL     1     107.403 130.601 144.354  0.00  0.00    +0.000 C 
ATOM     67  O   UNL     1     107.457 129.690 144.778  0.00  0.00    +0.000 OA
ATOM     68  C   UNL     1     107.100 129.562 145.704  0.00  0.00    +0.000 C 
ATOM     69  C   UNL     1     106.696 130.320 146.201  0.00  0.00    +0.000 C 
ATOM     70  C   UNL     1     106.642 131.231 145.776  0.00  0.00    +0.000 C 
ATOM     71  C   UNL     1     106.999 131.360 144.851  0.00  0.00    +0.000 C 
ATOM     72  O   UNL     1     106.945 132.270 144.426  0.00  0.00    +0.000 OA
ATOM     73  O   UNL     1     106.238 131.990 146.274  0.00  0.00    +0.000 OA
ATOM     74  O   UNL     1     106.340 130.192 147.126  0.00  0.00    +0.000 OA
BRANCH  68  75
ATOM     75  C   UNL     1     107.155 128.651 146.129  0.00  0.00    +0.000 C 
BRANCH  75  76
ATOM     76  O   UNL     1     107.160 127.840 145.546  0.00  0.00    +0.000 OA
BRANCH  76  77
ATOM     77  C   UNL     1     106.886 126.953 145.935  0.00  0.00    +0.000 C 
ATOM     78  O   UNL     1     106.808 126.845 146.920  0.00  0.00    +0.000 OA
ATOM     79  C   UNL     1     106.533 125.957 147.309  0.00  0.00    +0.000 C 
ATOM     80  C   UNL     1     106.343 125.193 146.694  0.00  0.00    +0.000 C 
ATOM     81  C   UNL     1     106.421 125.301 145.710  0.00  0.00    +0.000 C 
ATOM     82  C   UNL     1     106.695 126.189 145.321  0.00  0.00    +0.000 C 
ATOM     83  O   UNL     1     106.774 126.297 144.337  0.00  0.00    +0.000 OA
ATOM     84  O   UNL     1     106.230 124.537 145.095  0.00  0.00    +0.000 OA
ATOM     85  O   UNL     1     106.068 124.305 147.083  0.00  0.00    +0.000 OA
ATOM     86  C   UNL     1     106.455 125.849 148.293  0.00  0.00    +0.000 C 
ENDBRANCH  76  77
ENDBRANCH  75  76
ENDBRANCH  68  75
ENDBRANCH  65  66
ENDBRANCH  49  65
ENDBRANCH   1  50
TORSDOF 13
ENDMDL
MODEL 3
REMARK VINA RESULT:     -12.4      1.685      8.855
REMARK  Name = 
REMARK  13 active torsions:
REMARK  status: ('A' for Active; 'I' for Inactive)
REMARK    1  A    between atoms: C_1  and  C_56
REMARK    2  A    between atoms: C_2  and  C_7
REMARK    3  A    between atoms: C_12  and  O_20
REMARK    4  A    between atoms: O_20  and  C_21
REMARK    5  A    between atoms: C_23  and  C_30
REMARK    6  A    between atoms: C_30  and  O_31
REMARK    7  A    between atoms: O_31  and  C_34
REMARK    8  A    between atoms: C_45  and  C_50
REMARK    9  A    between atoms: C_55  and  O_63
REMARK   10  A    between atoms: O_63  and  C_64
REMARK   11  A    between atoms: C_66  and  C_73
REMARK   12  A    between atoms: C_73  and  O_74
REMARK   13  A    between atoms: O_74  and  C_77
REMARK                            x       y       z     vdW  Elec       q    Type
REMARK                         _______ _______ _______ _____ _____    ______ ____
ROOT
ATOM      1  C   UNL     1     110.751 126.788 140.368  0.00  0.00    +0.000 A 
ATOM      2  C   UNL     1     111.260 127.083 139.557  0.00  0.00    +0.000 A 
ATOM      3  C   UNL     1     112.269 127.085 139.573  0.00  0.00    +0.000 A 
ATOM      4  C   UNL     1     112.754 126.797 140.390  0.00  0.00    +0.000 A 
ATOM      5  C   UNL     1     112.245 126.503 141.201  0.00  0.00    +0.000 A 
ATOM      6  C   UNL     1     111.252 126.497 141.194  0.00  0.00    +0.000 A 
ATOM      7  O   UNL     1     112.746 126.211 142.027  0.00  0.00    +0.000 OA
ATOM      8  O   UNL     1     110.743 126.203 142.005  0.00  0.00    +0.000 OA
ENDROOT
BRANCH   2   9
ATOM      9  C   UNL     1     110.774 127.371 138.739  0.00  0.00    +0.000 A 
ATOM     10  O   UNL     1     110.361 128.274 138.707  0.00  0.00    +0.000 OA
ATOM     11  C   UNL     1     109.866 128.574 137.881  0.00  0.00    +0.000 A 
ATOM     12  C   UNL     1     109.793 127.958 137.095  0.00  0.00    +0.000 A 
ATOM     13  C   UNL     1     110.215 127.043 137.135  0.00  0.00    +0.000 A 
ATOM     14  C   UNL     1     110.701 126.755 137.952  0.00  0.00    +0.000 A 
ATOM     15  C   UNL     1     109.454 129.477 137.849  0.00  0.00    +0.000 A 
ATOM     16  C   UNL     1     108.958 129.778 137.023  0.00  0.00    +0.000 A 
ATOM     17  C   UNL     1     108.885 129.161 136.236  0.00  0.00    +0.000 A 
ATOM     18  C   UNL     1     109.308 128.245 136.278  0.00  0.00    +0.000 A 
ATOM     19  O   UNL     1     110.144 126.437 136.363  0.00  0.00    +0.000 OA
ATOM     20  O   UNL     1     109.236 127.640 135.505  0.00  0.00    +0.000 OA
ATOM     21  O   UNL     1     108.546 130.680 136.991  0.00  0.00    +0.000 OA
BRANCH  14  22
ATOM     22  O   UNL     1     111.114 125.851 137.985  0.00  0.00    +0.000 OA
BRANCH  22  23
ATOM     23  C   UNL     1     111.943 125.668 137.488  0.00  0.00    +0.000 C 
ATOM     24  O   UNL     1     112.496 126.419 137.142  0.00  0.00    +0.000 OA
ATOM     25  C   UNL     1     113.340 126.232 136.636  0.00  0.00    +0.000 C 
ATOM     26  C   UNL     1     113.631 125.295 136.476  0.00  0.00    +0.000 C 
ATOM     27  C   UNL     1     113.076 124.528 136.824  0.00  0.00    +0.000 C 
ATOM     28  C   UNL     1     112.232 124.714 137.329  0.00  0.00    +0.000 C 
ATOM     29  O   UNL     1     111.679 123.965 137.675  0.00  0.00    +0.000 OA
ATOM     30  O   UNL     1     113.367 123.592 136.663  0.00  0.00    +0.000 OA
ATOM     31  O   UNL     1     114.475 125.109 135.970  0.00  0.00    +0.000 OA
BRANCH  25  32
ATOM     32  C   UNL     1     113.893 126.982 136.290  0.00  0.00    +0.000 C 
BRANCH  32  33
ATOM     33  O   UNL     1     113.465 127.734 135.786  0.00  0.00    +0.000 OA
BRANCH  33  34
ATOM     34  C   UNL     1     113.662 128.688 136.047  0.00  0.00    +0.000 C 
ATOM     35  O   UNL     1     113.271 129.066 136.878  0.00  0.00    +0.000 OA
ATOM     36  C   UNL     1     113.468 130.021 137.140  0.00  0.00    +0.000 C 
ATOM     37  C   UNL     1     114.058 130.584 136.558  0.00  0.00    +0.000 C 
ATOM     38  C   UNL     1     114.451 130.192 135.715  0.00  0.00    +0.000 C 
ATOM     39  C   UNL     1     114.252 129.251 135.465  0.00  0.00    +0.000 C 
ATOM     40  O   UNL     1     114.644 128.859 134.622  0.00  0.00    +0.000 OA
ATOM     41  O   UNL     1     115.040 130.754 135.133  0.00  0.00    +0.000 OA
ATOM     42  O   UNL     1     114.257 131.525 136.808  0.00  0.00    +0.000 OA
ATOM     43  C   UNL     1     113.078 130.399 137.972  0.00  0.00    +0.000 C 
ENDBRANCH  33  34
ENDBRANCH  32  33
ENDBRANCH  25  32
ENDBRANCH  22  23
ENDBRANCH  14  22
ENDBRANCH   2   9
BRANCH   1  50
ATOM     44  C   UNL     1     109.363 129.126 141.554  0.00  0.00    +0.000 A 
ATOM     45  O   UNL     1     109.813 128.336 141.157  0.00  0.00    +0.000 OA
ATOM     46  C   UNL     1     109.279 127.510 140.938  0.00  0.00    +0.000 A 
ATOM     47  C   UNL     1     108.298 127.499 141.125  0.00  0.00    +0.000 A 
ATOM     48  C   UNL     1     107.848 128.291 141.522  0.00  0.00    +0.000 A 
ATOM     49  C   UNL     1     108.382 129.116 141.741  0.00  0.00    +0.000 A 
ATOM     50  C   UNL     1     109.729 126.718 140.540  0.00  0.00    +0.000 A 
ATOM     51  C   UNL     1     109.195 125.893 140.321  0.00  0.00    +0.000 A 
ATOM     52  C   UNL     1     108.214 125.882 140.508  0.00  0.00    +0.000 A 
ATOM     53  C   UNL     1     107.764 126.674 140.905  0.00  0.00    +0.000 A 
ATOM     54  O   UNL     1     106.867 128.280 141.709  0.00  0.00    +0.000 OA
ATOM     55  O   UNL     1     106.783 126.663 141.092  0.00  0.00    +0.000 OA
ATOM     56  O   UNL     1     109.645 125.101 139.923  0.00  0.00    +0.000 OA
BRANCH  44  58
ATOM     57  C   UNL     1     109.929 130.701 141.114  0.00  0.00    +0.000 A 
ATOM     58  C   UNL     1     109.897 129.952 141.773  0.00  0.00    +0.000 A 
ATOM     59  C   UNL     1     110.384 130.014 142.637  0.00  0.00    +0.000 A 
ATOM     60  C   UNL     1     110.917 130.840 142.857  0.00  0.00    +0.000 A 
ATOM     61  C   UNL     1     110.950 131.589 142.198  0.00  0.00    +0.000 A 
ATOM     62  C   UNL     1     110.463 131.527 141.334  0.00  0.00    +0.000 A 
ATOM     63  O   UNL     1     111.477 132.417 142.401  0.00  0.00    +0.000 OA
ATOM     64  O   UNL     1     110.496 132.276 140.674  0.00  0.00    +0.000 OA
ENDBRANCH  44  58
BRANCH  49  65
ATOM     65  O   UNL     1     107.933 129.908 142.139  0.00  0.00    +0.000 OA
BRANCH  65  66
ATOM     66  C   UNL     1     107.604 129.888 143.083  0.00  0.00    +0.000 C 
ATOM     67  O   UNL     1     107.639 129.022 143.596  0.00  0.00    +0.000 OA
ATOM     68  C   UNL     1     107.310 129.002 144.540  0.00  0.00    +0.000 C 
ATOM     69  C   UNL     1     106.953 129.823 144.970  0.00  0.00    +0.000 C 
ATOM     70  C   UNL     1     106.918 130.688 144.457  0.00  0.00    +0.000 C 
ATOM     71  C   UNL     1     107.247 130.708 143.513  0.00  0.00    +0.000 C 
ATOM     72  O   UNL     1     107.212 131.573 142.998  0.00  0.00    +0.000 OA
ATOM     73  O   UNL     1     106.560 131.509 144.886  0.00  0.00    +0.000 OA
ATOM     74  O   UNL     1     106.624 129.803 145.913  0.00  0.00    +0.000 OA
BRANCH  68  75
ATOM     75  C   UNL     1     107.344 128.138 145.054  0.00  0.00    +0.000 C 
BRANCH  75  76
ATOM     76  O   UNL     1     106.993 127.305 144.631  0.00  0.00    +0.000 OA
BRANCH  76  77
ATOM     77  C   UNL     1     106.681 126.548 145.218  0.00  0.00    +0.000 C 
ATOM     78  O   UNL     1     107.178 126.327 146.049  0.00  0.00    +0.000 OA
ATOM     79  C   UNL     1     106.866 125.570 146.637  0.00  0.00    +0.000 C 
ATOM     80  C   UNL     1     106.055 125.050 146.372  0.00  0.00    +0.000 C 
ATOM     81  C   UNL     1     105.558 125.272 145.542  0.00  0.00    +0.000 C 
ATOM     82  C   UNL     1     105.870 126.028 144.955  0.00  0.00    +0.000 C 
ATOM     83  O   UNL     1     105.372 126.250 144.124  0.00  0.00    +0.000 OA
ATOM     84  O   UNL     1     104.746 124.752 145.278  0.00  0.00    +0.000 OA
ATOM     85  O   UNL     1     105.743 124.294 146.960  0.00  0.00    +0.000 OA
ATOM     86  C   UNL     1     107.363 125.349 147.467  0.00  0.00    +0.000 C 
ENDBRANCH  76  77
ENDBRANCH  75  76
ENDBRANCH  68  75
ENDBRANCH  65  66
ENDBRANCH  49  65
ENDBRANCH   1  50
TORSDOF 13
ENDMDL
MODEL 4
REMARK VINA RESULT:     -12.3      3.172      7.900
REMARK  Name = 
REMARK  13 active torsions:
REMARK  status: ('A' for Active; 'I' for Inactive)
REMARK    1  A    between atoms: C_1  and  C_56
REMARK    2  A    between atoms: C_2  and  C_7
REMARK    3  A    between atoms: C_12  and  O_20
REMARK    4  A    between atoms: O_20  and  C_21
REMARK    5  A    between atoms: C_23  and  C_30
REMARK    6  A    between atoms: C_30  and  O_31
REMARK    7  A    between atoms: O_31  and  C_34
REMARK    8  A    between atoms: C_45  and  C_50
REMARK    9  A    between atoms: C_55  and  O_63
REMARK   10  A    between atoms: O_63  and  C_64
REMARK   11  A    between atoms: C_66  and  C_73
REMARK   12  A    between atoms: C_73  and  O_74
REMARK   13  A    between atoms: O_74  and  C_77
REMARK                            x       y       z     vdW  Elec       q    Type
REMARK                         _______ _______ _______ _____ _____    ______ ____
ROOT
ATOM      1  C   UNL     1     105.236 130.461 146.029  0.00  0.00    +0.000 A 
ATOM      2  C   UNL     1     106.090 130.740 146.473  0.00  0.00    +0.000 A 
ATOM      3  C   UNL     1     106.110 130.891 147.470  0.00  0.00    +0.000 A 
ATOM      4  C   UNL     1     105.285 130.764 148.008  0.00  0.00    +0.000 A 
ATOM      5  C   UNL     1     104.431 130.484 147.565  0.00  0.00    +0.000 A 
ATOM      6  C   UNL     1     104.403 130.333 146.584  0.00  0.00    +0.000 A 
ATOM      7  O   UNL     1     103.598 130.356 148.119  0.00  0.00    +0.000 OA
ATOM      8  O   UNL     1     103.549 130.054 146.140  0.00  0.00    +0.000 OA
ENDROOT
BRANCH   2   9
ATOM      9  C   UNL     1     106.915 130.868 145.933  0.00  0.00    +0.000 A 
ATOM     10  O   UNL     1     107.455 130.078 145.668  0.00  0.00    +0.000 OA
ATOM     11  C   UNL     1     108.293 130.199 145.120  0.00  0.00    +0.000 A 
ATOM     12  C   UNL     1     108.578 131.120 144.846  0.00  0.00    +0.000 A 
ATOM     13  C   UNL     1     108.024 131.917 145.120  0.00  0.00    +0.000 A 
ATOM     14  C   UNL     1     107.200 131.789 145.659  0.00  0.00    +0.000 A 
ATOM     15  C   UNL     1     108.833 129.409 144.855  0.00  0.00    +0.000 A 
ATOM     16  C   UNL     1     109.672 129.530 144.307  0.00  0.00    +0.000 A 
ATOM     17  C   UNL     1     109.957 130.450 144.033  0.00  0.00    +0.000 A 
ATOM     18  C   UNL     1     109.402 131.248 144.307  0.00  0.00    +0.000 A 
ATOM     19  O   UNL     1     108.304 132.821 144.850  0.00  0.00    +0.000 OA
ATOM     20  O   UNL     1     109.682 132.152 144.038  0.00  0.00    +0.000 OA
ATOM     21  O   UNL     1     110.211 128.739 144.042  0.00  0.00    +0.000 OA
BRANCH  14  22
ATOM     22  O   UNL     1     106.660 132.580 145.924  0.00  0.00    +0.000 OA
BRANCH  22  23
ATOM     23  C   UNL     1     107.007 133.215 146.591  0.00  0.00    +0.000 C 
ATOM     24  O   UNL     1     107.920 133.098 146.967  0.00  0.00    +0.000 OA
ATOM     25  C   UNL     1     108.273 133.744 147.646  0.00  0.00    +0.000 C 
ATOM     26  C   UNL     1     107.712 134.507 147.949  0.00  0.00    +0.000 C 
ATOM     27  C   UNL     1     106.785 134.633 147.572  0.00  0.00    +0.000 C 
ATOM     28  C   UNL     1     106.432 133.987 146.894  0.00  0.00    +0.000 C 
ATOM     29  O   UNL     1     105.520 134.103 146.518  0.00  0.00    +0.000 OA
ATOM     30  O   UNL     1     106.225 135.396 147.875  0.00  0.00    +0.000 OA
ATOM     31  O   UNL     1     108.065 135.153 148.627  0.00  0.00    +0.000 OA
BRANCH  25  32
ATOM     32  C   UNL     1     109.185 133.627 148.021  0.00  0.00    +0.000 C 
BRANCH  32  33
ATOM     33  O   UNL     1     109.986 133.930 147.504  0.00  0.00    +0.000 OA
BRANCH  33  34
ATOM     34  C   UNL     1     110.875 133.472 147.643  0.00  0.00    +0.000 C 
ATOM     35  O   UNL     1     111.160 133.210 148.558  0.00  0.00    +0.000 OA
ATOM     36  C   UNL     1     112.049 132.751 148.697  0.00  0.00    +0.000 C 
ATOM     37  C   UNL     1     112.639 132.563 147.911  0.00  0.00    +0.000 C 
ATOM     38  C   UNL     1     112.341 132.832 146.984  0.00  0.00    +0.000 C 
ATOM     39  C   UNL     1     111.465 133.283 146.856  0.00  0.00    +0.000 C 
ATOM     40  O   UNL     1     111.167 133.552 145.930  0.00  0.00    +0.000 OA
ATOM     41  O   UNL     1     112.931 132.643 146.198  0.00  0.00    +0.000 OA
ATOM     42  O   UNL     1     113.516 132.112 148.039  0.00  0.00    +0.000 OA
ATOM     43  C   UNL     1     112.335 132.490 149.612  0.00  0.00    +0.000 C 
ENDBRANCH  33  34
ENDBRANCH  32  33
ENDBRANCH  25  32
ENDBRANCH  22  23
ENDBRANCH  14  22
ENDBRANCH   2   9
BRANCH   1  50
ATOM     44  C   UNL     1     105.488 127.664 145.072  0.00  0.00    +0.000 A 
ATOM     45  O   UNL     1     105.399 128.605 145.376  0.00  0.00    +0.000 OA
ATOM     46  C   UNL     1     105.112 129.320 144.727  0.00  0.00    +0.000 A 
ATOM     47  C   UNL     1     104.920 129.069 143.779  0.00  0.00    +0.000 A 
ATOM     48  C   UNL     1     105.009 128.128 143.474  0.00  0.00    +0.000 A 
ATOM     49  C   UNL     1     105.296 127.413 144.124  0.00  0.00    +0.000 A 
ATOM     50  C   UNL     1     105.023 130.261 145.032  0.00  0.00    +0.000 A 
ATOM     51  C   UNL     1     104.736 130.976 144.382  0.00  0.00    +0.000 A 
ATOM     52  C   UNL     1     104.544 130.725 143.435  0.00  0.00    +0.000 A 
ATOM     53  C   UNL     1     104.633 129.784 143.130  0.00  0.00    +0.000 A 
ATOM     54  O   UNL     1     104.817 127.877 142.527  0.00  0.00    +0.000 OA
ATOM     55  O   UNL     1     104.441 129.533 142.183  0.00  0.00    +0.000 OA
ATOM     56  O   UNL     1     104.647 131.917 144.687  0.00  0.00    +0.000 OA
BRANCH  44  58
ATOM     57  C   UNL     1     106.725 126.923 146.028  0.00  0.00    +0.000 A 
ATOM     58  C   UNL     1     105.776 126.950 145.721  0.00  0.00    +0.000 A 
ATOM     59  C   UNL     1     105.117 126.282 146.048  0.00  0.00    +0.000 A 
ATOM     60  C   UNL     1     105.404 125.567 146.697  0.00  0.00    +0.000 A 
ATOM     61  C   UNL     1     106.353 125.541 147.005  0.00  0.00    +0.000 A 
ATOM     62  C   UNL     1     107.012 126.208 146.678  0.00  0.00    +0.000 A 
ATOM     63  O   UNL     1     106.655 124.836 147.651  0.00  0.00    +0.000 OA
ATOM     64  O   UNL     1     107.962 126.182 146.985  0.00  0.00    +0.000 OA
ENDBRANCH  44  58
BRANCH  49  65
ATOM     65  O   UNL     1     105.386 126.472 143.820  0.00  0.00    +0.000 OA
BRANCH  65  66
ATOM     66  C   UNL     1     106.051 126.224 143.116  0.00  0.00    +0.000 C 
ATOM     67  O   UNL     1     106.739 126.901 142.831  0.00  0.00    +0.000 OA
ATOM     68  C   UNL     1     107.405 126.653 142.127  0.00  0.00    +0.000 C 
ATOM     69  C   UNL     1     107.391 125.751 141.712  0.00  0.00    +0.000 C 
ATOM     70  C   UNL     1     106.703 125.074 141.997  0.00  0.00    +0.000 C 
ATOM     71  C   UNL     1     106.038 125.322 142.701  0.00  0.00    +0.000 C 
ATOM     72  O   UNL     1     105.350 124.646 142.987  0.00  0.00    +0.000 OA
ATOM     73  O   UNL     1     106.689 124.172 141.583  0.00  0.00    +0.000 OA
ATOM     74  O   UNL     1     108.056 125.503 141.009  0.00  0.00    +0.000 OA
BRANCH  68  75
ATOM     75  C   UNL     1     108.093 127.330 141.841  0.00  0.00    +0.000 C 
BRANCH  75  76
ATOM     76  O   UNL     1     107.792 128.179 141.410  0.00  0.00    +0.000 OA
BRANCH  76  77
ATOM     77  C   UNL     1     108.482 128.826 141.064  0.00  0.00    +0.000 C 
ATOM     78  O   UNL     1     109.416 128.524 140.914  0.00  0.00    +0.000 OA
ATOM     79  C   UNL     1     110.106 129.171 140.568  0.00  0.00    +0.000 C 
ATOM     80  C   UNL     1     109.838 130.115 140.381  0.00  0.00    +0.000 C 
ATOM     81  C   UNL     1     108.904 130.418 140.531  0.00  0.00    +0.000 C 
ATOM     82  C   UNL     1     108.214 129.770 140.876  0.00  0.00    +0.000 C 
ATOM     83  O   UNL     1     107.280 130.073 141.027  0.00  0.00    +0.000 OA
ATOM     84  O   UNL     1     108.636 131.362 140.343  0.00  0.00    +0.000 OA
ATOM     85  O   UNL     1     110.527 130.763 140.035  0.00  0.00    +0.000 OA
ATOM     86  C   UNL     1     111.039 128.869 140.418  0.00  0.00    +0.000 C 
ENDBRANCH  76  77
ENDBRANCH  75  76
ENDBRANCH  68  75
ENDBRANCH  65  66
ENDBRANCH  49  65
ENDBRANCH   1  50
TORSDOF 13
ENDMDL
MODEL 5
REMARK VINA RESULT:     -11.9      3.594      7.837
REMARK  Name = 
REMARK  13 active torsions:
REMARK  status: ('A' for Active; 'I' for Inactive)
REMARK    1  A    between atoms: C_1  and  C_56
REMARK    2  A    between atoms: C_2  and  C_7
REMARK    3  A    between atoms: C_12  and  O_20
REMARK    4  A    between atoms: O_20  and  C_21
REMARK    5  A    between atoms: C_23  and  C_30
REMARK    6  A    between atoms: C_30  and  O_31
REMARK    7  A    between atoms: O_31  and  C_34
REMARK    8  A    between atoms: C_45  and  C_50
REMARK    9  A    between atoms: C_55  and  O_63
REMARK   10  A    between atoms: O_63  and  C_64
REMARK   11  A    between atoms: C_66  and  C_73
REMARK   12  A    between atoms: C_73  and  O_74
REMARK   13  A    between atoms: O_74  and  C_77
REMARK                            x       y       z     vdW  Elec       q    Type
REMARK                         _______ _______ _______ _____ _____    ______ ____
ROOT
ATOM      1  C   UNL     1     105.594 130.207 144.453  0.00  0.00    +0.000 A 
ATOM      2  C   UNL     1     104.607 130.107 144.594  0.00  0.00    +0.000 A 
ATOM      3  C   UNL     1     104.253 129.871 145.509  0.00  0.00    +0.000 A 
ATOM      4  C   UNL     1     104.882 129.739 146.266  0.00  0.00    +0.000 A 
ATOM      5  C   UNL     1     105.869 129.839 146.125  0.00  0.00    +0.000 A 
ATOM      6  C   UNL     1     106.226 130.071 145.228  0.00  0.00    +0.000 A 
ATOM      7  O   UNL     1     106.501 129.703 146.900  0.00  0.00    +0.000 OA
ATOM      8  O   UNL     1     107.213 130.171 145.087  0.00  0.00    +0.000 OA
ENDROOT
BRANCH   2   9
ATOM      9  C   UNL     1     103.978 130.239 143.836  0.00  0.00    +0.000 A 
ATOM     10  O   UNL     1     104.082 129.695 143.012  0.00  0.00    +0.000 OA
ATOM     11  C   UNL     1     103.448 129.823 142.238  0.00  0.00    +0.000 A 
ATOM     12  C   UNL     1     102.713 130.501 142.305  0.00  0.00    +0.000 A 
ATOM     13  C   UNL     1     102.615 131.050 143.145  0.00  0.00    +0.000 A 
ATOM     14  C   UNL     1     103.243 130.917 143.903  0.00  0.00    +0.000 A 
ATOM     15  C   UNL     1     103.552 129.278 141.414  0.00  0.00    +0.000 A 
ATOM     16  C   UNL     1     102.918 129.406 140.639  0.00  0.00    +0.000 A 
ATOM     17  C   UNL     1     102.183 130.085 140.706  0.00  0.00    +0.000 A 
ATOM     18  C   UNL     1     102.085 130.634 141.548  0.00  0.00    +0.000 A 
ATOM     19  O   UNL     1     101.893 131.716 143.211  0.00  0.00    +0.000 OA
ATOM     20  O   UNL     1     101.363 131.300 141.613  0.00  0.00    +0.000 OA
ATOM     21  O   UNL     1     103.022 128.862 139.815  0.00  0.00    +0.000 OA
BRANCH  14  22
ATOM     22  O   UNL     1     103.139 131.462 144.727  0.00  0.00    +0.000 OA
BRANCH  22  23
ATOM     23  C   UNL     1     103.147 132.445 144.676  0.00  0.00    +0.000 C 
ATOM     24  O   UNL     1     103.437 132.900 143.841  0.00  0.00    +0.000 OA
ATOM     25  C   UNL     1     103.445 133.900 143.789  0.00  0.00    +0.000 C 
ATOM     26  C   UNL     1     103.162 134.445 144.571  0.00  0.00    +0.000 C 
ATOM     27  C   UNL     1     102.867 133.990 145.422  0.00  0.00    +0.000 C 
ATOM     28  C   UNL     1     102.859 132.990 145.475  0.00  0.00    +0.000 C 
ATOM     29  O   UNL     1     102.570 132.534 146.309  0.00  0.00    +0.000 OA
ATOM     30  O   UNL     1     102.585 134.535 146.204  0.00  0.00    +0.000 OA
ATOM     31  O   UNL     1     103.170 135.444 144.519  0.00  0.00    +0.000 OA
BRANCH  25  32
ATOM     32  C   UNL     1     103.734 134.356 142.955  0.00  0.00    +0.000 C 
BRANCH  32  33
ATOM     33  O   UNL     1     104.113 133.825 142.195  0.00  0.00    +0.000 OA
BRANCH  33  34
ATOM     34  C   UNL     1     103.897 134.087 141.245  0.00  0.00    +0.000 C 
ATOM     35  O   UNL     1     103.364 134.906 141.065  0.00  0.00    +0.000 OA
ATOM     36  C   UNL     1     103.147 135.167 140.113  0.00  0.00    +0.000 C 
ATOM     37  C   UNL     1     103.471 134.599 139.356  0.00  0.00    +0.000 C 
ATOM     38  C   UNL     1     104.012 133.768 139.549  0.00  0.00    +0.000 C 
ATOM     39  C   UNL     1     104.221 133.518 140.487  0.00  0.00    +0.000 C 
ATOM     40  O   UNL     1     104.761 132.688 140.679  0.00  0.00    +0.000 OA
ATOM     41  O   UNL     1     104.336 133.200 138.791  0.00  0.00    +0.000 OA
ATOM     42  O   UNL     1     103.262 134.849 138.417  0.00  0.00    +0.000 OA
ATOM     43  C   UNL     1     102.614 135.986 139.933  0.00  0.00    +0.000 C 
ENDBRANCH  33  34
ENDBRANCH  32  33
ENDBRANCH  25  32
ENDBRANCH  22  23
ENDBRANCH  14  22
ENDBRANCH   2   9
BRANCH   1  50
ATOM     44  C   UNL     1     106.566 127.981 142.750  0.00  0.00    +0.000 A 
ATOM     45  O   UNL     1     106.248 128.737 143.309  0.00  0.00    +0.000 OA
ATOM     46  C   UNL     1     106.456 129.685 143.039  0.00  0.00    +0.000 A 
ATOM     47  C   UNL     1     106.983 129.852 142.208  0.00  0.00    +0.000 A 
ATOM     48  C   UNL     1     107.301 129.095 141.648  0.00  0.00    +0.000 A 
ATOM     49  C   UNL     1     107.093 128.147 141.917  0.00  0.00    +0.000 A 
ATOM     50  C   UNL     1     106.138 130.442 143.599  0.00  0.00    +0.000 A 
ATOM     51  C   UNL     1     106.346 131.390 143.330  0.00  0.00    +0.000 A 
ATOM     52  C   UNL     1     106.873 131.556 142.498  0.00  0.00    +0.000 A 
ATOM     53  C   UNL     1     107.191 130.800 141.938  0.00  0.00    +0.000 A 
ATOM     54  O   UNL     1     107.828 129.261 140.816  0.00  0.00    +0.000 OA
ATOM     55  O   UNL     1     107.718 130.966 141.106  0.00  0.00    +0.000 OA
ATOM     56  O   UNL     1     106.027 132.147 143.889  0.00  0.00    +0.000 OA
BRANCH  44  58
ATOM     57  C   UNL     1     106.704 126.686 143.889  0.00  0.00    +0.000 A 
ATOM     58  C   UNL     1     106.357 127.033 143.019  0.00  0.00    +0.000 A 
ATOM     59  C   UNL     1     105.813 126.455 142.422  0.00  0.00    +0.000 A 
ATOM     60  C   UNL     1     105.605 125.507 142.691  0.00  0.00    +0.000 A 
ATOM     61  C   UNL     1     105.952 125.160 143.561  0.00  0.00    +0.000 A 
ATOM     62  C   UNL     1     106.496 125.737 144.158  0.00  0.00    +0.000 A 
ATOM     63  O   UNL     1     105.753 124.218 143.844  0.00  0.00    +0.000 OA
ATOM     64  O   UNL     1     106.843 125.390 145.028  0.00  0.00    +0.000 OA
ENDBRANCH  44  58
BRANCH  49  65
ATOM     65  O   UNL     1     107.410 127.390 141.359  0.00  0.00    +0.000 OA
BRANCH  65  66
ATOM     66  C   UNL     1     108.381 127.154 141.323  0.00  0.00    +0.000 C 
ATOM     67  O   UNL     1     109.031 127.662 141.900  0.00  0.00    +0.000 OA
ATOM     68  C   UNL     1     110.002 127.426 141.865  0.00  0.00    +0.000 C 
ATOM     69  C   UNL     1     110.326 126.700 141.270  0.00  0.00    +0.000 C 
ATOM     70  C   UNL     1     109.676 126.192 140.693  0.00  0.00    +0.000 C 
ATOM     71  C   UNL     1     108.705 126.428 140.729  0.00  0.00    +0.000 C 
ATOM     72  O   UNL     1     108.055 125.920 140.152  0.00  0.00    +0.000 OA
ATOM     73  O   UNL     1     110.000 125.466 140.099  0.00  0.00    +0.000 OA
ATOM     74  O   UNL     1     111.296 126.464 141.234  0.00  0.00    +0.000 OA
BRANCH  68  75
ATOM     75  C   UNL     1     110.653 127.934 142.441  0.00  0.00    +0.000 C 
BRANCH  75  76
ATOM     76  O   UNL     1     110.552 128.923 142.534  0.00  0.00    +0.000 OA
BRANCH  76  77
ATOM     77  C   UNL     1     110.934 129.382 143.346  0.00  0.00    +0.000 C 
ATOM     78  O   UNL     1     111.301 128.843 144.095  0.00  0.00    +0.000 OA
ATOM     79  C   UNL     1     111.683 129.302 144.906  0.00  0.00    +0.000 C 
ATOM     80  C   UNL     1     111.687 130.300 144.945  0.00  0.00    +0.000 C 
ATOM     81  C   UNL     1     111.321 130.839 144.196  0.00  0.00    +0.000 C 
ATOM     82  C   UNL     1     110.939 130.380 143.385  0.00  0.00    +0.000 C 
ATOM     83  O   UNL     1     110.572 130.919 142.635  0.00  0.00    +0.000 OA
ATOM     84  O   UNL     1     111.325 131.837 144.234  0.00  0.00    +0.000 OA
ATOM     85  O   UNL     1     112.069 130.759 145.756  0.00  0.00    +0.000 OA
ATOM     86  C   UNL     1     112.050 128.763 145.655  0.00  0.00    +0.000 C 
ENDBRANCH  76  77
ENDBRANCH  75  76
ENDBRANCH  68  75
ENDBRANCH  65  66
ENDBRANCH  49  65
ENDBRANCH   1  50
TORSDOF 13
ENDMDL
MODEL 6
REMARK VINA RESULT:     -11.5      2.926      6.154
REMARK  Name = 
REMARK  13 active torsions:
REMARK  status: ('A' for Active; 'I' for Inactive)
REMARK    1  A    between atoms: C_1  and  C_56
REMARK    2  A    between atoms: C_2  and  C_7
REMARK    3  A    between atoms: C_12  and  O_20
REMARK    4  A    between atoms: O_20  and  C_21
REMARK    5  A    between atoms: C_23  and  C_30
REMARK    6  A    between atoms: C_30  and  O_31
REMARK    7  A    between atoms: O_31  and  C_34
REMARK    8  A    between atoms: C_45  and  C_50
REMARK    9  A    between atoms: C_55  and  O_63
REMARK   10  A    between atoms: O_63  and  C_64
REMARK   11  A    between atoms: C_66  and  C_73
REMARK   12  A    between atoms: C_73  and  O_74
REMARK   13  A    between atoms: O_74  and  C_77
REMARK                            x       y       z     vdW  Elec       q    Type
REMARK                         _______ _______ _______ _____ _____    ______ ____
ROOT
ATOM      1  C   UNL     1     107.497 130.699 143.853  0.00  0.00    +0.000 A 
ATOM      2  C   UNL     1     106.631 130.347 143.493  0.00  0.00    +0.000 A 
ATOM      3  C   UNL     1     105.924 130.990 143.174  0.00  0.00    +0.000 A 
ATOM      4  C   UNL     1     106.086 131.969 143.217  0.00  0.00    +0.000 A 
ATOM      5  C   UNL     1     106.952 132.322 143.577  0.00  0.00    +0.000 A 
ATOM      6  C   UNL     1     107.654 131.695 143.894  0.00  0.00    +0.000 A 
ATOM      7  O   UNL     1     107.108 133.318 143.617  0.00  0.00    +0.000 OA
ATOM      8  O   UNL     1     108.520 132.048 144.254  0.00  0.00    +0.000 OA
ENDROOT
BRANCH   2   9
ATOM      9  C   UNL     1     106.470 129.367 143.450  0.00  0.00    +0.000 A 
ATOM     10  O   UNL     1     107.112 128.785 142.965  0.00  0.00    +0.000 OA
ATOM     11  C   UNL     1     106.955 127.790 142.917  0.00  0.00    +0.000 A 
ATOM     12  C   UNL     1     106.149 127.392 143.361  0.00  0.00    +0.000 A 
ATOM     13  C   UNL     1     105.502 127.990 143.852  0.00  0.00    +0.000 A 
ATOM     14  C   UNL     1     105.664 128.969 143.894  0.00  0.00    +0.000 A 
ATOM     15  C   UNL     1     107.596 127.208 142.431  0.00  0.00    +0.000 A 
ATOM     16  C   UNL     1     107.440 126.212 142.383  0.00  0.00    +0.000 A 
ATOM     17  C   UNL     1     106.634 125.814 142.827  0.00  0.00    +0.000 A 
ATOM     18  C   UNL     1     105.987 126.413 143.318  0.00  0.00    +0.000 A 
ATOM     19  O   UNL     1     104.711 127.600 144.287  0.00  0.00    +0.000 OA
ATOM     20  O   UNL     1     105.196 126.023 143.754  0.00  0.00    +0.000 OA
ATOM     21  O   UNL     1     108.082 125.630 141.897  0.00  0.00    +0.000 OA
BRANCH  14  22
ATOM     22  O   UNL     1     105.022 129.552 144.380  0.00  0.00    +0.000 OA
BRANCH  22  23
ATOM     23  C   UNL     1     104.873 129.428 145.345  0.00  0.00    +0.000 C 
ATOM     24  O   UNL     1     105.401 128.754 145.851  0.00  0.00    +0.000 OA
ATOM     25  C   UNL     1     105.250 128.628 146.832  0.00  0.00    +0.000 C 
ATOM     26  C   UNL     1     104.571 129.176 147.309  0.00  0.00    +0.000 C 
ATOM     27  C   UNL     1     104.031 129.863 146.803  0.00  0.00    +0.000 C 
ATOM     28  C   UNL     1     104.182 129.988 145.821  0.00  0.00    +0.000 C 
ATOM     29  O   UNL     1     103.655 130.662 145.315  0.00  0.00    +0.000 OA
ATOM     30  O   UNL     1     103.353 130.410 147.279  0.00  0.00    +0.000 OA
ATOM     31  O   UNL     1     104.420 129.050 148.290  0.00  0.00    +0.000 OA
BRANCH  25  32
ATOM     32  C   UNL     1     105.777 127.955 147.338  0.00  0.00    +0.000 C 
BRANCH  32  33
ATOM     33  O   UNL     1     105.970 127.059 146.935  0.00  0.00    +0.000 OA
BRANCH  33  34
ATOM     34  C   UNL     1     106.415 126.344 147.493  0.00  0.00    +0.000 C 
ATOM     35  O   UNL     1     105.938 125.956 148.273  0.00  0.00    +0.000 OA
ATOM     36  C   UNL     1     106.383 125.241 148.831  0.00  0.00    +0.000 C 
ATOM     37  C   UNL     1     107.304 124.927 148.594  0.00  0.00    +0.000 C 
ATOM     38  C   UNL     1     107.780 125.328 147.799  0.00  0.00    +0.000 C 
ATOM     39  C   UNL     1     107.335 126.031 147.256  0.00  0.00    +0.000 C 
ATOM     40  O   UNL     1     107.812 126.431 146.461  0.00  0.00    +0.000 OA
ATOM     41  O   UNL     1     108.701 125.014 147.562  0.00  0.00    +0.000 OA
ATOM     42  O   UNL     1     107.749 124.224 149.137  0.00  0.00    +0.000 OA
ATOM     43  C   UNL     1     105.907 124.852 149.612  0.00  0.00    +0.000 C 
ENDBRANCH  33  34
ENDBRANCH  32  33
ENDBRANCH  25  32
ENDBRANCH  22  23
ENDBRANCH  14  22
ENDBRANCH   2   9
BRANCH   1  50
ATOM     44  C   UNL     1     109.677 130.015 141.961  0.00  0.00    +0.000 A 
ATOM     45  O   UNL     1     108.957 130.237 142.607  0.00  0.00    +0.000 OA
ATOM     46  C   UNL     1     109.053 129.980 143.576  0.00  0.00    +0.000 A 
ATOM     47  C   UNL     1     109.878 129.503 143.875  0.00  0.00    +0.000 A 
ATOM     48  C   UNL     1     110.599 129.281 143.229  0.00  0.00    +0.000 A 
ATOM     49  C   UNL     1     110.502 129.538 142.259  0.00  0.00    +0.000 A 
ATOM     50  C   UNL     1     108.332 130.202 144.223  0.00  0.00    +0.000 A 
ATOM     51  C   UNL     1     108.428 129.945 145.192  0.00  0.00    +0.000 A 
ATOM     52  C   UNL     1     109.253 129.468 145.491  0.00  0.00    +0.000 A 
ATOM     53  C   UNL     1     109.974 129.246 144.845  0.00  0.00    +0.000 A 
ATOM     54  O   UNL     1     111.423 128.804 143.527  0.00  0.00    +0.000 OA
ATOM     55  O   UNL     1     110.798 128.769 145.143  0.00  0.00    +0.000 OA
ATOM     56  O   UNL     1     107.707 130.167 145.839  0.00  0.00    +0.000 OA
BRANCH  44  58
ATOM     57  C   UNL     1     109.853 131.187 140.700  0.00  0.00    +0.000 A 
ATOM     58  C   UNL     1     109.581 130.272 140.992  0.00  0.00    +0.000 A 
ATOM     59  C   UNL     1     109.219 129.617 140.338  0.00  0.00    +0.000 A 
ATOM     60  C   UNL     1     109.123 129.874 139.368  0.00  0.00    +0.000 A 
ATOM     61  C   UNL     1     109.395 130.789 139.077  0.00  0.00    +0.000 A 
ATOM     62  C   UNL     1     109.757 131.444 139.731  0.00  0.00    +0.000 A 
ATOM     63  O   UNL     1     109.305 131.060 138.116  0.00  0.00    +0.000 OA
ATOM     64  O   UNL     1     110.029 132.359 139.439  0.00  0.00    +0.000 OA
ENDBRANCH  44  58
BRANCH  49  65
ATOM     65  O   UNL     1     111.222 129.316 141.612  0.00  0.00    +0.000 OA
BRANCH  65  66
ATOM     66  C   UNL     1     112.079 129.831 141.606  0.00  0.00    +0.000 C 
ATOM     67  O   UNL     1     112.196 130.597 142.250  0.00  0.00    +0.000 OA
ATOM     68  C   UNL     1     113.053 131.112 142.244  0.00  0.00    +0.000 C 
ATOM     69  C   UNL     1     113.782 130.875 141.613  0.00  0.00    +0.000 C 
ATOM     70  C   UNL     1     113.666 130.109 140.970  0.00  0.00    +0.000 C 
ATOM     71  C   UNL     1     112.809 129.594 140.976  0.00  0.00    +0.000 C 
ATOM     72  O   UNL     1     112.691 128.829 140.333  0.00  0.00    +0.000 OA
ATOM     73  O   UNL     1     114.395 129.873 140.340  0.00  0.00    +0.000 OA
ATOM     74  O   UNL     1     114.639 131.389 141.607  0.00  0.00    +0.000 OA
BRANCH  68  75
ATOM     75  C   UNL     1     113.171 131.878 142.887  0.00  0.00    +0.000 C 
BRANCH  75  76
ATOM     76  O   UNL     1     112.396 132.479 143.075  0.00  0.00    +0.000 OA
BRANCH  76  77
ATOM     77  C   UNL     1     112.180 132.719 144.029  0.00  0.00    +0.000 C 
ATOM     78  O   UNL     1     112.371 132.072 144.759  0.00  0.00    +0.000 OA
ATOM     79  C   UNL     1     112.155 132.312 145.714  0.00  0.00    +0.000 C 
ATOM     80  C   UNL     1     111.750 133.204 145.912  0.00  0.00    +0.000 C 
ATOM     81  C   UNL     1     111.559 133.849 145.183  0.00  0.00    +0.000 C 
ATOM     82  C   UNL     1     111.775 133.610 144.229  0.00  0.00    +0.000 C 
ATOM     83  O   UNL     1     111.585 134.256 143.499  0.00  0.00    +0.000 OA
ATOM     84  O   UNL     1     111.154 134.741 145.382  0.00  0.00    +0.000 OA
ATOM     85  O   UNL     1     111.534 133.443 146.867  0.00  0.00    +0.000 OA
ATOM     86  C   UNL     1     112.345 131.666 146.443  0.00  0.00    +0.000 C 
ENDBRANCH  76  77
ENDBRANCH  75  76
ENDBRANCH  68  75
ENDBRANCH  65  66
ENDBRANCH  49  65
ENDBRANCH   1  50
TORSDOF 13
ENDMDL
MODEL 7
REMARK VINA RESULT:     -11.5      5.436      9.059
REMARK  Name = 
REMARK  13 active torsions:
REMARK  status: ('A' for Active; 'I' for Inactive)
REMARK    1  A    between atoms: C_1  and  C_56
REMARK    2  A    between atoms: C_2  and  C_7
REMARK    3  A    between atoms: C_12  and  O_20
REMARK    4  A    between atoms: O_20  and  C_21
REMARK    5  A    between atoms: C_23  and  C_30
REMARK    6  A    between atoms: C_30  and  O_31
REMARK    7  A    between atoms: O_31  and  C_34
REMARK    8  A    between atoms: C_45  and  C_50
REMARK    9  A    between atoms: C_55  and  O_63
REMARK   10  A    between atoms: O_63  and  C_64
REMARK   11  A    between atoms: C_66  and  C_73
REMARK   12  A    between atoms: C_73  and  O_74
REMARK   13  A    between atoms: O_74  and  C_77
REMARK                            x       y       z     vdW  Elec       q    Type
REMARK                         _______ _______ _______ _____ _____    ______ ____
ROOT
ATOM      1  C   UNL     1     105.897 129.778 145.281  0.00  0.00    +0.000 A 
ATOM      2  C   UNL     1     105.484 128.869 145.358  0.00  0.00    +0.000 A 
ATOM      3  C   UNL     1     104.874 128.661 146.133  0.00  0.00    +0.000 A 
ATOM      4  C   UNL     1     104.684 129.355 146.817  0.00  0.00    +0.000 A 
ATOM      5  C   UNL     1     105.098 130.265 146.740  0.00  0.00    +0.000 A 
ATOM      6  C   UNL     1     105.700 130.478 145.980  0.00  0.00    +0.000 A 
ATOM      7  O   UNL     1     104.900 130.965 147.439  0.00  0.00    +0.000 OA
ATOM      8  O   UNL     1     106.113 131.388 145.903  0.00  0.00    +0.000 OA
ENDROOT
BRANCH   2   9
ATOM      9  C   UNL     1     105.674 128.174 144.673  0.00  0.00    +0.000 A 
ATOM     10  O   UNL     1     105.234 128.228 143.784  0.00  0.00    +0.000 OA
ATOM     11  C   UNL     1     105.422 127.527 143.084  0.00  0.00    +0.000 A 
ATOM     12  C   UNL     1     106.053 126.776 143.289  0.00  0.00    +0.000 A 
ATOM     13  C   UNL     1     106.496 126.729 144.194  0.00  0.00    +0.000 A 
ATOM     14  C   UNL     1     106.306 127.423 144.878  0.00  0.00    +0.000 A 
ATOM     15  C   UNL     1     104.982 127.581 142.195  0.00  0.00    +0.000 A 
ATOM     16  C   UNL     1     105.169 126.879 141.494  0.00  0.00    +0.000 A 
ATOM     17  C   UNL     1     105.801 126.129 141.700  0.00  0.00    +0.000 A 
ATOM     18  C   UNL     1     106.243 126.082 142.606  0.00  0.00    +0.000 A 
ATOM     19  O   UNL     1     107.116 125.992 144.396  0.00  0.00    +0.000 OA
ATOM     20  O   UNL     1     106.864 125.345 142.807  0.00  0.00    +0.000 OA
ATOM     21  O   UNL     1     104.729 126.934 140.606  0.00  0.00    +0.000 OA
BRANCH  14  22
ATOM     22  O   UNL     1     106.746 127.369 145.768  0.00  0.00    +0.000 OA
BRANCH  22  23
ATOM     23  C   UNL     1     106.637 126.566 146.326  0.00  0.00    +0.000 C 
ATOM     24  O   UNL     1     105.800 126.032 146.277  0.00  0.00    +0.000 OA
ATOM     25  C   UNL     1     105.689 125.215 146.845  0.00  0.00    +0.000 C 
ATOM     26  C   UNL     1     106.415 124.932 147.462  0.00  0.00    +0.000 C 
ATOM     27  C   UNL     1     107.268 125.469 147.518  0.00  0.00    +0.000 C 
ATOM     28  C   UNL     1     107.379 126.286 146.950  0.00  0.00    +0.000 C 
ATOM     29  O   UNL     1     108.215 126.820 146.999  0.00  0.00    +0.000 OA
ATOM     30  O   UNL     1     107.993 125.186 148.135  0.00  0.00    +0.000 OA
ATOM     31  O   UNL     1     106.305 124.115 148.030  0.00  0.00    +0.000 OA
BRANCH  25  32
ATOM     32  C   UNL     1     104.853 124.680 146.796  0.00  0.00    +0.000 C 
BRANCH  32  33
ATOM     33  O   UNL     1     104.122 124.825 147.464  0.00  0.00    +0.000 OA
BRANCH  33  34
ATOM     34  C   UNL     1     103.264 124.300 147.390  0.00  0.00    +0.000 C 
ATOM     35  O   UNL     1     102.995 123.911 146.516  0.00  0.00    +0.000 OA
ATOM     36  C   UNL     1     102.136 123.384 146.441  0.00  0.00    +0.000 C 
ATOM     37  C   UNL     1     101.559 123.257 147.249  0.00  0.00    +0.000 C 
ATOM     38  C   UNL     1     101.840 123.656 148.133  0.00  0.00    +0.000 C 
ATOM     39  C   UNL     1     102.687 124.172 148.198  0.00  0.00    +0.000 C 
ATOM     40  O   UNL     1     102.968 124.571 149.082  0.00  0.00    +0.000 OA
ATOM     41  O   UNL     1     101.264 123.529 148.941  0.00  0.00    +0.000 OA
ATOM     42  O   UNL     1     100.712 122.741 147.184  0.00  0.00    +0.000 OA
ATOM     43  C   UNL     1     101.867 122.995 145.567  0.00  0.00    +0.000 C 
ENDBRANCH  33  34
ENDBRANCH  32  33
ENDBRANCH  25  32
ENDBRANCH  22  23
ENDBRANCH  14  22
ENDBRANCH   2   9
BRANCH   1  50
ATOM     44  C   UNL     1     104.714 131.078 142.891  0.00  0.00    +0.000 A 
ATOM     45  O   UNL     1     105.126 130.646 143.684  0.00  0.00    +0.000 OA
ATOM     46  C   UNL     1     106.128 130.605 143.772  0.00  0.00    +0.000 A 
ATOM     47  C   UNL     1     106.697 131.002 143.054  0.00  0.00    +0.000 A 
ATOM     48  C   UNL     1     106.285 131.434 142.259  0.00  0.00    +0.000 A 
ATOM     49  C   UNL     1     105.282 131.475 142.172  0.00  0.00    +0.000 A 
ATOM     50  C   UNL     1     106.540 130.174 144.566  0.00  0.00    +0.000 A 
ATOM     51  C   UNL     1     107.543 130.133 144.654  0.00  0.00    +0.000 A 
ATOM     52  C   UNL     1     108.112 130.530 143.935  0.00  0.00    +0.000 A 
ATOM     53  C   UNL     1     107.700 130.962 143.141  0.00  0.00    +0.000 A 
ATOM     54  O   UNL     1     106.854 131.831 141.541  0.00  0.00    +0.000 OA
ATOM     55  O   UNL     1     108.269 131.359 142.423  0.00  0.00    +0.000 OA
ATOM     56  O   UNL     1     107.955 129.701 145.448  0.00  0.00    +0.000 OA
BRANCH  44  58
ATOM     57  C   UNL     1     103.270 130.669 142.028  0.00  0.00    +0.000 A 
ATOM     58  C   UNL     1     103.711 131.118 142.803  0.00  0.00    +0.000 A 
ATOM     59  C   UNL     1     103.172 131.602 143.484  0.00  0.00    +0.000 A 
ATOM     60  C   UNL     1     102.169 131.643 143.396  0.00  0.00    +0.000 A 
ATOM     61  C   UNL     1     101.729 131.193 142.621  0.00  0.00    +0.000 A 
ATOM     62  C   UNL     1     102.267 130.709 141.941  0.00  0.00    +0.000 A 
ATOM     63  O   UNL     1     100.732 131.225 142.519  0.00  0.00    +0.000 OA
ATOM     64  O   UNL     1     101.827 130.260 141.166  0.00  0.00    +0.000 OA
ENDBRANCH  44  58
BRANCH  49  65
ATOM     65  O   UNL     1     104.869 131.906 141.379  0.00  0.00    +0.000 OA
BRANCH  65  66
ATOM     66  C   UNL     1     104.760 132.899 141.337  0.00  0.00    +0.000 C 
ATOM     67  O   UNL     1     104.941 133.448 142.161  0.00  0.00    +0.000 OA
ATOM     68  C   UNL     1     104.831 134.441 142.119  0.00  0.00    +0.000 C 
ATOM     69  C   UNL     1     104.547 134.884 141.278  0.00  0.00    +0.000 C 
ATOM     70  C   UNL     1     104.366 134.336 140.453  0.00  0.00    +0.000 C 
ATOM     71  C   UNL     1     104.476 133.343 140.495  0.00  0.00    +0.000 C 
ATOM     72  O   UNL     1     104.295 132.793 139.672  0.00  0.00    +0.000 OA
ATOM     73  O   UNL     1     104.082 134.779 139.612  0.00  0.00    +0.000 OA
ATOM     74  O   UNL     1     104.437 135.877 141.235  0.00  0.00    +0.000 OA
BRANCH  68  75
ATOM     75  C   UNL     1     105.012 134.991 142.943  0.00  0.00    +0.000 C 
BRANCH  75  76
ATOM     76  O   UNL     1     105.786 134.753 143.527  0.00  0.00    +0.000 OA
BRANCH  76  77
ATOM     77  C   UNL     1     105.673 134.777 144.528  0.00  0.00    +0.000 C 
ATOM     78  O   UNL     1     104.765 134.718 144.926  0.00  0.00    +0.000 OA
ATOM     79  C   UNL     1     104.651 134.741 145.927  0.00  0.00    +0.000 C 
ATOM     80  C   UNL     1     105.461 134.824 146.507  0.00  0.00    +0.000 C 
ATOM     81  C   UNL     1     106.368 134.883 146.109  0.00  0.00    +0.000 C 
ATOM     82  C   UNL     1     106.481 134.859 145.108  0.00  0.00    +0.000 C 
ATOM     83  O   UNL     1     107.389 134.918 144.709  0.00  0.00    +0.000 OA
ATOM     84  O   UNL     1     107.177 134.966 146.689  0.00  0.00    +0.000 OA
ATOM     85  O   UNL     1     105.347 134.847 147.508  0.00  0.00    +0.000 OA
ATOM     86  C   UNL     1     103.744 134.682 146.326  0.00  0.00    +0.000 C 
ENDBRANCH  76  77
ENDBRANCH  75  76
ENDBRANCH  68  75
ENDBRANCH  65  66
ENDBRANCH  49  65
ENDBRANCH   1  50
TORSDOF 13
ENDMDL
MODEL 8
REMARK VINA RESULT:     -11.5      1.433      2.946
REMARK  Name = 
REMARK  13 active torsions:
REMARK  status: ('A' for Active; 'I' for Inactive)
REMARK    1  A    between atoms: C_1  and  C_56
REMARK    2  A    between atoms: C_2  and  C_7
REMARK    3  A    between atoms: C_12  and  O_20
REMARK    4  A    between atoms: O_20  and  C_21
REMARK    5  A    between atoms: C_23  and  C_30
REMARK    6  A    between atoms: C_30  and  O_31
REMARK    7  A    between atoms: O_31  and  C_34
REMARK    8  A    between atoms: C_45  and  C_50
REMARK    9  A    between atoms: C_55  and  O_63
REMARK   10  A    between atoms: O_63  and  C_64
REMARK   11  A    between atoms: C_66  and  C_73
REMARK   12  A    between atoms: C_73  and  O_74
REMARK   13  A    between atoms: O_74  and  C_77
REMARK                            x       y       z     vdW  Elec       q    Type
REMARK                         _______ _______ _______ _____ _____    ______ ____
ROOT
ATOM      1  C   UNL     1     109.922 128.692 141.808  0.00  0.00    +0.000 A 
ATOM      2  C   UNL     1     109.359 129.269 142.404  0.00  0.00    +0.000 A 
ATOM      3  C   UNL     1     108.356 129.165 142.398  0.00  0.00    +0.000 A 
ATOM      4  C   UNL     1     107.929 128.493 141.804  0.00  0.00    +0.000 A 
ATOM      5  C   UNL     1     108.491 127.916 141.209  0.00  0.00    +0.000 A 
ATOM      6  C   UNL     1     109.480 128.012 141.209  0.00  0.00    +0.000 A 
ATOM      7  O   UNL     1     108.049 127.236 140.609  0.00  0.00    +0.000 OA
ATOM      8  O   UNL     1     110.042 127.435 140.613  0.00  0.00    +0.000 OA
ENDROOT
BRANCH   2   9
ATOM      9  C   UNL     1     109.787 129.941 142.998  0.00  0.00    +0.000 A 
ATOM     10  O   UNL     1     110.323 130.676 142.600  0.00  0.00    +0.000 OA
ATOM     11  C   UNL     1     110.760 131.362 143.196  0.00  0.00    +0.000 A 
ATOM     12  C   UNL     1     110.651 131.299 144.190  0.00  0.00    +0.000 A 
ATOM     13  C   UNL     1     110.105 130.549 144.586  0.00  0.00    +0.000 A 
ATOM     14  C   UNL     1     109.678 129.877 143.992  0.00  0.00    +0.000 A 
ATOM     15  C   UNL     1     111.296 132.098 142.797  0.00  0.00    +0.000 A 
ATOM     16  C   UNL     1     111.734 132.785 143.394  0.00  0.00    +0.000 A 
ATOM     17  C   UNL     1     111.625 132.721 144.388  0.00  0.00    +0.000 A 
ATOM     18  C   UNL     1     111.079 131.970 144.784  0.00  0.00    +0.000 A 
ATOM     19  O   UNL     1     109.999 130.486 145.562  0.00  0.00    +0.000 OA
ATOM     20  O   UNL     1     110.972 131.907 145.760  0.00  0.00    +0.000 OA
ATOM     21  O   UNL     1     112.270 133.520 142.995  0.00  0.00    +0.000 OA
BRANCH  14  22
ATOM     22  O   UNL     1     109.142 129.141 144.390  0.00  0.00    +0.000 OA
BRANCH  22  23
ATOM     23  C   UNL     1     108.319 129.343 144.891  0.00  0.00    +0.000 C 
ATOM     24  O   UNL     1     107.833 130.196 144.733  0.00  0.00    +0.000 OA
ATOM     25  C   UNL     1     106.997 130.402 145.243  0.00  0.00    +0.000 C 
ATOM     26  C   UNL     1     106.646 129.754 145.912  0.00  0.00    +0.000 C 
ATOM     27  C   UNL     1     107.133 128.887 146.078  0.00  0.00    +0.000 C 
ATOM     28  C   UNL     1     107.970 128.681 145.568  0.00  0.00    +0.000 C 
ATOM     29  O   UNL     1     108.456 127.829 145.725  0.00  0.00    +0.000 OA
ATOM     30  O   UNL     1     106.782 128.240 146.746  0.00  0.00    +0.000 OA
ATOM     31  O   UNL     1     105.809 129.960 146.422  0.00  0.00    +0.000 OA
BRANCH  25  32
ATOM     32  C   UNL     1     106.510 131.254 145.086  0.00  0.00    +0.000 C 
BRANCH  32  33
ATOM     33  O   UNL     1     106.632 131.753 144.227  0.00  0.00    +0.000 OA
BRANCH  33  34
ATOM     34  C   UNL     1     105.996 132.499 143.987  0.00  0.00    +0.000 C 
ATOM     35  O   UNL     1     105.581 133.047 144.704  0.00  0.00    +0.000 OA
ATOM     36  C   UNL     1     104.945 133.794 144.465  0.00  0.00    +0.000 C 
ATOM     37  C   UNL     1     104.736 133.979 143.503  0.00  0.00    +0.000 C 
ATOM     38  C   UNL     1     105.162 133.417 142.781  0.00  0.00    +0.000 C 
ATOM     39  C   UNL     1     105.787 132.684 143.025  0.00  0.00    +0.000 C 
ATOM     40  O   UNL     1     106.213 132.123 142.303  0.00  0.00    +0.000 OA
ATOM     41  O   UNL     1     104.953 133.602 141.819  0.00  0.00    +0.000 OA
ATOM     42  O   UNL     1     104.111 134.711 143.258  0.00  0.00    +0.000 OA
ATOM     43  C   UNL     1     104.529 134.341 145.182  0.00  0.00    +0.000 C 
ENDBRANCH  33  34
ENDBRANCH  32  33
ENDBRANCH  25  32
ENDBRANCH  22  23
ENDBRANCH  14  22
ENDBRANCH   2   9
BRANCH   1  50
ATOM     44  C   UNL     1     111.114 130.244 139.580  0.00  0.00    +0.000 A 
ATOM     45  O   UNL     1     110.731 129.719 140.330  0.00  0.00    +0.000 OA
ATOM     46  C   UNL     1     111.336 129.178 140.926  0.00  0.00    +0.000 A 
ATOM     47  C   UNL     1     112.319 129.178 140.753  0.00  0.00    +0.000 A 
ATOM     48  C   UNL     1     112.703 129.703 140.002  0.00  0.00    +0.000 A 
ATOM     49  C   UNL     1     112.098 130.245 139.405  0.00  0.00    +0.000 A 
ATOM     50  C   UNL     1     110.952 128.652 141.677  0.00  0.00    +0.000 A 
ATOM     51  C   UNL     1     111.557 128.111 142.274  0.00  0.00    +0.000 A 
ATOM     52  C   UNL     1     112.540 128.111 142.100  0.00  0.00    +0.000 A 
ATOM     53  C   UNL     1     112.924 128.636 141.349  0.00  0.00    +0.000 A 
ATOM     54  O   UNL     1     113.686 129.703 139.828  0.00  0.00    +0.000 OA
ATOM     55  O   UNL     1     113.907 128.636 141.176  0.00  0.00    +0.000 OA
ATOM     56  O   UNL     1     111.173 127.586 143.025  0.00  0.00    +0.000 OA
BRANCH  44  58
ATOM     57  C   UNL     1     110.560 131.783 139.012  0.00  0.00    +0.000 A 
ATOM     58  C   UNL     1     110.509 130.786 138.983  0.00  0.00    +0.000 A 
ATOM     59  C   UNL     1     109.871 130.327 138.375  0.00  0.00    +0.000 A 
ATOM     60  C   UNL     1     109.266 130.869 137.778  0.00  0.00    +0.000 A 
ATOM     61  C   UNL     1     109.317 131.865 137.807  0.00  0.00    +0.000 A 
ATOM     62  C   UNL     1     109.955 132.324 138.415  0.00  0.00    +0.000 A 
ATOM     63  O   UNL     1     108.722 132.419 137.220  0.00  0.00    +0.000 OA
ATOM     64  O   UNL     1     110.006 133.321 138.445  0.00  0.00    +0.000 OA
ENDBRANCH  44  58
BRANCH  49  65
ATOM     65  O   UNL     1     112.480 130.770 138.655  0.00  0.00    +0.000 OA
BRANCH  65  66
ATOM     66  C   UNL     1     112.877 130.311 137.860  0.00  0.00    +0.000 C 
ATOM     67  O   UNL     1     112.578 129.377 137.633  0.00  0.00    +0.000 OA
ATOM     68  C   UNL     1     112.975 128.918 136.838  0.00  0.00    +0.000 C 
ATOM     69  C   UNL     1     113.656 129.373 136.278  0.00  0.00    +0.000 C 
ATOM     70  C   UNL     1     113.956 130.307 136.506  0.00  0.00    +0.000 C 
ATOM     71  C   UNL     1     113.558 130.766 137.300  0.00  0.00    +0.000 C 
ATOM     72  O   UNL     1     113.857 131.700 137.528  0.00  0.00    +0.000 OA
ATOM     73  O   UNL     1     114.637 130.762 135.945  0.00  0.00    +0.000 OA
ATOM     74  O   UNL     1     114.053 128.914 135.484  0.00  0.00    +0.000 OA
BRANCH  68  75
ATOM     75  C   UNL     1     112.676 127.984 136.610  0.00  0.00    +0.000 C 
BRANCH  75  76
ATOM     76  O   UNL     1     112.838 127.247 137.264  0.00  0.00    +0.000 OA
BRANCH  76  77
ATOM     77  C   UNL     1     112.603 126.301 137.008  0.00  0.00    +0.000 C 
ATOM     78  O   UNL     1     111.790 126.121 136.467  0.00  0.00    +0.000 OA
ATOM     79  C   UNL     1     111.554 125.175 136.210  0.00  0.00    +0.000 C 
ATOM     80  C   UNL     1     112.148 124.428 136.507  0.00  0.00    +0.000 C 
ATOM     81  C   UNL     1     112.960 124.609 137.048  0.00  0.00    +0.000 C 
ATOM     82  C   UNL     1     113.196 125.554 137.304  0.00  0.00    +0.000 C 
ATOM     83  O   UNL     1     114.009 125.734 137.845  0.00  0.00    +0.000 OA
ATOM     84  O   UNL     1     113.554 123.861 137.344  0.00  0.00    +0.000 OA
ATOM     85  O   UNL     1     111.913 123.483 136.251  0.00  0.00    +0.000 OA
ATOM     86  C   UNL     1     110.742 124.995 135.670  0.00  0.00    +0.000 C 
ENDBRANCH  76  77
ENDBRANCH  75  76
ENDBRANCH  68  75
ENDBRANCH  65  66
ENDBRANCH  49  65
ENDBRANCH   1  50
TORSDOF 13
ENDMDL
MODEL 9
REMARK VINA RESULT:     -11.4      1.552      8.746
REMARK  Name = 
REMARK  13 active torsions:
REMARK  status: ('A' for Active; 'I' for Inactive)
REMARK    1  A    between atoms: C_1  and  C_56
REMARK    2  A    between atoms: C_2  and  C_7
REMARK    3  A    between atoms: C_12  and  O_20
REMARK    4  A    between atoms: O_20  and  C_21
REMARK    5  A    between atoms: C_23  and  C_30
REMARK    6  A    between atoms: C_30  and  O_31
REMARK    7  A    between atoms: O_31  and  C_34
REMARK    8  A    between atoms: C_45  and  C_50
REMARK    9  A    between atoms: C_55  and  O_63
REMARK   10  A    between atoms: O_63  and  C_64
REMARK   11  A    between atoms: C_66  and  C_73
REMARK   12  A    between atoms: C_73  and  O_74
REMARK   13  A    between atoms: O_74  and  C_77
REMARK                            x       y       z     vdW  Elec       q    Type
REMARK                         _______ _______ _______ _____ _____    ______ ____
ROOT
ATOM      1  C   UNL     1     109.902 130.400 140.236  0.00  0.00    +0.000 A 
ATOM      2  C   UNL     1     110.292 129.787 139.545  0.00  0.00    +0.000 A 
ATOM      3  C   UNL     1     109.878 129.743 138.626  0.00  0.00    +0.000 A 
ATOM      4  C   UNL     1     109.089 130.304 138.408  0.00  0.00    +0.000 A 
ATOM      5  C   UNL     1     108.699 130.917 139.098  0.00  0.00    +0.000 A 
ATOM      6  C   UNL     1     109.100 130.967 140.006  0.00  0.00    +0.000 A 
ATOM      7  O   UNL     1     107.898 131.484 138.868  0.00  0.00    +0.000 OA
ATOM      8  O   UNL     1     108.711 131.580 140.696  0.00  0.00    +0.000 OA
ENDROOT
BRANCH   2   9
ATOM      9  C   UNL     1     111.082 129.226 139.764  0.00  0.00    +0.000 A 
ATOM     10  O   UNL     1     110.971 128.433 140.352  0.00  0.00    +0.000 OA
ATOM     11  C   UNL     1     111.768 127.858 140.579  0.00  0.00    +0.000 A 
ATOM     12  C   UNL     1     112.670 128.089 140.208  0.00  0.00    +0.000 A 
ATOM     13  C   UNL     1     112.773 128.896 139.612  0.00  0.00    +0.000 A 
ATOM     14  C   UNL     1     111.983 129.457 139.394  0.00  0.00    +0.000 A 
ATOM     15  C   UNL     1     111.658 127.065 141.167  0.00  0.00    +0.000 A 
ATOM     16  C   UNL     1     112.455 126.489 141.394  0.00  0.00    +0.000 A 
ATOM     17  C   UNL     1     113.357 126.721 141.024  0.00  0.00    +0.000 A 
ATOM     18  C   UNL     1     113.460 127.528 140.427  0.00  0.00    +0.000 A 
ATOM     19  O   UNL     1     113.658 129.124 139.248  0.00  0.00    +0.000 OA
ATOM     20  O   UNL     1     114.345 127.756 140.063  0.00  0.00    +0.000 OA
ATOM     21  O   UNL     1     112.345 125.696 141.982  0.00  0.00    +0.000 OA
BRANCH  14  22
ATOM     22  O   UNL     1     112.093 130.251 138.805  0.00  0.00    +0.000 OA
BRANCH  22  23
ATOM     23  C   UNL     1     112.441 130.145 137.891  0.00  0.00    +0.000 C 
ATOM     24  O   UNL     1     112.341 129.278 137.414  0.00  0.00    +0.000 OA
ATOM     25  C   UNL     1     112.695 129.170 136.484  0.00  0.00    +0.000 C 
ATOM     26  C   UNL     1     113.150 129.929 136.030  0.00  0.00    +0.000 C 
ATOM     27  C   UNL     1     113.255 130.812 136.507  0.00  0.00    +0.000 C 
ATOM     28  C   UNL     1     112.901 130.920 137.437  0.00  0.00    +0.000 C 
ATOM     29  O   UNL     1     113.001 131.786 137.914  0.00  0.00    +0.000 OA
ATOM     30  O   UNL     1     113.710 131.570 136.053  0.00  0.00    +0.000 OA
ATOM     31  O   UNL     1     113.504 129.821 135.100  0.00  0.00    +0.000 OA
BRANCH  25  32
ATOM     32  C   UNL     1     112.596 128.304 136.008  0.00  0.00    +0.000 C 
BRANCH  32  33
ATOM     33  O   UNL     1     111.992 127.593 136.373  0.00  0.00    +0.000 OA
BRANCH  33  34
ATOM     34  C   UNL     1     112.380 126.708 136.664  0.00  0.00    +0.000 C 
ATOM     35  O   UNL     1     113.299 126.454 136.386  0.00  0.00    +0.000 OA
ATOM     36  C   UNL     1     113.688 125.568 136.677  0.00  0.00    +0.000 C 
ATOM     37  C   UNL     1     113.143 124.950 137.245  0.00  0.00    +0.000 C 
ATOM     38  C   UNL     1     112.209 125.216 137.522  0.00  0.00    +0.000 C 
ATOM     39  C   UNL     1     111.835 126.090 137.232  0.00  0.00    +0.000 C 
ATOM     40  O   UNL     1     110.902 126.356 137.509  0.00  0.00    +0.000 OA
ATOM     41  O   UNL     1     111.664 124.598 138.090  0.00  0.00    +0.000 OA
ATOM     42  O   UNL     1     113.517 124.076 137.536  0.00  0.00    +0.000 OA
ATOM     43  C   UNL     1     114.607 125.314 136.400  0.00  0.00    +0.000 C 
ENDBRANCH  33  34
ENDBRANCH  32  33
ENDBRANCH  25  32
ENDBRANCH  22  23
ENDBRANCH  14  22
ENDBRANCH   2   9
BRANCH   1  50
ATOM     44  C   UNL     1     108.546 128.875 142.389  0.00  0.00    +0.000 A 
ATOM     45  O   UNL     1     109.009 129.394 141.680  0.00  0.00    +0.000 OA
ATOM     46  C   UNL     1     109.721 130.062 141.929  0.00  0.00    +0.000 A 
ATOM     47  C   UNL     1     109.951 130.195 142.891  0.00  0.00    +0.000 A 
ATOM     48  C   UNL     1     109.487 129.676 143.601  0.00  0.00    +0.000 A 
ATOM     49  C   UNL     1     108.776 129.007 143.352  0.00  0.00    +0.000 A 
ATOM     50  C   UNL     1     110.184 130.581 141.220  0.00  0.00    +0.000 A 
ATOM     51  C   UNL     1     110.895 131.250 141.468  0.00  0.00    +0.000 A 
ATOM     52  C   UNL     1     111.126 131.382 142.431  0.00  0.00    +0.000 A 
ATOM     53  C   UNL     1     110.662 130.863 143.140  0.00  0.00    +0.000 A 
ATOM     54  O   UNL     1     109.717 129.808 144.563  0.00  0.00    +0.000 OA
ATOM     55  O   UNL     1     110.892 130.996 144.103  0.00  0.00    +0.000 OA
ATOM     56  O   UNL     1     111.359 131.769 140.759  0.00  0.00    +0.000 OA
BRANCH  44  58
ATOM     57  C   UNL     1     108.061 127.234 142.134  0.00  0.00    +0.000 A 
ATOM     58  C   UNL     1     107.835 128.207 142.140  0.00  0.00    +0.000 A 
ATOM     59  C   UNL     1     106.921 128.518 141.905  0.00  0.00    +0.000 A 
ATOM     60  C   UNL     1     106.210 127.849 141.656  0.00  0.00    +0.000 A 
ATOM     61  C   UNL     1     106.436 126.876 141.650  0.00  0.00    +0.000 A 
ATOM     62  C   UNL     1     107.349 126.565 141.886  0.00  0.00    +0.000 A 
ATOM     63  O   UNL     1     105.739 126.198 141.405  0.00  0.00    +0.000 OA
ATOM     64  O   UNL     1     107.575 125.593 141.880  0.00  0.00    +0.000 OA
ENDBRANCH  44  58
BRANCH  49  65
ATOM     65  O   UNL     1     108.312 128.488 144.060  0.00  0.00    +0.000 OA
BRANCH  65  66
ATOM     66  C   UNL     1     107.665 128.934 144.678  0.00  0.00    +0.000 C 
ATOM     67  O   UNL     1     107.340 129.862 144.463  0.00  0.00    +0.000 OA
ATOM     68  C   UNL     1     106.693 130.308 145.082  0.00  0.00    +0.000 C 
ATOM     69  C   UNL     1     106.372 129.844 145.899  0.00  0.00    +0.000 C 
ATOM     70  C   UNL     1     106.697 128.916 146.114  0.00  0.00    +0.000 C 
ATOM     71  C   UNL     1     107.344 128.470 145.496  0.00  0.00    +0.000 C 
ATOM     72  O   UNL     1     107.669 127.542 145.710  0.00  0.00    +0.000 OA
ATOM     73  O   UNL     1     106.376 128.453 146.931  0.00  0.00    +0.000 OA
ATOM     74  O   UNL     1     105.725 130.289 146.517  0.00  0.00    +0.000 OA
BRANCH  68  75
ATOM     75  C   UNL     1     106.368 131.236 144.867  0.00  0.00    +0.000 C 
BRANCH  75  76
ATOM     76  O   UNL     1     106.414 131.563 143.925  0.00  0.00    +0.000 OA
BRANCH  76  77
ATOM     77  C   UNL     1     105.877 132.373 143.658  0.00  0.00    +0.000 C 
ATOM     78  O   UNL     1     105.608 133.038 144.345  0.00  0.00    +0.000 OA
ATOM     79  C   UNL     1     105.072 133.848 144.078  0.00  0.00    +0.000 C 
ATOM     80  C   UNL     1     104.816 133.969 143.119  0.00  0.00    +0.000 C 
ATOM     81  C   UNL     1     105.085 133.304 142.434  0.00  0.00    +0.000 C 
ATOM     82  C   UNL     1     105.622 132.494 142.701  0.00  0.00    +0.000 C 
ATOM     83  O   UNL     1     105.891 131.829 142.014  0.00  0.00    +0.000 OA
ATOM     84  O   UNL     1     104.830 133.425 141.475  0.00  0.00    +0.000 OA
ATOM     85  O   UNL     1     104.279 134.779 142.853  0.00  0.00    +0.000 OA
ATOM     86  C   UNL     1     104.803 134.513 144.763  0.00  0.00    +0.000 C 
ENDBRANCH  76  77
ENDBRANCH  75  76
ENDBRANCH  68  75
ENDBRANCH  65  66
ENDBRANCH  49  65
ENDBRANCH   1  50
TORSDOF 13
ENDMDL
MODEL 10
REMARK VINA RESULT:     -11.3      2.598      6.111
REMARK  Name = 
REMARK  13 active torsions:
REMARK  status: ('A' for Active; 'I' for Inactive)
REMARK    1  A    between atoms: C_1  and  C_56
REMARK    2  A    between atoms: C_2  and  C_7
REMARK    3  A    between atoms: C_12  and  O_20
REMARK    4  A    between atoms: O_20  and  C_21
REMARK    5  A    between atoms: C_23  and  C_30
REMARK    6  A    between atoms: C_30  and  O_31
REMARK    7  A    between atoms: O_31  and  C_34
REMARK    8  A    between atoms: C_45  and  C_50
REMARK    9  A    between atoms: C_55  and  O_63
REMARK   10  A    between atoms: O_63  and  C_64
REMARK   11  A    between atoms: C_66  and  C_73
REMARK   12  A    between atoms: C_73  and  O_74
REMARK   13  A    between atoms: O_74  and  C_77
REMARK                            x       y       z     vdW  Elec       q    Type
REMARK                         _______ _______ _______ _____ _____    ______ ____
ROOT
ATOM      1  C   UNL     1     105.873 130.285 143.064  0.00  0.00    +0.000 A 
ATOM      2  C   UNL     1     105.831 130.621 144.007  0.00  0.00    +0.000 A 
ATOM      3  C   UNL     1     105.861 131.613 144.186  0.00  0.00    +0.000 A 
ATOM      4  C   UNL     1     105.933 132.253 143.430  0.00  0.00    +0.000 A 
ATOM      5  C   UNL     1     105.976 131.917 142.487  0.00  0.00    +0.000 A 
ATOM      6  C   UNL     1     105.946 130.942 142.302  0.00  0.00    +0.000 A 
ATOM      7  O   UNL     1     106.049 132.574 141.725  0.00  0.00    +0.000 OA
ATOM      8  O   UNL     1     105.989 130.606 141.359  0.00  0.00    +0.000 OA
ENDROOT
BRANCH   2   9
ATOM      9  C   UNL     1     105.758 129.980 144.763  0.00  0.00    +0.000 A 
ATOM     10  O   UNL     1     106.527 129.390 144.981  0.00  0.00    +0.000 OA
ATOM     11  C   UNL     1     106.462 128.737 145.747  0.00  0.00    +0.000 A 
ATOM     12  C   UNL     1     105.619 128.687 146.286  0.00  0.00    +0.000 A 
ATOM     13  C   UNL     1     104.843 129.289 146.058  0.00  0.00    +0.000 A 
ATOM     14  C   UNL     1     104.915 129.929 145.303  0.00  0.00    +0.000 A 
ATOM     15  C   UNL     1     107.231 128.148 145.965  0.00  0.00    +0.000 A 
ATOM     16  C   UNL     1     107.166 127.494 146.731  0.00  0.00    +0.000 A 
ATOM     17  C   UNL     1     106.323 127.443 147.270  0.00  0.00    +0.000 A 
ATOM     18  C   UNL     1     105.547 128.046 147.042  0.00  0.00    +0.000 A 
ATOM     19  O   UNL     1     104.015 129.239 146.588  0.00  0.00    +0.000 OA
ATOM     20  O   UNL     1     104.719 127.997 147.571  0.00  0.00    +0.000 OA
ATOM     21  O   UNL     1     107.935 126.905 146.949  0.00  0.00    +0.000 OA
BRANCH  14  22
ATOM     22  O   UNL     1     104.146 130.519 145.084  0.00  0.00    +0.000 OA
BRANCH  22  23
ATOM     23  C   UNL     1     103.896 131.251 145.692  0.00  0.00    +0.000 C 
ATOM     24  O   UNL     1     104.532 131.564 146.389  0.00  0.00    +0.000 OA
ATOM     25  C   UNL     1     104.277 132.308 147.008  0.00  0.00    +0.000 C 
ATOM     26  C   UNL     1     103.386 132.741 146.930  0.00  0.00    +0.000 C 
ATOM     27  C   UNL     1     102.734 132.430 146.225  0.00  0.00    +0.000 C 
ATOM     28  C   UNL     1     102.989 131.686 145.607  0.00  0.00    +0.000 C 
ATOM     29  O   UNL     1     102.353 131.373 144.910  0.00  0.00    +0.000 OA
ATOM     30  O   UNL     1     101.843 132.863 146.148  0.00  0.00    +0.000 OA
ATOM     31  O   UNL     1     103.131 133.486 147.548  0.00  0.00    +0.000 OA
BRANCH  25  32
ATOM     32  C   UNL     1     104.913 132.621 147.705  0.00  0.00    +0.000 C 
BRANCH  32  33
ATOM     33  O   UNL     1     105.887 132.401 147.634  0.00  0.00    +0.000 OA
BRANCH  33  34
ATOM     34  C   UNL     1     106.576 133.071 147.944  0.00  0.00    +0.000 C 
ATOM     35  O   UNL     1     106.332 133.755 148.622  0.00  0.00    +0.000 OA
ATOM     36  C   UNL     1     107.020 134.425 148.933  0.00  0.00    +0.000 C 
ATOM     37  C   UNL     1     107.946 134.398 148.555  0.00  0.00    +0.000 C 
ATOM     38  C   UNL     1     108.185 133.699 147.865  0.00  0.00    +0.000 C 
ATOM     39  C   UNL     1     107.502 133.043 147.565  0.00  0.00    +0.000 C 
ATOM     40  O   UNL     1     107.741 132.346 146.877  0.00  0.00    +0.000 OA
ATOM     41  O   UNL     1     109.112 133.672 147.487  0.00  0.00    +0.000 OA
ATOM     42  O   UNL     1     108.630 135.053 148.855  0.00  0.00    +0.000 OA
ATOM     43  C   UNL     1     106.776 135.109 149.612  0.00  0.00    +0.000 C 
ENDBRANCH  33  34
ENDBRANCH  32  33
ENDBRANCH  25  32
ENDBRANCH  22  23
ENDBRANCH  14  22
ENDBRANCH   2   9
BRANCH   1  50
ATOM     44  C   UNL     1     108.461 128.912 142.595  0.00  0.00    +0.000 A 
ATOM     45  O   UNL     1     107.587 129.358 142.746  0.00  0.00    +0.000 OA
ATOM     46  C   UNL     1     106.730 128.871 142.535  0.00  0.00    +0.000 A 
ATOM     47  C   UNL     1     106.774 127.941 142.174  0.00  0.00    +0.000 A 
ATOM     48  C   UNL     1     107.649 127.495 142.023  0.00  0.00    +0.000 A 
ATOM     49  C   UNL     1     108.505 127.982 142.233  0.00  0.00    +0.000 A 
ATOM     50  C   UNL     1     105.856 129.316 142.687  0.00  0.00    +0.000 A 
ATOM     51  C   UNL     1     104.999 128.830 142.476  0.00  0.00    +0.000 A 
ATOM     52  C   UNL     1     105.043 127.900 142.115  0.00  0.00    +0.000 A 
ATOM     53  C   UNL     1     105.918 127.454 141.964  0.00  0.00    +0.000 A 
ATOM     54  O   UNL     1     107.693 126.565 141.662  0.00  0.00    +0.000 OA
ATOM     55  O   UNL     1     105.961 126.524 141.603  0.00  0.00    +0.000 OA
ATOM     56  O   UNL     1     104.124 129.275 142.628  0.00  0.00    +0.000 OA
BRANCH  44  58
ATOM     57  C   UNL     1     109.587 130.178 142.241  0.00  0.00    +0.000 A 
ATOM     58  C   UNL     1     109.317 129.399 142.805  0.00  0.00    +0.000 A 
ATOM     59  C   UNL     1     109.883 129.103 143.567  0.00  0.00    +0.000 A 
ATOM     60  C   UNL     1     110.739 129.590 143.778  0.00  0.00    +0.000 A 
ATOM     61  C   UNL     1     111.009 130.369 143.214  0.00  0.00    +0.000 A 
ATOM     62  C   UNL     1     110.444 130.665 142.452  0.00  0.00    +0.000 A 
ATOM     63  O   UNL     1     111.858 130.864 143.410  0.00  0.00    +0.000 OA
ATOM     64  O   UNL     1     110.714 131.443 141.888  0.00  0.00    +0.000 OA
ENDBRANCH  44  58
BRANCH  49  65
ATOM     65  O   UNL     1     109.380 127.538 142.082  0.00  0.00    +0.000 OA
BRANCH  65  66
ATOM     66  C   UNL     1     109.720 127.382 141.155  0.00  0.00    +0.000 C 
ATOM     67  O   UNL     1     109.424 127.996 140.414  0.00  0.00    +0.000 OA
ATOM     68  C   UNL     1     109.764 127.840 139.487  0.00  0.00    +0.000 C 
ATOM     69  C   UNL     1     110.386 127.090 139.294  0.00  0.00    +0.000 C 
ATOM     70  C   UNL     1     110.682 126.476 140.035  0.00  0.00    +0.000 C 
ATOM     71  C   UNL     1     110.342 126.632 140.962  0.00  0.00    +0.000 C 
ATOM     72  O   UNL     1     110.637 126.019 141.703  0.00  0.00    +0.000 OA
ATOM     73  O   UNL     1     111.303 125.727 139.842  0.00  0.00    +0.000 OA
ATOM     74  O   UNL     1     110.725 126.934 138.368  0.00  0.00    +0.000 OA
BRANCH  68  75
ATOM     75  C   UNL     1     109.468 128.453 138.746  0.00  0.00    +0.000 C 
BRANCH  75  76
ATOM     76  O   UNL     1     109.390 129.433 138.925  0.00  0.00    +0.000 OA
BRANCH  76  77
ATOM     77  C   UNL     1     109.153 130.054 138.169  0.00  0.00    +0.000 C 
ATOM     78  O   UNL     1     109.319 129.779 137.229  0.00  0.00    +0.000 OA
ATOM     79  C   UNL     1     109.081 130.401 136.473  0.00  0.00    +0.000 C 
ATOM     80  C   UNL     1     108.679 131.291 136.682  0.00  0.00    +0.000 C 
ATOM     81  C   UNL     1     108.512 131.566 137.621  0.00  0.00    +0.000 C 
ATOM     82  C   UNL     1     108.750 130.944 138.377  0.00  0.00    +0.000 C 
ATOM     83  O   UNL     1     108.583 131.219 139.317  0.00  0.00    +0.000 OA
ATOM     84  O   UNL     1     108.110 132.456 137.830  0.00  0.00    +0.000 OA
ATOM     85  O   UNL     1     108.441 131.913 135.925  0.00  0.00    +0.000 OA
ATOM     86  C   UNL     1     109.248 130.126 135.533  0.00  0.00    +0.000 C 
ENDBRANCH  76  77
ENDBRANCH  75  76
ENDBRANCH  68  75
ENDBRANCH  65  66
ENDBRANCH  49  65
ENDBRANCH   1  50
TORSDOF 13
ENDMDL
