MODEL 1
REMARK VINA RESULT:     -10.3      0.000      0.000
REMARK  Name = 13964057
REMARK  11 active torsions:
REMARK  status: ('A' for Active; 'I' for Inactive)
REMARK    1  A    between atoms: O_1  and  C_21
REMARK    2  A    between atoms: O_1  and  C_23
REMARK    3  A    between atoms: O_4  and  C_26
REMARK    4  A    between atoms: O_4  and  C_38
REMARK    5  A    between atoms: O_12  and  C_37
REMARK    6  A    between atoms: O_12  and  C_43
REMARK    7  A    between atoms: C_30  and  C_32
REMARK    8  A    between atoms: C_36  and  C_39
REMARK    9  A    between atoms: C_41  and  C_48
REMARK   10  A    between atoms: C_45  and  C_49
REMARK   11  A    between atoms: C_49  and  C_50
REMARK                            x       y       z     vdW  Elec       q    Type
REMARK                         _______ _______ _______ _____ _____    ______ ____
ROOT
ATOM      1  O   UNL     1     112.409 127.817 139.328  0.00  0.00    +0.000 OA
ATOM      2  O   UNL     1     111.492 129.609 137.887  0.00  0.00    +0.000 OA
ATOM      3  O   UNL     1     111.887 130.617 138.840  0.00  0.00    +0.000 OA
ATOM      4  C   UNL     1     111.750 128.224 138.127  0.00  0.00    +0.000 A 
ATOM      5  C   UNL     1     111.798 129.011 138.367  0.00  0.00    +0.000 A 
ATOM      6  C   UNL     1     112.055 127.626 138.607  0.00  0.00    +0.000 A 
ATOM      7  C   UNL     1     112.151 129.202 139.087  0.00  0.00    +0.000 A 
ATOM      8  C   UNL     1     112.880 129.609 140.576  0.00  0.00    +0.000 A 
ATOM      9  C   UNL     1     112.457 128.605 139.568  0.00  0.00    +0.000 A 
ATOM     10  C   UNL     1     112.827 128.791 140.321  0.00  0.00    +0.000 A 
ATOM     11  C   UNL     1     112.195 130.026 139.326  0.00  0.00    +0.000 A 
ATOM     12  C   UNL     1     112.562 130.232 140.076  0.00  0.00    +0.000 A 
ENDROOT
BRANCH   6  14
ATOM     13  O   UNL     1     111.864 124.475 137.648  0.00  0.00    +0.000 OA
ATOM     14  C   UNL     1     112.008 126.839 138.367  0.00  0.00    +0.000 A 
ATOM     15  C   UNL     1     111.330 126.398 138.532  0.00  0.00    +0.000 A 
ATOM     16  C   UNL     1     112.637 126.491 137.962  0.00  0.00    +0.000 A 
ATOM     17  C   UNL     1     111.282 125.609 138.292  0.00  0.00    +0.000 A 
ATOM     18  C   UNL     1     112.590 125.704 137.722  0.00  0.00    +0.000 A 
ATOM     19  C   UNL     1     111.912 125.263 137.887  0.00  0.00    +0.000 A 
ENDBRANCH   6  14
BRANCH   4  20
ATOM     20  O   UNL     1     111.396 128.033 137.406  0.00  0.00    +0.000 OA
BRANCH  20  27
ATOM     21  O   UNL     1     112.481 128.464 136.582  0.00  0.00    +0.000 OA
ATOM     22  O   UNL     1     110.872 129.234 134.867  0.00  0.00    +0.000 OA
ATOM     23  O   UNL     1     112.493 129.408 134.614  0.00  0.00    +0.000 OA
ATOM     24  C   UNL     1     111.133 128.634 136.137  0.00  0.00    +0.000 C 
ATOM     25  C   UNL     1     111.408 128.977 135.439  0.00  0.00    +0.000 C 
ATOM     26  C   UNL     1     112.218 129.064 135.312  0.00  0.00    +0.000 C 
ATOM     27  C   UNL     1     111.670 128.377 136.708  0.00  0.00    +0.000 C 
ATOM     28  C   UNL     1     112.755 128.808 135.884  0.00  0.00    +0.000 C 
ATOM     29  C   UNL     1     113.566 128.895 135.758  0.00  0.00    +0.000 C 
BRANCH  24  30
ATOM     30  O   UNL     1     110.324 128.546 136.263  0.00  0.00    +0.000 OA
BRANCH  30  35
ATOM     31  O   UNL     1     110.319 127.380 135.438  0.00  0.00    +0.000 OA
ATOM     32  O   UNL     1     108.721 128.324 136.585  0.00  0.00    +0.000 OA
ATOM     33  O   UNL     1     107.915 127.047 135.921  0.00  0.00    +0.000 OA
ATOM     34  O   UNL     1     108.712 125.991 134.934  0.00  0.00    +0.000 OA
ATOM     35  C   UNL     1     109.921 127.908 135.931  0.00  0.00    +0.000 C 
ATOM     36  C   UNL     1     109.119 127.796 136.092  0.00  0.00    +0.000 C 
ATOM     37  C   UNL     1     108.716 127.158 135.760  0.00  0.00    +0.000 C 
ATOM     38  C   UNL     1     109.115 126.630 135.266  0.00  0.00    +0.000 C 
ATOM     39  C   UNL     1     109.916 126.741 135.105  0.00  0.00    +0.000 C 
BRANCH  39  41
ATOM     40  O   UNL     1     110.687 125.551 134.931  0.00  0.00    +0.000 OA
ATOM     41  C   UNL     1     110.315 126.214 134.612  0.00  0.00    +0.000 C 
ENDBRANCH  39  41
ENDBRANCH  30  35
ENDBRANCH  24  30
ENDBRANCH  20  27
ENDBRANCH   4  20
BRANCH   8  42
ATOM     42  O   UNL     1     113.234 129.797 141.297  0.00  0.00    +0.000 OA
BRANCH  42  51
ATOM     43  O   UNL     1     112.106 130.032 142.142  0.00  0.00    +0.000 OA
ATOM     44  O   UNL     1     113.098 132.180 142.871  0.00  0.00    +0.000 OA
ATOM     45  O   UNL     1     111.639 131.698 143.473  0.00  0.00    +0.000 OA
ATOM     46  O   UNL     1     113.896 131.229 141.783  0.00  0.00    +0.000 OA
ATOM     47  C   UNL     1     112.768 131.464 142.628  0.00  0.00    +0.000 C 
ATOM     48  C   UNL     1     112.038 131.223 142.929  0.00  0.00    +0.000 C 
ATOM     49  C   UNL     1     113.166 130.988 142.084  0.00  0.00    +0.000 C 
ATOM     50  C   UNL     1     111.707 130.507 142.686  0.00  0.00    +0.000 C 
ATOM     51  C   UNL     1     112.835 130.272 141.841  0.00  0.00    +0.000 C 
BRANCH  50  53
ATOM     52  O   UNL     1     110.850 129.473 143.172  0.00  0.00    +0.000 OA
ATOM     53  C   UNL     1     110.978 130.267 142.987  0.00  0.00    +0.000 C 
ENDBRANCH  50  53
ENDBRANCH  42  51
ENDBRANCH   8  42
BRANCH  10  54
ATOM     54  C   UNL     1     113.130 128.187 140.795  0.00  0.00    +0.000 C 
BRANCH  54  55
ATOM     55  C   UNL     1     113.910 127.937 140.694  0.00  0.00    +0.000 C 
ATOM     56  C   UNL     1     114.187 127.277 141.104  0.00  0.00    +0.000 C 
ATOM     57  C   UNL     1     114.967 127.026 141.004  0.00  0.00    +0.000 C 
ATOM     58  C   UNL     1     113.684 126.867 141.613  0.00  0.00    +0.000 C 
ENDBRANCH  54  55
ENDBRANCH  10  54
TORSDOF 11
ENDMDL
MODEL 2
REMARK VINA RESULT:     -10.2      2.320      6.317
REMARK  Name = 13964057
REMARK  11 active torsions:
REMARK  status: ('A' for Active; 'I' for Inactive)
REMARK    1  A    between atoms: O_1  and  C_21
REMARK    2  A    between atoms: O_1  and  C_23
REMARK    3  A    between atoms: O_4  and  C_26
REMARK    4  A    between atoms: O_4  and  C_38
REMARK    5  A    between atoms: O_12  and  C_37
REMARK    6  A    between atoms: O_12  and  C_43
REMARK    7  A    between atoms: C_30  and  C_32
REMARK    8  A    between atoms: C_36  and  C_39
REMARK    9  A    between atoms: C_41  and  C_48
REMARK   10  A    between atoms: C_45  and  C_49
REMARK   11  A    between atoms: C_49  and  C_50
REMARK                            x       y       z     vdW  Elec       q    Type
REMARK                         _______ _______ _______ _____ _____    ______ ____
ROOT
ATOM      1  O   UNL     1     111.284 128.674 138.704  0.00  0.00    +0.000 OA
ATOM      2  O   UNL     1     110.790 127.262 140.675  0.00  0.00    +0.000 OA
ATOM      3  O   UNL     1     111.684 126.234 140.200  0.00  0.00    +0.000 OA
ATOM      4  C   UNL     1     110.592 128.469 139.936  0.00  0.00    +0.000 A 
ATOM      5  C   UNL     1     110.955 127.733 140.018  0.00  0.00    +0.000 A 
ATOM      6  C   UNL     1     110.756 128.940 139.279  0.00  0.00    +0.000 A 
ATOM      7  C   UNL     1     111.483 127.467 139.443  0.00  0.00    +0.000 A 
ATOM      8  C   UNL     1     112.578 126.907 138.259  0.00  0.00    +0.000 A 
ATOM      9  C   UNL     1     111.648 127.938 138.786  0.00  0.00    +0.000 A 
ATOM     10  C   UNL     1     112.196 127.672 138.180  0.00  0.00    +0.000 A 
ATOM     11  C   UNL     1     111.855 126.699 139.540  0.00  0.00    +0.000 A 
ATOM     12  C   UNL     1     112.406 126.416 138.943  0.00  0.00    +0.000 A 
ENDROOT
BRANCH   6  14
ATOM     13  O   UNL     1     109.303 131.883 138.951  0.00  0.00    +0.000 OA
ATOM     14  C   UNL     1     110.393 129.675 139.197  0.00  0.00    +0.000 A 
ATOM     15  C   UNL     1     109.641 129.729 138.864  0.00  0.00    +0.000 A 
ATOM     16  C   UNL     1     110.782 130.358 139.449  0.00  0.00    +0.000 A 
ATOM     17  C   UNL     1     109.277 130.466 138.782  0.00  0.00    +0.000 A 
ATOM     18  C   UNL     1     110.419 131.094 139.367  0.00  0.00    +0.000 A 
ATOM     19  C   UNL     1     109.667 131.148 139.033  0.00  0.00    +0.000 A 
ENDBRANCH   6  14
BRANCH   4  20
ATOM     20  O   UNL     1     110.064 128.734 140.512  0.00  0.00    +0.000 OA
BRANCH  20  27
ATOM     21  O   UNL     1     111.056 129.016 141.500  0.00  0.00    +0.000 OA
ATOM     22  O   UNL     1     109.472 128.350 143.281  0.00  0.00    +0.000 OA
ATOM     23  O   UNL     1     110.993 128.854 143.676  0.00  0.00    +0.000 OA
ATOM     24  C   UNL     1     109.767 128.542 141.897  0.00  0.00    +0.000 C 
ATOM     25  C   UNL     1     110.000 128.572 142.688  0.00  0.00    +0.000 C 
ATOM     26  C   UNL     1     110.760 128.823 142.885  0.00  0.00    +0.000 C 
ATOM     27  C   UNL     1     110.295 128.764 141.303  0.00  0.00    +0.000 C 
ATOM     28  C   UNL     1     111.288 129.045 142.291  0.00  0.00    +0.000 C 
ATOM     29  C   UNL     1     112.049 129.297 142.489  0.00  0.00    +0.000 C 
BRANCH  24  30
ATOM     30  O   UNL     1     109.007 128.291 141.699  0.00  0.00    +0.000 OA
BRANCH  30  35
ATOM     31  O   UNL     1     108.484 129.561 142.091  0.00  0.00    +0.000 OA
ATOM     32  O   UNL     1     107.497 127.811 141.241  0.00  0.00    +0.000 OA
ATOM     33  O   UNL     1     106.218 128.841 141.404  0.00  0.00    +0.000 OA
ATOM     34  O   UNL     1     106.451 130.352 142.025  0.00  0.00    +0.000 OA
ATOM     35  C   UNL     1     108.368 128.806 141.781  0.00  0.00    +0.000 C 
ATOM     36  C   UNL     1     107.612 128.566 141.551  0.00  0.00    +0.000 C 
ATOM     37  C   UNL     1     106.973 129.081 141.633  0.00  0.00    +0.000 C 
ATOM     38  C   UNL     1     107.090 129.837 141.944  0.00  0.00    +0.000 C 
ATOM     39  C   UNL     1     107.845 130.077 142.173  0.00  0.00    +0.000 C 
BRANCH  39  41
ATOM     40  O   UNL     1     108.384 131.395 142.054  0.00  0.00    +0.000 OA
ATOM     41  C   UNL     1     107.962 130.832 142.484  0.00  0.00    +0.000 C 
ENDBRANCH  39  41
ENDBRANCH  30  35
ENDBRANCH  24  30
ENDBRANCH  20  27
ENDBRANCH   4  20
BRANCH   8  42
ATOM     42  O   UNL     1     113.105 126.644 137.682  0.00  0.00    +0.000 OA
BRANCH  42  51
ATOM     43  O   UNL     1     112.372 125.581 137.070  0.00  0.00    +0.000 OA
ATOM     44  O   UNL     1     114.342 124.098 137.284  0.00  0.00    +0.000 OA
ATOM     45  O   UNL     1     112.952 123.529 136.601  0.00  0.00    +0.000 OA
ATOM     46  O   UNL     1     114.419 125.655 137.825  0.00  0.00    +0.000 OA
ATOM     47  C   UNL     1     113.686 124.592 137.213  0.00  0.00    +0.000 C 
ATOM     48  C   UNL     1     112.990 124.308 136.871  0.00  0.00    +0.000 C 
ATOM     49  C   UNL     1     113.723 125.371 137.483  0.00  0.00    +0.000 C 
ATOM     50  C   UNL     1     112.334 124.802 136.800  0.00  0.00    +0.000 C 
ATOM     51  C   UNL     1     113.067 125.866 137.412  0.00  0.00    +0.000 C 
BRANCH  50  53
ATOM     52  O   UNL     1     111.191 125.007 135.967  0.00  0.00    +0.000 OA
ATOM     53  C   UNL     1     111.638 124.518 136.459  0.00  0.00    +0.000 C 
ENDBRANCH  50  53
ENDBRANCH  42  51
ENDBRANCH   8  42
BRANCH  10  54
ATOM     54  C   UNL     1     112.355 128.150 137.526  0.00  0.00    +0.000 C 
BRANCH  54  55
ATOM     55  C   UNL     1     113.010 128.652 137.532  0.00  0.00    +0.000 C 
ATOM     56  C   UNL     1     113.157 129.145 136.887  0.00  0.00    +0.000 C 
ATOM     57  C   UNL     1     113.812 129.647 136.892  0.00  0.00    +0.000 C 
ATOM     58  C   UNL     1     112.650 129.135 136.236  0.00  0.00    +0.000 C 
ENDBRANCH  54  55
ENDBRANCH  10  54
TORSDOF 11
ENDMDL
MODEL 3
REMARK VINA RESULT:     -10.1      1.592      6.622
REMARK  Name = 13964057
REMARK  11 active torsions:
REMARK  status: ('A' for Active; 'I' for Inactive)
REMARK    1  A    between atoms: O_1  and  C_21
REMARK    2  A    between atoms: O_1  and  C_23
REMARK    3  A    between atoms: O_4  and  C_26
REMARK    4  A    between atoms: O_4  and  C_38
REMARK    5  A    between atoms: O_12  and  C_37
REMARK    6  A    between atoms: O_12  and  C_43
REMARK    7  A    between atoms: C_30  and  C_32
REMARK    8  A    between atoms: C_36  and  C_39
REMARK    9  A    between atoms: C_41  and  C_48
REMARK   10  A    between atoms: C_45  and  C_49
REMARK   11  A    between atoms: C_49  and  C_50
REMARK                            x       y       z     vdW  Elec       q    Type
REMARK                         _______ _______ _______ _____ _____    ______ ____
ROOT
ATOM      1  O   UNL     1     112.753 128.802 138.483  0.00  0.00    +0.000 OA
ATOM      2  O   UNL     1     110.558 128.554 139.600  0.00  0.00    +0.000 OA
ATOM      3  O   UNL     1     110.064 127.743 138.514  0.00  0.00    +0.000 OA
ATOM      4  C   UNL     1     111.887 129.077 139.586  0.00  0.00    +0.000 A 
ATOM      5  C   UNL     1     111.290 128.637 139.228  0.00  0.00    +0.000 A 
ATOM      6  C   UNL     1     112.619 129.160 139.214  0.00  0.00    +0.000 A 
ATOM      7  C   UNL     1     111.423 128.278 138.497  0.00  0.00    +0.000 A 
ATOM      8  C   UNL     1     111.687 127.531 136.985  0.00  0.00    +0.000 A 
ATOM      9  C   UNL     1     112.154 128.360 138.124  0.00  0.00    +0.000 A 
ATOM     10  C   UNL     1     112.305 127.991 137.363  0.00  0.00    +0.000 A 
ATOM     11  C   UNL     1     110.792 127.821 138.135  0.00  0.00    +0.000 A 
ATOM     12  C   UNL     1     110.925 127.444 137.373  0.00  0.00    +0.000 A 
ENDROOT
BRANCH   6  14
ATOM     13  O   UNL     1     115.010 130.926 140.645  0.00  0.00    +0.000 OA
ATOM     14  C   UNL     1     113.217 129.601 139.572  0.00  0.00    +0.000 A 
ATOM     15  C   UNL     1     113.355 130.379 139.332  0.00  0.00    +0.000 A 
ATOM     16  C   UNL     1     113.676 129.266 140.169  0.00  0.00    +0.000 A 
ATOM     17  C   UNL     1     113.954 130.820 139.690  0.00  0.00    +0.000 A 
ATOM     18  C   UNL     1     114.274 129.707 140.527  0.00  0.00    +0.000 A 
ATOM     19  C   UNL     1     114.413 130.484 140.288  0.00  0.00    +0.000 A 
ENDBRANCH   6  14
BRANCH   4  20
ATOM     20  O   UNL     1     111.754 129.436 140.317  0.00  0.00    +0.000 OA
BRANCH  20  27
ATOM     21  O   UNL     1     110.922 130.493 139.832  0.00  0.00    +0.000 OA
ATOM     22  O   UNL     1     109.549 130.354 141.887  0.00  0.00    +0.000 OA
ATOM     23  O   UNL     1     109.175 131.457 140.717  0.00  0.00    +0.000 OA
ATOM     24  C   UNL     1     110.651 129.895 141.102  0.00  0.00    +0.000 C 
ATOM     25  C   UNL     1     110.007 130.400 141.202  0.00  0.00    +0.000 C 
ATOM     26  C   UNL     1     109.820 130.951 140.618  0.00  0.00    +0.000 C 
ATOM     27  C   UNL     1     111.109 129.941 140.418  0.00  0.00    +0.000 C 
ATOM     28  C   UNL     1     110.278 130.997 139.933  0.00  0.00    +0.000 C 
ATOM     29  C   UNL     1     110.091 131.549 139.348  0.00  0.00    +0.000 C 
BRANCH  24  30
ATOM     30  O   UNL     1     110.838 129.344 141.686  0.00  0.00    +0.000 OA
BRANCH  30  35
ATOM     31  O   UNL     1     111.439 130.372 142.477  0.00  0.00    +0.000 OA
ATOM     32  O   UNL     1     110.994 128.287 142.944  0.00  0.00    +0.000 OA
ATOM     33  O   UNL     1     111.672 128.787 144.363  0.00  0.00    +0.000 OA
ATOM     34  O   UNL     1     112.194 130.344 144.524  0.00  0.00    +0.000 OA
ATOM     35  C   UNL     1     111.177 129.594 142.396  0.00  0.00    +0.000 C 
ATOM     36  C   UNL     1     111.255 129.065 143.025  0.00  0.00    +0.000 C 
ATOM     37  C   UNL     1     111.594 129.315 143.735  0.00  0.00    +0.000 C 
ATOM     38  C   UNL     1     111.855 130.094 143.814  0.00  0.00    +0.000 C 
ATOM     39  C   UNL     1     111.778 130.622 143.186  0.00  0.00    +0.000 C 
BRANCH  39  41
ATOM     40  O   UNL     1     112.680 131.669 142.822  0.00  0.00    +0.000 OA
ATOM     41  C   UNL     1     112.039 131.401 143.266  0.00  0.00    +0.000 C 
ENDBRANCH  39  41
ENDBRANCH  30  35
ENDBRANCH  24  30
ENDBRANCH  20  27
ENDBRANCH   4  20
BRANCH   8  42
ATOM     42  O   UNL     1     111.823 127.173 136.254  0.00  0.00    +0.000 OA
BRANCH  42  51
ATOM     43  O   UNL     1     111.989 125.803 136.626  0.00  0.00    +0.000 OA
ATOM     44  O   UNL     1     110.400 125.128 134.853  0.00  0.00    +0.000 OA
ATOM     45  O   UNL     1     111.096 123.984 135.817  0.00  0.00    +0.000 OA
ATOM     46  O   UNL     1     110.764 126.723 135.072  0.00  0.00    +0.000 OA
ATOM     47  C   UNL     1     110.930 125.353 135.444  0.00  0.00    +0.000 C 
ATOM     48  C   UNL     1     111.278 124.781 135.926  0.00  0.00    +0.000 C 
ATOM     49  C   UNL     1     111.112 126.151 135.554  0.00  0.00    +0.000 C 
ATOM     50  C   UNL     1     111.808 125.006 136.517  0.00  0.00    +0.000 C 
ATOM     51  C   UNL     1     111.642 126.376 136.145  0.00  0.00    +0.000 C 
BRANCH  50  53
ATOM     52  O   UNL     1     112.944 124.514 137.230  0.00  0.00    +0.000 OA
ATOM     53  C   UNL     1     112.156 124.434 136.999  0.00  0.00    +0.000 C 
ENDBRANCH  50  53
ENDBRANCH  42  51
ENDBRANCH   8  42
BRANCH  10  54
ATOM     54  C   UNL     1     113.040 128.079 136.998  0.00  0.00    +0.000 C 
BRANCH  54  55
ATOM     55  C   UNL     1     113.156 128.681 136.446  0.00  0.00    +0.000 C 
ATOM     56  C   UNL     1     113.875 128.742 136.047  0.00  0.00    +0.000 C 
ATOM     57  C   UNL     1     113.992 129.344 135.495  0.00  0.00    +0.000 C 
ATOM     58  C   UNL     1     114.479 128.200 136.201  0.00  0.00    +0.000 C 
ENDBRANCH  54  55
ENDBRANCH  10  54
TORSDOF 11
ENDMDL
MODEL 4
REMARK VINA RESULT:     -10.0      2.274      3.848
REMARK  Name = 13964057
REMARK  11 active torsions:
REMARK  status: ('A' for Active; 'I' for Inactive)
REMARK    1  A    between atoms: O_1  and  C_21
REMARK    2  A    between atoms: O_1  and  C_23
REMARK    3  A    between atoms: O_4  and  C_26
REMARK    4  A    between atoms: O_4  and  C_38
REMARK    5  A    between atoms: O_12  and  C_37
REMARK    6  A    between atoms: O_12  and  C_43
REMARK    7  A    between atoms: C_30  and  C_32
REMARK    8  A    between atoms: C_36  and  C_39
REMARK    9  A    between atoms: C_41  and  C_48
REMARK   10  A    between atoms: C_45  and  C_49
REMARK   11  A    between atoms: C_49  and  C_50
REMARK                            x       y       z     vdW  Elec       q    Type
REMARK                         _______ _______ _______ _____ _____    ______ ____
ROOT
ATOM      1  O   UNL     1     111.582 128.542 140.635  0.00  0.00    +0.000 OA
ATOM      2  O   UNL     1     110.600 127.997 138.429  0.00  0.00    +0.000 OA
ATOM      3  O   UNL     1     109.424 128.777 138.727  0.00  0.00    +0.000 OA
ATOM      4  C   UNL     1     111.668 127.880 139.371  0.00  0.00    +0.000 A 
ATOM      5  C   UNL     1     110.928 128.179 139.164  0.00  0.00    +0.000 A 
ATOM      6  C   UNL     1     111.995 128.062 140.107  0.00  0.00    +0.000 A 
ATOM      7  C   UNL     1     110.514 128.659 139.692  0.00  0.00    +0.000 A 
ATOM      8  C   UNL     1     109.648 129.654 140.775  0.00  0.00    +0.000 A 
ATOM      9  C   UNL     1     110.840 128.841 140.427  0.00  0.00    +0.000 A 
ATOM     10  C   UNL     1     110.419 129.340 140.985  0.00  0.00    +0.000 A 
ATOM     11  C   UNL     1     109.744 128.964 139.464  0.00  0.00    +0.000 A 
ATOM     12  C   UNL     1     109.307 129.465 140.009  0.00  0.00    +0.000 A 
ENDROOT
BRANCH   6  14
ATOM     13  O   UNL     1     114.957 126.868 140.937  0.00  0.00    +0.000 OA
ATOM     14  C   UNL     1     112.735 127.764 140.314  0.00  0.00    +0.000 A 
ATOM     15  C   UNL     1     112.803 126.996 140.609  0.00  0.00    +0.000 A 
ATOM     16  C   UNL     1     113.409 128.233 140.228  0.00  0.00    +0.000 A 
ATOM     17  C   UNL     1     113.544 126.697 140.816  0.00  0.00    +0.000 A 
ATOM     18  C   UNL     1     114.149 127.934 140.435  0.00  0.00    +0.000 A 
ATOM     19  C   UNL     1     114.216 127.167 140.729  0.00  0.00    +0.000 A 
ENDBRANCH   6  14
BRANCH   4  20
ATOM     20  O   UNL     1     112.082 127.400 138.843  0.00  0.00    +0.000 OA
BRANCH  20  27
ATOM     21  O   UNL     1     112.534 128.435 137.968  0.00  0.00    +0.000 OA
ATOM     22  O   UNL     1     112.164 126.952 136.022  0.00  0.00    +0.000 OA
ATOM     23  O   UNL     1     112.740 128.481 135.796  0.00  0.00    +0.000 OA
ATOM     24  C   UNL     1     112.122 127.175 137.433  0.00  0.00    +0.000 C 
ATOM     25  C   UNL     1     112.287 127.446 136.671  0.00  0.00    +0.000 C 
ATOM     26  C   UNL     1     112.575 128.210 136.558  0.00  0.00    +0.000 C 
ATOM     27  C   UNL     1     112.246 127.670 138.081  0.00  0.00    +0.000 C 
ATOM     28  C   UNL     1     112.699 128.705 137.206  0.00  0.00    +0.000 C 
ATOM     29  C   UNL     1     112.987 129.470 137.093  0.00  0.00    +0.000 C 
BRANCH  24  30
ATOM     30  O   UNL     1     111.834 126.411 137.546  0.00  0.00    +0.000 OA
BRANCH  30  35
ATOM     31  O   UNL     1     113.151 125.865 137.446  0.00  0.00    +0.000 OA
ATOM     32  O   UNL     1     111.194 124.907 137.319  0.00  0.00    +0.000 OA
ATOM     33  O   UNL     1     112.192 123.610 137.105  0.00  0.00    +0.000 OA
ATOM     34  O   UNL     1     113.829 123.817 137.119  0.00  0.00    +0.000 OA
ATOM     35  C   UNL     1     112.333 125.763 137.439  0.00  0.00    +0.000 C 
ATOM     36  C   UNL     1     112.013 125.010 137.326  0.00  0.00    +0.000 C 
ATOM     37  C   UNL     1     112.511 124.361 137.219  0.00  0.00    +0.000 C 
ATOM     38  C   UNL     1     113.330 124.465 137.226  0.00  0.00    +0.000 C 
ATOM     39  C   UNL     1     113.650 125.217 137.339  0.00  0.00    +0.000 C 
BRANCH  39  41
ATOM     40  O   UNL     1     114.871 125.384 138.063  0.00  0.00    +0.000 OA
ATOM     41  C   UNL     1     114.468 125.321 137.346  0.00  0.00    +0.000 C 
ENDBRANCH  39  41
ENDBRANCH  30  35
ENDBRANCH  24  30
ENDBRANCH  20  27
ENDBRANCH   4  20
BRANCH   8  42
ATOM     42  O   UNL     1     109.237 130.134 141.305  0.00  0.00    +0.000 OA
BRANCH  42  51
ATOM     43  O   UNL     1     108.135 129.297 141.661  0.00  0.00    +0.000 OA
ATOM     44  O   UNL     1     106.575 131.173 141.245  0.00  0.00    +0.000 OA
ATOM     45  O   UNL     1     105.993 129.710 141.740  0.00  0.00    +0.000 OA
ATOM     46  O   UNL     1     108.197 131.385 141.028  0.00  0.00    +0.000 OA
ATOM     47  C   UNL     1     107.095 130.548 141.384  0.00  0.00    +0.000 C 
ATOM     48  C   UNL     1     106.804 129.817 141.631  0.00  0.00    +0.000 C 
ATOM     49  C   UNL     1     107.906 130.654 141.275  0.00  0.00    +0.000 C 
ATOM     50  C   UNL     1     107.324 129.191 141.769  0.00  0.00    +0.000 C 
ATOM     51  C   UNL     1     108.426 130.028 141.414  0.00  0.00    +0.000 C 
BRANCH  50  53
ATOM     52  O   UNL     1     107.455 128.013 142.567  0.00  0.00    +0.000 OA
ATOM     53  C   UNL     1     107.033 128.460 142.017  0.00  0.00    +0.000 C 
ENDBRANCH  50  53
ENDBRANCH  42  51
ENDBRANCH   8  42
BRANCH  10  54
ATOM     54  C   UNL     1     110.755 129.517 141.719  0.00  0.00    +0.000 C 
BRANCH  54  55
ATOM     55  C   UNL     1     111.181 130.216 141.819  0.00  0.00    +0.000 C 
ATOM     56  C   UNL     1     111.539 130.380 142.544  0.00  0.00    +0.000 C 
ATOM     57  C   UNL     1     111.965 131.079 142.645  0.00  0.00    +0.000 C 
ATOM     58  C   UNL     1     111.470 129.845 143.168  0.00  0.00    +0.000 C 
ENDBRANCH  54  55
ENDBRANCH  10  54
TORSDOF 11
ENDMDL
MODEL 5
REMARK VINA RESULT:      -9.9      1.924      6.681
REMARK  Name = 13964057
REMARK  11 active torsions:
REMARK  status: ('A' for Active; 'I' for Inactive)
REMARK    1  A    between atoms: O_1  and  C_21
REMARK    2  A    between atoms: O_1  and  C_23
REMARK    3  A    between atoms: O_4  and  C_26
REMARK    4  A    between atoms: O_4  and  C_38
REMARK    5  A    between atoms: O_12  and  C_37
REMARK    6  A    between atoms: O_12  and  C_43
REMARK    7  A    between atoms: C_30  and  C_32
REMARK    8  A    between atoms: C_36  and  C_39
REMARK    9  A    between atoms: C_41  and  C_48
REMARK   10  A    between atoms: C_45  and  C_49
REMARK   11  A    between atoms: C_49  and  C_50
REMARK                            x       y       z     vdW  Elec       q    Type
REMARK                         _______ _______ _______ _____ _____    ______ ____
ROOT
ATOM      1  O   UNL     1     111.783 128.889 138.206  0.00  0.00    +0.000 OA
ATOM      2  O   UNL     1     112.391 127.839 140.363  0.00  0.00    +0.000 OA
ATOM      3  O   UNL     1     113.141 126.810 139.684  0.00  0.00    +0.000 OA
ATOM      4  C   UNL     1     111.720 128.867 139.633  0.00  0.00    +0.000 A 
ATOM      5  C   UNL     1     112.188 128.189 139.644  0.00  0.00    +0.000 A 
ATOM      6  C   UNL     1     111.517 129.218 138.914  0.00  0.00    +0.000 A 
ATOM      7  C   UNL     1     112.455 127.861 138.936  0.00  0.00    +0.000 A 
ATOM      8  C   UNL     1     113.013 127.172 137.477  0.00  0.00    +0.000 A 
ATOM      9  C   UNL     1     112.253 128.210 138.216  0.00  0.00    +0.000 A 
ATOM     10  C   UNL     1     112.524 127.878 137.472  0.00  0.00    +0.000 A 
ATOM     11  C   UNL     1     112.943 127.154 138.961  0.00  0.00    +0.000 A 
ATOM     12  C   UNL     1     113.225 126.806 138.226  0.00  0.00    +0.000 A 
ENDROOT
BRANCH   6  14
ATOM     13  O   UNL     1     109.639 131.930 138.870  0.00  0.00    +0.000 OA
ATOM     14  C   UNL     1     111.048 129.896 138.903  0.00  0.00    +0.000 A 
ATOM     15  C   UNL     1     110.235 129.833 138.775  0.00  0.00    +0.000 A 
ATOM     16  C   UNL     1     111.390 130.637 139.020  0.00  0.00    +0.000 A 
ATOM     17  C   UNL     1     109.765 130.512 138.764  0.00  0.00    +0.000 A 
ATOM     18  C   UNL     1     110.922 131.315 139.009  0.00  0.00    +0.000 A 
ATOM     19  C   UNL     1     110.109 131.253 138.881  0.00  0.00    +0.000 A 
ENDBRANCH   6  14
BRANCH   4  20
ATOM     20  O   UNL     1     111.453 129.196 140.341  0.00  0.00    +0.000 OA
BRANCH  20  27
ATOM     21  O   UNL     1     110.430 128.229 140.589  0.00  0.00    +0.000 OA
ATOM     22  O   UNL     1     110.877 128.379 143.019  0.00  0.00    +0.000 OA
ATOM     23  O   UNL     1     109.706 127.362 142.457  0.00  0.00    +0.000 OA
ATOM     24  C   UNL     1     111.165 128.788 141.680  0.00  0.00    +0.000 C 
ATOM     25  C   UNL     1     110.728 128.329 142.209  0.00  0.00    +0.000 C 
ATOM     26  C   UNL     1     110.143 127.821 141.928  0.00  0.00    +0.000 C 
ATOM     27  C   UNL     1     111.016 128.738 140.870  0.00  0.00    +0.000 C 
ATOM     28  C   UNL     1     109.994 127.771 141.118  0.00  0.00    +0.000 C 
ATOM     29  C   UNL     1     109.408 127.262 140.837  0.00  0.00    +0.000 C 
BRANCH  24  30
ATOM     30  O   UNL     1     111.751 129.296 141.961  0.00  0.00    +0.000 OA
BRANCH  30  35
ATOM     31  O   UNL     1     110.752 130.229 142.378  0.00  0.00    +0.000 OA
ATOM     32  O   UNL     1     112.927 130.399 142.311  0.00  0.00    +0.000 OA
ATOM     33  O   UNL     1     112.515 131.883 142.903  0.00  0.00    +0.000 OA
ATOM     34  O   UNL     1     110.928 132.265 143.144  0.00  0.00    +0.000 OA
ATOM     35  C   UNL     1     111.545 130.038 142.257  0.00  0.00    +0.000 C 
ATOM     36  C   UNL     1     112.133 130.590 142.432  0.00  0.00    +0.000 C 
ATOM     37  C   UNL     1     111.928 131.332 142.728  0.00  0.00    +0.000 C 
ATOM     38  C   UNL     1     111.134 131.523 142.848  0.00  0.00    +0.000 C 
ATOM     39  C   UNL     1     110.546 130.972 142.674  0.00  0.00    +0.000 C 
BRANCH  39  41
ATOM     40  O   UNL     1     109.243 131.236 142.150  0.00  0.00    +0.000 OA
ATOM     41  C   UNL     1     109.752 131.162 142.794  0.00  0.00    +0.000 C 
ENDBRANCH  39  41
ENDBRANCH  30  35
ENDBRANCH  24  30
ENDBRANCH  20  27
ENDBRANCH   4  20
BRANCH   8  42
ATOM     42  O   UNL     1     113.278 126.845 136.767  0.00  0.00    +0.000 OA
BRANCH  42  51
ATOM     43  O   UNL     1     112.511 125.642 136.700  0.00  0.00    +0.000 OA
ATOM     44  O   UNL     1     114.563 124.360 136.180  0.00  0.00    +0.000 OA
ATOM     45  O   UNL     1     113.111 123.585 136.286  0.00  0.00    +0.000 OA
ATOM     46  O   UNL     1     114.647 125.991 136.421  0.00  0.00    +0.000 OA
ATOM     47  C   UNL     1     113.879 124.788 136.353  0.00  0.00    +0.000 C 
ATOM     48  C   UNL     1     113.153 124.400 136.406  0.00  0.00    +0.000 C 
ATOM     49  C   UNL     1     113.920 125.603 136.474  0.00  0.00    +0.000 C 
ATOM     50  C   UNL     1     112.468 124.827 136.579  0.00  0.00    +0.000 C 
ATOM     51  C   UNL     1     113.236 126.030 136.647  0.00  0.00    +0.000 C 
BRANCH  50  53
ATOM     52  O   UNL     1     111.066 124.784 136.307  0.00  0.00    +0.000 OA
ATOM     53  C   UNL     1     111.742 124.439 136.632  0.00  0.00    +0.000 C 
ENDBRANCH  50  53
ENDBRANCH  42  51
ENDBRANCH   8  42
BRANCH  10  54
ATOM     54  C   UNL     1     112.317 128.235 136.758  0.00  0.00    +0.000 C 
BRANCH  54  55
ATOM     55  C   UNL     1     112.841 128.754 136.390  0.00  0.00    +0.000 C 
ATOM     56  C   UNL     1     112.626 129.128 135.686  0.00  0.00    +0.000 C 
ATOM     57  C   UNL     1     113.150 129.647 135.317  0.00  0.00    +0.000 C 
ATOM     58  C   UNL     1     111.886 128.981 135.351  0.00  0.00    +0.000 C 
ENDBRANCH  54  55
ENDBRANCH  10  54
TORSDOF 11
ENDMDL
MODEL 6
REMARK VINA RESULT:      -9.9      2.206      4.248
REMARK  Name = 13964057
REMARK  11 active torsions:
REMARK  status: ('A' for Active; 'I' for Inactive)
REMARK    1  A    between atoms: O_1  and  C_21
REMARK    2  A    between atoms: O_1  and  C_23
REMARK    3  A    between atoms: O_4  and  C_26
REMARK    4  A    between atoms: O_4  and  C_38
REMARK    5  A    between atoms: O_12  and  C_37
REMARK    6  A    between atoms: O_12  and  C_43
REMARK    7  A    between atoms: C_30  and  C_32
REMARK    8  A    between atoms: C_36  and  C_39
REMARK    9  A    between atoms: C_41  and  C_48
REMARK   10  A    between atoms: C_45  and  C_49
REMARK   11  A    between atoms: C_49  and  C_50
REMARK                            x       y       z     vdW  Elec       q    Type
REMARK                         _______ _______ _______ _____ _____    ______ ____
ROOT
ATOM      1  O   UNL     1     111.364 129.430 143.077  0.00  0.00    +0.000 OA
ATOM      2  O   UNL     1     111.580 131.261 141.425  0.00  0.00    +0.000 OA
ATOM      3  O   UNL     1     111.593 132.248 142.477  0.00  0.00    +0.000 OA
ATOM      4  C   UNL     1     111.467 129.867 141.721  0.00  0.00    +0.000 A 
ATOM      5  C   UNL     1     111.508 130.650 141.975  0.00  0.00    +0.000 A 
ATOM      6  C   UNL     1     111.395 129.257 142.271  0.00  0.00    +0.000 A 
ATOM      7  C   UNL     1     111.477 130.824 142.781  0.00  0.00    +0.000 A 
ATOM      8  C   UNL     1     111.415 131.196 144.446  0.00  0.00    +0.000 A 
ATOM      9  C   UNL     1     111.406 130.214 143.333  0.00  0.00    +0.000 A 
ATOM     10  C   UNL     1     111.372 130.382 144.175  0.00  0.00    +0.000 A 
ATOM     11  C   UNL     1     111.521 131.644 143.034  0.00  0.00    +0.000 A 
ATOM     12  C   UNL     1     111.490 131.832 143.873  0.00  0.00    +0.000 A 
ENDROOT
BRANCH   6  14
ATOM     13  O   UNL     1     111.232 126.123 141.252  0.00  0.00    +0.000 OA
ATOM     14  C   UNL     1     111.354 128.474 142.017  0.00  0.00    +0.000 A 
ATOM     15  C   UNL     1     112.039 128.016 141.978  0.00  0.00    +0.000 A 
ATOM     16  C   UNL     1     110.628 128.147 141.800  0.00  0.00    +0.000 A 
ATOM     17  C   UNL     1     111.999 127.232 141.723  0.00  0.00    +0.000 A 
ATOM     18  C   UNL     1     110.587 127.364 141.545  0.00  0.00    +0.000 A 
ATOM     19  C   UNL     1     111.272 126.907 141.507  0.00  0.00    +0.000 A 
ENDBRANCH   6  14
BRANCH   4  20
ATOM     20  O   UNL     1     111.498 129.694 140.915  0.00  0.00    +0.000 OA
BRANCH  20  27
ATOM     21  O   UNL     1     112.900 129.928 140.767  0.00  0.00    +0.000 OA
ATOM     22  O   UNL     1     112.512 130.801 138.483  0.00  0.00    +0.000 OA
ATOM     23  O   UNL     1     114.043 130.745 139.096  0.00  0.00    +0.000 OA
ATOM     24  C   UNL     1     112.005 130.247 139.699  0.00  0.00    +0.000 C 
ATOM     25  C   UNL     1     112.642 130.510 139.244  0.00  0.00    +0.000 C 
ATOM     26  C   UNL     1     113.406 130.482 139.550  0.00  0.00    +0.000 C 
ATOM     27  C   UNL     1     112.134 129.957 140.460  0.00  0.00    +0.000 C 
ATOM     28  C   UNL     1     113.536 130.191 140.312  0.00  0.00    +0.000 C 
ATOM     29  C   UNL     1     114.302 130.163 140.619  0.00  0.00    +0.000 C 
BRANCH  24  30
ATOM     30  O   UNL     1     111.240 130.275 139.393  0.00  0.00    +0.000 OA
BRANCH  30  35
ATOM     31  O   UNL     1     111.507 129.110 138.609  0.00  0.00    +0.000 OA
ATOM     32  O   UNL     1     109.669 130.254 138.886  0.00  0.00    +0.000 OA
ATOM     33  O   UNL     1     109.152 129.079 137.850  0.00  0.00    +0.000 OA
ATOM     34  O   UNL     1     110.205 127.924 137.321  0.00  0.00    +0.000 OA
ATOM     35  C   UNL     1     110.981 129.688 138.875  0.00  0.00    +0.000 C 
ATOM     36  C   UNL     1     110.195 129.677 138.621  0.00  0.00    +0.000 C 
ATOM     37  C   UNL     1     109.937 129.089 138.103  0.00  0.00    +0.000 C 
ATOM     38  C   UNL     1     110.464 128.512 137.839  0.00  0.00    +0.000 C 
ATOM     39  C   UNL     1     111.249 128.522 138.092  0.00  0.00    +0.000 C 
BRANCH  39  41
ATOM     40  O   UNL     1     112.042 127.361 138.344  0.00  0.00    +0.000 OA
ATOM     41  C   UNL     1     111.776 127.945 137.827  0.00  0.00    +0.000 C 
ENDBRANCH  39  41
ENDBRANCH  30  35
ENDBRANCH  24  30
ENDBRANCH  20  27
ENDBRANCH   4  20
BRANCH   8  42
ATOM     42  O   UNL     1     111.384 131.366 145.253  0.00  0.00    +0.000 OA
BRANCH  42  51
ATOM     43  O   UNL     1     110.066 131.908 145.364  0.00  0.00    +0.000 OA
ATOM     44  O   UNL     1     110.952 133.792 146.702  0.00  0.00    +0.000 OA
ATOM     45  O   UNL     1     109.338 133.705 146.367  0.00  0.00    +0.000 OA
ATOM     46  O   UNL     1     111.974 132.622 146.145  0.00  0.00    +0.000 OA
ATOM     47  C   UNL     1     110.657 133.164 146.256  0.00  0.00    +0.000 C 
ATOM     48  C   UNL     1     109.850 133.120 146.089  0.00  0.00    +0.000 C 
ATOM     49  C   UNL     1     111.168 132.579 145.977  0.00  0.00    +0.000 C 
ATOM     50  C   UNL     1     109.555 132.492 145.643  0.00  0.00    +0.000 C 
ATOM     51  C   UNL     1     110.872 131.951 145.531  0.00  0.00    +0.000 C 
BRANCH  50  53
ATOM     52  O   UNL     1     108.361 131.720 145.501  0.00  0.00    +0.000 OA
ATOM     53  C   UNL     1     108.748 132.448 145.475  0.00  0.00    +0.000 C 
ENDBRANCH  50  53
ENDBRANCH  42  51
ENDBRANCH   8  42
BRANCH  10  54
ATOM     54  C   UNL     1     111.300 129.765 144.718  0.00  0.00    +0.000 C 
BRANCH  54  55
ATOM     55  C   UNL     1     111.965 129.498 145.128  0.00  0.00    +0.000 C 
ATOM     56  C   UNL     1     111.903 128.852 145.636  0.00  0.00    +0.000 C 
ATOM     57  C   UNL     1     112.566 128.584 146.047  0.00  0.00    +0.000 C 
ATOM     58  C   UNL     1     111.176 128.473 145.735  0.00  0.00    +0.000 C 
ENDBRANCH  54  55
ENDBRANCH  10  54
TORSDOF 11
ENDMDL
MODEL 7
REMARK VINA RESULT:      -9.8      4.380      7.697
REMARK  Name = 13964057
REMARK  11 active torsions:
REMARK  status: ('A' for Active; 'I' for Inactive)
REMARK    1  A    between atoms: O_1  and  C_21
REMARK    2  A    between atoms: O_1  and  C_23
REMARK    3  A    between atoms: O_4  and  C_26
REMARK    4  A    between atoms: O_4  and  C_38
REMARK    5  A    between atoms: O_12  and  C_37
REMARK    6  A    between atoms: O_12  and  C_43
REMARK    7  A    between atoms: C_30  and  C_32
REMARK    8  A    between atoms: C_36  and  C_39
REMARK    9  A    between atoms: C_41  and  C_48
REMARK   10  A    between atoms: C_45  and  C_49
REMARK   11  A    between atoms: C_49  and  C_50
REMARK                            x       y       z     vdW  Elec       q    Type
REMARK                         _______ _______ _______ _____ _____    ______ ____
ROOT
ATOM      1  O   UNL     1     107.351 127.839 141.623  0.00  0.00    +0.000 OA
ATOM      2  O   UNL     1     109.355 126.386 141.583  0.00  0.00    +0.000 OA
ATOM      3  O   UNL     1     108.532 125.201 141.599  0.00  0.00    +0.000 OA
ATOM      4  C   UNL     1     108.772 127.690 141.594  0.00  0.00    +0.000 A 
ATOM      5  C   UNL     1     108.687 126.870 141.596  0.00  0.00    +0.000 A 
ATOM      6  C   UNL     1     108.105 128.175 141.608  0.00  0.00    +0.000 A 
ATOM      7  C   UNL     1     107.934 126.534 141.611  0.00  0.00    +0.000 A 
ATOM      8  C   UNL     1     106.382 125.826 141.642  0.00  0.00    +0.000 A 
ATOM      9  C   UNL     1     107.266 127.017 141.625  0.00  0.00    +0.000 A 
ATOM     10  C   UNL     1     106.477 126.679 141.640  0.00  0.00    +0.000 A 
ATOM     11  C   UNL     1     107.859 125.678 141.613  0.00  0.00    +0.000 A 
ATOM     12  C   UNL     1     107.077 125.320 141.629  0.00  0.00    +0.000 A 
ENDROOT
BRANCH   6  14
ATOM     13  O   UNL     1     108.444 131.457 141.602  0.00  0.00    +0.000 OA
ATOM     14  C   UNL     1     108.189 128.995 141.606  0.00  0.00    +0.000 A 
ATOM     15  C   UNL     1     108.301 129.400 142.316  0.00  0.00    +0.000 A 
ATOM     16  C   UNL     1     108.163 129.412 140.894  0.00  0.00    +0.000 A 
ATOM     17  C   UNL     1     108.386 130.221 142.315  0.00  0.00    +0.000 A 
ATOM     18  C   UNL     1     108.247 130.232 140.892  0.00  0.00    +0.000 A 
ATOM     19  C   UNL     1     108.359 130.636 141.603  0.00  0.00    +0.000 A 
ENDBRANCH   6  14
BRANCH   4  20
ATOM     20  O   UNL     1     109.525 128.027 141.579  0.00  0.00    +0.000 OA
BRANCH  20  27
ATOM     21  O   UNL     1     109.791 127.703 140.213  0.00  0.00    +0.000 OA
ATOM     22  O   UNL     1     112.192 127.427 140.745  0.00  0.00    +0.000 OA
ATOM     23  O   UNL     1     111.657 127.195 139.201  0.00  0.00    +0.000 OA
ATOM     24  C   UNL     1     110.859 127.727 141.163  0.00  0.00    +0.000 C 
ATOM     25  C   UNL     1     111.392 127.519 140.568  0.00  0.00    +0.000 C 
ATOM     26  C   UNL     1     111.125 127.403 139.796  0.00  0.00    +0.000 C 
ATOM     27  C   UNL     1     110.059 127.819 140.985  0.00  0.00    +0.000 C 
ATOM     28  C   UNL     1     110.324 127.495 139.619  0.00  0.00    +0.000 C 
ATOM     29  C   UNL     1     110.057 127.379 138.846  0.00  0.00    +0.000 C 
BRANCH  24  30
ATOM     30  O   UNL     1     111.126 127.843 141.934  0.00  0.00    +0.000 OA
BRANCH  30  35
ATOM     31  O   UNL     1     111.657 129.119 141.571  0.00  0.00    +0.000 OA
ATOM     32  O   UNL     1     111.409 128.178 143.524  0.00  0.00    +0.000 OA
ATOM     33  O   UNL     1     112.082 129.621 143.956  0.00  0.00    +0.000 OA
ATOM     34  O   UNL     1     112.471 130.730 142.797  0.00  0.00    +0.000 OA
ATOM     35  C   UNL     1     111.462 128.564 142.150  0.00  0.00    +0.000 C 
ATOM     36  C   UNL     1     111.604 128.732 142.946  0.00  0.00    +0.000 C 
ATOM     37  C   UNL     1     111.940 129.454 143.162  0.00  0.00    +0.000 C 
ATOM     38  C   UNL     1     112.135 130.008 142.582  0.00  0.00    +0.000 C 
ATOM     39  C   UNL     1     111.994 129.841 141.787  0.00  0.00    +0.000 C 
BRANCH  39  41
ATOM     40  O   UNL     1     111.599 130.859 140.865  0.00  0.00    +0.000 OA
ATOM     41  C   UNL     1     112.188 130.394 141.207  0.00  0.00    +0.000 C 
ENDBRANCH  39  41
ENDBRANCH  30  35
ENDBRANCH  24  30
ENDBRANCH  20  27
ENDBRANCH   4  20
BRANCH   8  42
ATOM     42  O   UNL     1     105.627 125.492 141.658  0.00  0.00    +0.000 OA
BRANCH  42  51
ATOM     43  O   UNL     1     105.497 124.967 140.335  0.00  0.00    +0.000 OA
ATOM     44  O   UNL     1     104.778 122.790 141.267  0.00  0.00    +0.000 OA
ATOM     45  O   UNL     1     104.887 122.993 139.633  0.00  0.00    +0.000 OA
ATOM     46  O   UNL     1     105.148 124.040 142.279  0.00  0.00    +0.000 OA
ATOM     47  C   UNL     1     105.017 123.516 140.956  0.00  0.00    +0.000 C 
ATOM     48  C   UNL     1     105.072 123.617 140.139  0.00  0.00    +0.000 C 
ATOM     49  C   UNL     1     105.203 124.141 141.462  0.00  0.00    +0.000 C 
ATOM     50  C   UNL     1     105.312 124.343 139.828  0.00  0.00    +0.000 C 
ATOM     51  C   UNL     1     105.442 124.867 141.151  0.00  0.00    +0.000 C 
BRANCH  50  53
ATOM     52  O   UNL     1     105.159 125.167 138.671  0.00  0.00    +0.000 OA
ATOM     53  C   UNL     1     105.367 124.444 139.011  0.00  0.00    +0.000 C 
ENDBRANCH  50  53
ENDBRANCH  42  51
ENDBRANCH   8  42
BRANCH  10  54
ATOM     54  C   UNL     1     105.814 127.171 141.654  0.00  0.00    +0.000 C 
BRANCH  54  55
ATOM     55  C   UNL     1     105.533 127.463 142.372  0.00  0.00    +0.000 C 
ATOM     56  C   UNL     1     104.894 127.984 142.383  0.00  0.00    +0.000 C 
ATOM     57  C   UNL     1     104.612 128.277 143.101  0.00  0.00    +0.000 C 
ATOM     58  C   UNL     1     104.536 128.213 141.675  0.00  0.00    +0.000 C 
ENDBRANCH  54  55
ENDBRANCH  10  54
TORSDOF 11
ENDMDL
MODEL 8
REMARK VINA RESULT:      -9.8      1.621      2.518
REMARK  Name = 13964057
REMARK  11 active torsions:
REMARK  status: ('A' for Active; 'I' for Inactive)
REMARK    1  A    between atoms: O_1  and  C_21
REMARK    2  A    between atoms: O_1  and  C_23
REMARK    3  A    between atoms: O_4  and  C_26
REMARK    4  A    between atoms: O_4  and  C_38
REMARK    5  A    between atoms: O_12  and  C_37
REMARK    6  A    between atoms: O_12  and  C_43
REMARK    7  A    between atoms: C_30  and  C_32
REMARK    8  A    between atoms: C_36  and  C_39
REMARK    9  A    between atoms: C_41  and  C_48
REMARK   10  A    between atoms: C_45  and  C_49
REMARK   11  A    between atoms: C_49  and  C_50
REMARK                            x       y       z     vdW  Elec       q    Type
REMARK                         _______ _______ _______ _____ _____    ______ ____
ROOT
ATOM      1  O   UNL     1     112.508 129.735 139.488  0.00  0.00    +0.000 OA
ATOM      2  O   UNL     1     110.096 130.274 139.347  0.00  0.00    +0.000 OA
ATOM      3  O   UNL     1     110.102 130.788 140.696  0.00  0.00    +0.000 OA
ATOM      4  C   UNL     1     111.285 129.753 138.749  0.00  0.00    +0.000 A 
ATOM      5  C   UNL     1     110.900 130.094 139.394  0.00  0.00    +0.000 A 
ATOM      6  C   UNL     1     112.089 129.573 138.796  0.00  0.00    +0.000 A 
ATOM      7  C   UNL     1     111.319 130.256 140.086  0.00  0.00    +0.000 A 
ATOM      8  C   UNL     1     112.175 130.595 141.523  0.00  0.00    +0.000 A 
ATOM      9  C   UNL     1     112.122 130.076 140.134  0.00  0.00    +0.000 A 
ATOM     10  C   UNL     1     112.569 130.240 140.849  0.00  0.00    +0.000 A 
ATOM     11  C   UNL     1     110.906 130.611 140.751  0.00  0.00    +0.000 A 
ATOM     12  C   UNL     1     111.337 130.782 141.475  0.00  0.00    +0.000 A 
ENDROOT
BRANCH   6  14
ATOM     13  O   UNL     1     113.629 128.209 136.217  0.00  0.00    +0.000 OA
ATOM     14  C   UNL     1     112.473 129.232 138.152  0.00  0.00    +0.000 A 
ATOM     15  C   UNL     1     112.862 129.710 137.603  0.00  0.00    +0.000 A 
ATOM     16  C   UNL     1     112.470 128.412 138.055  0.00  0.00    +0.000 A 
ATOM     17  C   UNL     1     113.247 129.369 136.957  0.00  0.00    +0.000 A 
ATOM     18  C   UNL     1     112.855 128.071 137.410  0.00  0.00    +0.000 A 
ATOM     19  C   UNL     1     113.244 128.550 136.862  0.00  0.00    +0.000 A 
ENDBRANCH   6  14
BRANCH   4  20
ATOM     20  O   UNL     1     110.866 129.591 138.057  0.00  0.00    +0.000 OA
BRANCH  20  27
ATOM     21  O   UNL     1     110.737 130.954 137.649  0.00  0.00    +0.000 OA
ATOM     22  O   UNL     1     108.526 130.449 136.657  0.00  0.00    +0.000 OA
ATOM     23  O   UNL     1     109.135 131.981 136.579  0.00  0.00    +0.000 OA
ATOM     24  C   UNL     1     109.696 130.019 137.357  0.00  0.00    +0.000 C 
ATOM     25  C   UNL     1     109.263 130.617 136.988  0.00  0.00    +0.000 C 
ATOM     26  C   UNL     1     109.567 131.383 136.949  0.00  0.00    +0.000 C 
ATOM     27  C   UNL     1     110.433 130.188 137.688  0.00  0.00    +0.000 C 
ATOM     28  C   UNL     1     110.304 131.551 137.279  0.00  0.00    +0.000 C 
ATOM     29  C   UNL     1     110.609 132.317 137.240  0.00  0.00    +0.000 C 
BRANCH  24  30
ATOM     30  O   UNL     1     109.392 129.254 137.397  0.00  0.00    +0.000 OA
BRANCH  30  35
ATOM     31  O   UNL     1     109.753 129.035 136.031  0.00  0.00    +0.000 OA
ATOM     32  O   UNL     1     108.953 127.669 137.535  0.00  0.00    +0.000 OA
ATOM     33  O   UNL     1     109.095 126.658 136.238  0.00  0.00    +0.000 OA
ATOM     34  O   UNL     1     109.675 127.232 134.804  0.00  0.00    +0.000 OA
ATOM     35  C   UNL     1     109.463 128.748 136.749  0.00  0.00    +0.000 C 
ATOM     36  C   UNL     1     109.243 127.955 136.817  0.00  0.00    +0.000 C 
ATOM     37  C   UNL     1     109.314 127.450 136.169  0.00  0.00    +0.000 C 
ATOM     38  C   UNL     1     109.604 127.737 135.452  0.00  0.00    +0.000 C 
ATOM     39  C   UNL     1     109.824 128.529 135.383  0.00  0.00    +0.000 C 
BRANCH  39  41
ATOM     40  O   UNL     1     110.894 129.078 134.612  0.00  0.00    +0.000 OA
ATOM     41  C   UNL     1     110.114 128.816 134.666  0.00  0.00    +0.000 C 
ENDBRANCH  39  41
ENDBRANCH  30  35
ENDBRANCH  24  30
ENDBRANCH  20  27
ENDBRANCH   4  20
BRANCH   8  42
ATOM     42  O   UNL     1     112.596 130.756 142.214  0.00  0.00    +0.000 OA
BRANCH  42  51
ATOM     43  O   UNL     1     111.957 129.902 143.166  0.00  0.00    +0.000 OA
ATOM     44  O   UNL     1     111.731 131.810 144.726  0.00  0.00    +0.000 OA
ATOM     45  O   UNL     1     111.168 130.320 145.157  0.00  0.00    +0.000 OA
ATOM     46  O   UNL     1     112.445 132.027 143.254  0.00  0.00    +0.000 OA
ATOM     47  C   UNL     1     111.807 131.174 144.206  0.00  0.00    +0.000 C 
ATOM     48  C   UNL     1     111.525 130.429 144.422  0.00  0.00    +0.000 C 
ATOM     49  C   UNL     1     112.164 131.282 143.470  0.00  0.00    +0.000 C 
ATOM     50  C   UNL     1     111.600 129.793 143.902  0.00  0.00    +0.000 C 
ATOM     51  C   UNL     1     112.239 130.647 142.950  0.00  0.00    +0.000 C 
BRANCH  50  53
ATOM     52  O   UNL     1     111.596 128.375 143.728  0.00  0.00    +0.000 OA
ATOM     53  C   UNL     1     111.319 129.048 144.117  0.00  0.00    +0.000 C 
ENDBRANCH  50  53
ENDBRANCH  42  51
ENDBRANCH   8  42
BRANCH  10  54
ATOM     54  C   UNL     1     113.374 130.057 140.886  0.00  0.00    +0.000 C 
BRANCH  54  55
ATOM     55  C   UNL     1     113.936 130.645 140.754  0.00  0.00    +0.000 C 
ATOM     56  C   UNL     1     114.737 130.450 140.725  0.00  0.00    +0.000 C 
ATOM     57  C   UNL     1     115.301 131.038 140.592  0.00  0.00    +0.000 C 
ATOM     58  C   UNL     1     114.975 129.667 140.828  0.00  0.00    +0.000 C 
ENDBRANCH  54  55
ENDBRANCH  10  54
TORSDOF 11
ENDMDL
MODEL 9
REMARK VINA RESULT:      -9.8      2.551      6.857
REMARK  Name = 13964057
REMARK  11 active torsions:
REMARK  status: ('A' for Active; 'I' for Inactive)
REMARK    1  A    between atoms: O_1  and  C_21
REMARK    2  A    between atoms: O_1  and  C_23
REMARK    3  A    between atoms: O_4  and  C_26
REMARK    4  A    between atoms: O_4  and  C_38
REMARK    5  A    between atoms: O_12  and  C_37
REMARK    6  A    between atoms: O_12  and  C_43
REMARK    7  A    between atoms: C_30  and  C_32
REMARK    8  A    between atoms: C_36  and  C_39
REMARK    9  A    between atoms: C_41  and  C_48
REMARK   10  A    between atoms: C_45  and  C_49
REMARK   11  A    between atoms: C_49  and  C_50
REMARK                            x       y       z     vdW  Elec       q    Type
REMARK                         _______ _______ _______ _____ _____    ______ ____
ROOT
ATOM      1  O   UNL     1     111.536 130.459 139.100  0.00  0.00    +0.000 OA
ATOM      2  O   UNL     1     109.688 131.456 140.411  0.00  0.00    +0.000 OA
ATOM      3  O   UNL     1     109.142 132.074 139.227  0.00  0.00    +0.000 OA
ATOM      4  C   UNL     1     110.871 130.657 140.349  0.00  0.00    +0.000 A 
ATOM      5  C   UNL     1     110.304 131.123 139.974  0.00  0.00    +0.000 A 
ATOM      6  C   UNL     1     111.487 130.325 139.913  0.00  0.00    +0.000 A 
ATOM      7  C   UNL     1     110.352 131.257 139.162  0.00  0.00    +0.000 A 
ATOM      8  C   UNL     1     110.441 131.542 137.481  0.00  0.00    +0.000 A 
ATOM      9  C   UNL     1     110.968 130.926 138.724  0.00  0.00    +0.000 A 
ATOM     10  C   UNL     1     111.029 131.058 137.877  0.00  0.00    +0.000 A 
ATOM     11  C   UNL     1     109.755 131.745 138.782  0.00  0.00    +0.000 A 
ATOM     12  C   UNL     1     109.799 131.889 137.936  0.00  0.00    +0.000 A 
ENDROOT
BRANCH   6  14
ATOM     13  O   UNL     1     113.757 128.458 141.413  0.00  0.00    +0.000 OA
ATOM     14  C   UNL     1     112.055 129.858 140.288  0.00  0.00    +0.000 A 
ATOM     15  C   UNL     1     111.992 129.036 140.267  0.00  0.00    +0.000 A 
ATOM     16  C   UNL     1     112.685 130.214 140.684  0.00  0.00    +0.000 A 
ATOM     17  C   UNL     1     112.560 128.569 140.642  0.00  0.00    +0.000 A 
ATOM     18  C   UNL     1     113.253 129.748 141.059  0.00  0.00    +0.000 A 
ATOM     19  C   UNL     1     113.190 128.925 141.038  0.00  0.00    +0.000 A 
ENDBRANCH   6  14
BRANCH   4  20
ATOM     20  O   UNL     1     110.823 130.523 141.162  0.00  0.00    +0.000 OA
BRANCH  20  27
ATOM     21  O   UNL     1     109.728 129.607 141.104  0.00  0.00    +0.000 OA
ATOM     22  O   UNL     1     108.861 130.508 143.240  0.00  0.00    +0.000 OA
ATOM     23  O   UNL     1     108.055 129.292 142.470  0.00  0.00    +0.000 OA
ATOM     24  C   UNL     1     109.842 130.516 142.201  0.00  0.00    +0.000 C 
ATOM     25  C   UNL     1     109.150 130.208 142.528  0.00  0.00    +0.000 C 
ATOM     26  C   UNL     1     108.747 129.600 142.143  0.00  0.00    +0.000 C 
ATOM     27  C   UNL     1     110.131 130.216 141.489  0.00  0.00    +0.000 C 
ATOM     28  C   UNL     1     109.036 129.300 141.431  0.00  0.00    +0.000 C 
ATOM     29  C   UNL     1     108.632 128.691 141.046  0.00  0.00    +0.000 C 
BRANCH  24  30
ATOM     30  O   UNL     1     110.246 131.124 142.586  0.00  0.00    +0.000 OA
BRANCH  30  35
ATOM     31  O   UNL     1     110.784 130.180 143.514  0.00  0.00    +0.000 OA
ATOM     32  O   UNL     1     111.031 132.343 143.372  0.00  0.00    +0.000 OA
ATOM     33  O   UNL     1     111.963 132.009 144.692  0.00  0.00    +0.000 OA
ATOM     34  O   UNL     1     112.108 130.454 145.227  0.00  0.00    +0.000 OA
ATOM     35  C   UNL     1     110.711 130.956 143.246  0.00  0.00    +0.000 C 
ATOM     36  C   UNL     1     111.104 131.567 143.640  0.00  0.00    +0.000 C 
ATOM     37  C   UNL     1     111.570 131.399 144.300  0.00  0.00    +0.000 C 
ATOM     38  C   UNL     1     111.642 130.622 144.566  0.00  0.00    +0.000 C 
ATOM     39  C   UNL     1     111.250 130.012 144.174  0.00  0.00    +0.000 C 
BRANCH  39  41
ATOM     40  O   UNL     1     111.669 128.663 143.959  0.00  0.00    +0.000 OA
ATOM     41  C   UNL     1     111.322 129.235 144.441  0.00  0.00    +0.000 C 
ENDBRANCH  39  41
ENDBRANCH  30  35
ENDBRANCH  24  30
ENDBRANCH  20  27
ENDBRANCH   4  20
BRANCH   8  42
ATOM     42  O   UNL     1     110.492 131.675 136.668  0.00  0.00    +0.000 OA
BRANCH  42  51
ATOM     43  O   UNL     1     109.365 130.929 136.204  0.00  0.00    +0.000 OA
ATOM     44  O   UNL     1     108.690 132.836 134.777  0.00  0.00    +0.000 OA
ATOM     45  O   UNL     1     107.788 131.454 134.788  0.00  0.00    +0.000 OA
ATOM     46  O   UNL     1     110.042 132.946 135.717  0.00  0.00    +0.000 OA
ATOM     47  C   UNL     1     108.915 132.200 135.252  0.00  0.00    +0.000 C 
ATOM     48  C   UNL     1     108.464 131.509 135.258  0.00  0.00    +0.000 C 
ATOM     49  C   UNL     1     109.591 132.255 135.723  0.00  0.00    +0.000 C 
ATOM     50  C   UNL     1     108.689 130.874 135.734  0.00  0.00    +0.000 C 
ATOM     51  C   UNL     1     109.816 131.619 136.198  0.00  0.00    +0.000 C 
BRANCH  50  53
ATOM     52  O   UNL     1     108.611 129.447 135.705  0.00  0.00    +0.000 OA
ATOM     53  C   UNL     1     108.238 130.183 135.740  0.00  0.00    +0.000 C 
ENDBRANCH  50  53
ENDBRANCH  42  51
ENDBRANCH   8  42
BRANCH  10  54
ATOM     54  C   UNL     1     111.648 130.721 137.448  0.00  0.00    +0.000 C 
BRANCH  54  55
ATOM     55  C   UNL     1     112.339 131.153 137.315  0.00  0.00    +0.000 C 
ATOM     56  C   UNL     1     112.969 130.807 136.911  0.00  0.00    +0.000 C 
ATOM     57  C   UNL     1     113.660 131.238 136.777  0.00  0.00    +0.000 C 
ATOM     58  C   UNL     1     112.909 130.030 136.640  0.00  0.00    +0.000 C 
ENDBRANCH  54  55
ENDBRANCH  10  54
TORSDOF 11
ENDMDL
MODEL 10
REMARK VINA RESULT:      -9.6      4.143      7.036
REMARK  Name = 13964057
REMARK  11 active torsions:
REMARK  status: ('A' for Active; 'I' for Inactive)
REMARK    1  A    between atoms: O_1  and  C_21
REMARK    2  A    between atoms: O_1  and  C_23
REMARK    3  A    between atoms: O_4  and  C_26
REMARK    4  A    between atoms: O_4  and  C_38
REMARK    5  A    between atoms: O_12  and  C_37
REMARK    6  A    between atoms: O_12  and  C_43
REMARK    7  A    between atoms: C_30  and  C_32
REMARK    8  A    between atoms: C_36  and  C_39
REMARK    9  A    between atoms: C_41  and  C_48
REMARK   10  A    between atoms: C_45  and  C_49
REMARK   11  A    between atoms: C_49  and  C_50
REMARK                            x       y       z     vdW  Elec       q    Type
REMARK                         _______ _______ _______ _____ _____    ______ ____
ROOT
ATOM      1  O   UNL     1     108.251 127.032 141.183  0.00  0.00    +0.000 OA
ATOM      2  O   UNL     1     109.783 125.266 140.370  0.00  0.00    +0.000 OA
ATOM      3  O   UNL     1     108.785 124.252 140.604  0.00  0.00    +0.000 OA
ATOM      4  C   UNL     1     109.520 126.642 140.656  0.00  0.00    +0.000 A 
ATOM      5  C   UNL     1     109.273 125.855 140.641  0.00  0.00    +0.000 A 
ATOM      6  C   UNL     1     109.010 127.231 140.927  0.00  0.00    +0.000 A 
ATOM      7  C   UNL     1     108.514 125.657 140.897  0.00  0.00    +0.000 A 
ATOM      8  C   UNL     1     106.947 125.234 141.426  0.00  0.00    +0.000 A 
ATOM      9  C   UNL     1     108.003 126.245 141.169  0.00  0.00    +0.000 A 
ATOM     10  C   UNL     1     107.211 126.051 141.439  0.00  0.00    +0.000 A 
ATOM     11  C   UNL     1     108.268 124.834 140.877  0.00  0.00    +0.000 A 
ATOM     12  C   UNL     1     107.479 124.620 141.143  0.00  0.00    +0.000 A 
ENDROOT
BRANCH   6  14
ATOM     13  O   UNL     1     110.001 130.377 140.987  0.00  0.00    +0.000 OA
ATOM     14  C   UNL     1     109.258 128.017 140.942  0.00  0.00    +0.000 A 
ATOM     15  C   UNL     1     109.708 128.295 141.574  0.00  0.00    +0.000 A 
ATOM     16  C   UNL     1     109.055 128.526 140.324  0.00  0.00    +0.000 A 
ATOM     17  C   UNL     1     109.956 129.083 141.589  0.00  0.00    +0.000 A 
ATOM     18  C   UNL     1     109.303 129.312 140.339  0.00  0.00    +0.000 A 
ATOM     19  C   UNL     1     109.753 129.590 140.971  0.00  0.00    +0.000 A 
ENDBRANCH   6  14
BRANCH   4  20
ATOM     20  O   UNL     1     110.279 126.840 140.399  0.00  0.00    +0.000 OA
BRANCH  20  27
ATOM     21  O   UNL     1     110.003 126.658 139.009  0.00  0.00    +0.000 OA
ATOM     22  O   UNL     1     112.331 125.898 138.647  0.00  0.00    +0.000 OA
ATOM     23  O   UNL     1     111.279 125.969 137.377  0.00  0.00    +0.000 OA
ATOM     24  C   UNL     1     111.305 126.369 139.523  0.00  0.00    +0.000 C 
ATOM     25  C   UNL     1     111.555 126.151 138.767  0.00  0.00    +0.000 C 
ATOM     26  C   UNL     1     111.030 126.187 138.133  0.00  0.00    +0.000 C 
ATOM     27  C   UNL     1     110.530 126.622 139.644  0.00  0.00    +0.000 C 
ATOM     28  C   UNL     1     110.254 126.440 138.254  0.00  0.00    +0.000 C 
ATOM     29  C   UNL     1     109.728 126.476 137.618  0.00  0.00    +0.000 C 
BRANCH  24  30
ATOM     30  O   UNL     1     111.831 126.333 140.158  0.00  0.00    +0.000 OA
BRANCH  30  35
ATOM     31  O   UNL     1     112.456 127.538 139.709  0.00  0.00    +0.000 OA
ATOM     32  O   UNL     1     112.930 126.219 141.382  0.00  0.00    +0.000 OA
ATOM     33  O   UNL     1     114.105 127.366 141.546  0.00  0.00    +0.000 OA
ATOM     34  O   UNL     1     114.180 128.628 140.485  0.00  0.00    +0.000 OA
ATOM     35  C   UNL     1     112.418 126.907 140.240  0.00  0.00    +0.000 C 
ATOM     36  C   UNL     1     112.968 126.850 140.852  0.00  0.00    +0.000 C 
ATOM     37  C   UNL     1     113.556 127.423 140.934  0.00  0.00    +0.000 C 
ATOM     38  C   UNL     1     113.592 128.054 140.403  0.00  0.00    +0.000 C 
ATOM     39  C   UNL     1     113.043 128.111 139.791  0.00  0.00    +0.000 C 
BRANCH  39  41
ATOM     40  O   UNL     1     112.501 129.329 139.275  0.00  0.00    +0.000 OA
ATOM     41  C   UNL     1     113.080 128.742 139.260  0.00  0.00    +0.000 C 
ENDBRANCH  39  41
ENDBRANCH  30  35
ENDBRANCH  24  30
ENDBRANCH  20  27
ENDBRANCH   4  20
BRANCH   8  42
ATOM     42  O   UNL     1     106.188 125.039 141.683  0.00  0.00    +0.000 OA
BRANCH  42  51
ATOM     43  O   UNL     1     105.594 124.717 140.424  0.00  0.00    +0.000 OA
ATOM     44  O   UNL     1     104.506 122.740 141.440  0.00  0.00    +0.000 OA
ATOM     45  O   UNL     1     104.275 123.078 139.842  0.00  0.00    +0.000 OA
ATOM     46  O   UNL     1     105.462 123.721 142.361  0.00  0.00    +0.000 OA
ATOM     47  C   UNL     1     104.869 123.399 141.101  0.00  0.00    +0.000 C 
ATOM     48  C   UNL     1     104.753 123.568 140.302  0.00  0.00    +0.000 C 
ATOM     49  C   UNL     1     105.347 123.890 141.561  0.00  0.00    +0.000 C 
ATOM     50  C   UNL     1     105.116 124.227 139.963  0.00  0.00    +0.000 C 
ATOM     51  C   UNL     1     105.710 124.549 141.223  0.00  0.00    +0.000 C 
BRANCH  50  53
ATOM     52  O   UNL     1     104.866 125.174 138.923  0.00  0.00    +0.000 OA
ATOM     53  C   UNL     1     105.001 124.396 139.164  0.00  0.00    +0.000 C 
ENDBRANCH  50  53
ENDBRANCH  42  51
ENDBRANCH   8  42
BRANCH  10  54
ATOM     54  C   UNL     1     106.707 126.647 141.708  0.00  0.00    +0.000 C 
BRANCH  54  55
ATOM     55  C   UNL     1     106.649 126.802 142.517  0.00  0.00    +0.000 C 
ATOM     56  C   UNL     1     106.156 127.406 142.786  0.00  0.00    +0.000 C 
ATOM     57  C   UNL     1     106.098 127.562 143.594  0.00  0.00    +0.000 C 
ATOM     58  C   UNL     1     105.722 127.855 142.246  0.00  0.00    +0.000 C 
ENDBRANCH  54  55
ENDBRANCH  10  54
TORSDOF 11
ENDMDL
