MODEL 1
REMARK VINA RESULT:      -9.0      0.000      0.000
REMARK  Name = 44259118
REMARK  8 active torsions:
REMARK  status: ('A' for Active; 'I' for Inactive)
REMARK    1  A    between atoms: O_2  and  C_20
REMARK    2  A    between atoms: O_2  and  C_22
REMARK    3  A    between atoms: O_6  and  C_21
REMARK    4  A    between atoms: O_6  and  C_26
REMARK    5  A    between atoms: C_18  and  C_21
REMARK    6  A    between atoms: C_23  and  C_28
REMARK    7  A    between atoms: C_26  and  C_30
REMARK    8  A    between atoms: C_30  and  C_39
REMARK                            x       y       z     vdW  Elec       q    Type
REMARK                         _______ _______ _______ _____ _____    ______ ____
ROOT
ATOM      1  O   UNL     1     111.051 125.365 136.479  0.00  0.00    +0.000 OA
ATOM      2  O   UNL     1     113.271 126.405 136.137  0.00  0.00    +0.000 OA
ATOM      3  O   UNL     1     113.934 125.170 136.477  0.00  0.00    +0.000 OA
ATOM      4  O   UNL     1     112.320 122.838 137.176  0.00  0.00    +0.000 OA
ATOM      5  C   UNL     1     111.845 126.503 136.137  0.00  0.00    +0.000 A 
ATOM      6  C   UNL     1     111.105 126.156 136.251  0.00  0.00    +0.000 A 
ATOM      7  C   UNL     1     112.531 126.058 136.251  0.00  0.00    +0.000 A 
ATOM      8  C   UNL     1     112.476 125.267 136.478  0.00  0.00    +0.000 A 
ATOM      9  C   UNL     1     111.737 124.921 136.592  0.00  0.00    +0.000 A 
ATOM     10  C   UNL     1     113.198 124.815 136.593  0.00  0.00    +0.000 A 
ATOM     11  C   UNL     1     111.667 124.098 136.829  0.00  0.00    +0.000 A 
ATOM     12  C   UNL     1     113.148 123.990 136.830  0.00  0.00    +0.000 A 
ATOM     13  C   UNL     1     112.377 123.629 136.949  0.00  0.00    +0.000 A 
ENDROOT
BRANCH   6  16
ATOM     14  O   UNL     1     108.858 127.557 137.327  0.00  0.00    +0.000 OA
ATOM     15  O   UNL     1     108.363 127.937 135.800  0.00  0.00    +0.000 OA
ATOM     16  C   UNL     1     110.420 126.601 136.138  0.00  0.00    +0.000 A 
ATOM     17  C   UNL     1     109.981 126.856 136.789  0.00  0.00    +0.000 A 
ATOM     18  C   UNL     1     110.173 126.791 135.374  0.00  0.00    +0.000 A 
ATOM     19  C   UNL     1     109.296 127.301 136.676  0.00  0.00    +0.000 A 
ATOM     20  C   UNL     1     109.487 127.237 135.262  0.00  0.00    +0.000 A 
ATOM     21  C   UNL     1     109.049 127.492 135.912  0.00  0.00    +0.000 A 
ENDBRANCH   6  16
BRANCH   5  22
ATOM     22  O   UNL     1     111.900 127.295 135.910  0.00  0.00    +0.000 OA
BRANCH  22  31
ATOM     23  O   UNL     1     112.317 127.753 137.198  0.00  0.00    +0.000 OA
ATOM     24  O   UNL     1     113.583 129.435 137.775  0.00  0.00    +0.000 OA
ATOM     25  O   UNL     1     113.589 129.589 136.132  0.00  0.00    +0.000 OA
ATOM     26  O   UNL     1     112.748 128.519 135.200  0.00  0.00    +0.000 OA
ATOM     27  C   UNL     1     113.162 128.899 137.308  0.00  0.00    +0.000 C 
ATOM     28  C   UNL     1     113.165 128.977 136.487  0.00  0.00    +0.000 C 
ATOM     29  C   UNL     1     112.738 128.287 137.664  0.00  0.00    +0.000 C 
ATOM     30  C   UNL     1     112.744 128.441 136.021  0.00  0.00    +0.000 C 
ATOM     31  C   UNL     1     112.320 127.829 136.376  0.00  0.00    +0.000 C 
BRANCH  29  32
ATOM     32  C   UNL     1     112.735 128.211 138.485  0.00  0.00    +0.000 C 
BRANCH  32  33
ATOM     33  O   UNL     1     112.161 127.749 138.855  0.00  0.00    +0.000 OA
BRANCH  33  35
ATOM     34  O   UNL     1     112.132 128.175 140.219  0.00  0.00    +0.000 OA
ATOM     35  C   UNL     1     112.225 127.576 139.659  0.00  0.00    +0.000 C 
BRANCH  35  36
ATOM     36  C   UNL     1     112.380 126.804 139.904  0.00  0.00    +0.000 C 
BRANCH  36  39
ATOM     37  O   UNL     1     111.212 125.981 139.917  0.00  0.00    +0.000 OA
ATOM     38  O   UNL     1     111.836 126.356 141.146  0.00  0.00    +0.000 OA
ATOM     39  C   UNL     1     111.810 126.381 140.322  0.00  0.00    +0.000 C 
ENDBRANCH  36  39
ENDBRANCH  35  36
ENDBRANCH  33  35
ENDBRANCH  32  33
ENDBRANCH  29  32
ENDBRANCH  22  31
ENDBRANCH   5  22
TORSDOF 8
ENDMDL
MODEL 2
REMARK VINA RESULT:      -9.0      1.024      2.949
REMARK  Name = 44259118
REMARK  8 active torsions:
REMARK  status: ('A' for Active; 'I' for Inactive)
REMARK    1  A    between atoms: O_2  and  C_20
REMARK    2  A    between atoms: O_2  and  C_22
REMARK    3  A    between atoms: O_6  and  C_21
REMARK    4  A    between atoms: O_6  and  C_26
REMARK    5  A    between atoms: C_18  and  C_21
REMARK    6  A    between atoms: C_23  and  C_28
REMARK    7  A    between atoms: C_26  and  C_30
REMARK    8  A    between atoms: C_30  and  C_39
REMARK                            x       y       z     vdW  Elec       q    Type
REMARK                         _______ _______ _______ _____ _____    ______ ____
ROOT
ATOM      1  O   UNL     1     113.531 126.769 136.845  0.00  0.00    +0.000 OA
ATOM      2  O   UNL     1     111.605 125.446 136.026  0.00  0.00    +0.000 OA
ATOM      3  O   UNL     1     112.292 124.212 136.318  0.00  0.00    +0.000 OA
ATOM      4  O   UNL     1     114.978 124.319 137.461  0.00  0.00    +0.000 OA
ATOM      5  C   UNL     1     112.216 126.711 136.285  0.00  0.00    +0.000 A 
ATOM      6  C   UNL     1     112.858 127.153 136.559  0.00  0.00    +0.000 A 
ATOM      7  C   UNL     1     112.247 125.887 136.299  0.00  0.00    +0.000 A 
ATOM      8  C   UNL     1     112.920 125.504 136.585  0.00  0.00    +0.000 A 
ATOM      9  C   UNL     1     113.561 125.945 136.858  0.00  0.00    +0.000 A 
ATOM     10  C   UNL     1     112.939 124.645 136.593  0.00  0.00    +0.000 A 
ATOM     11  C   UNL     1     114.266 125.557 137.158  0.00  0.00    +0.000 A 
ATOM     12  C   UNL     1     113.636 124.239 136.890  0.00  0.00    +0.000 A 
ATOM     13  C   UNL     1     114.305 124.699 137.174  0.00  0.00    +0.000 A 
ENDROOT
BRANCH   6  16
ATOM     14  O   UNL     1     112.591 129.641 137.939  0.00  0.00    +0.000 OA
ATOM     15  O   UNL     1     112.733 130.450 136.508  0.00  0.00    +0.000 OA
ATOM     16  C   UNL     1     112.827 127.977 136.545  0.00  0.00    +0.000 A 
ATOM     17  C   UNL     1     112.725 128.397 137.249  0.00  0.00    +0.000 A 
ATOM     18  C   UNL     1     112.898 128.381 135.830  0.00  0.00    +0.000 A 
ATOM     19  C   UNL     1     112.693 129.221 137.235  0.00  0.00    +0.000 A 
ATOM     20  C   UNL     1     112.867 129.206 135.818  0.00  0.00    +0.000 A 
ATOM     21  C   UNL     1     112.764 129.626 136.520  0.00  0.00    +0.000 A 
ENDBRANCH   6  16
BRANCH   5  22
ATOM     22  O   UNL     1     111.544 127.095 135.999  0.00  0.00    +0.000 OA
BRANCH  22  31
ATOM     23  O   UNL     1     110.771 126.766 137.155  0.00  0.00    +0.000 OA
ATOM     24  O   UNL     1     108.613 126.568 137.422  0.00  0.00    +0.000 OA
ATOM     25  O   UNL     1     108.695 126.963 135.822  0.00  0.00    +0.000 OA
ATOM     26  O   UNL     1     110.160 127.226 135.111  0.00  0.00    +0.000 OA
ATOM     27  C   UNL     1     109.347 126.700 137.066  0.00  0.00    +0.000 C 
ATOM     28  C   UNL     1     109.387 126.897 136.266  0.00  0.00    +0.000 C 
ATOM     29  C   UNL     1     110.039 126.634 137.510  0.00  0.00    +0.000 C 
ATOM     30  C   UNL     1     110.120 127.029 135.910  0.00  0.00    +0.000 C 
ATOM     31  C   UNL     1     110.812 126.963 136.355  0.00  0.00    +0.000 C 
BRANCH  29  32
ATOM     32  C   UNL     1     109.997 126.436 138.311  0.00  0.00    +0.000 C 
BRANCH  32  33
ATOM     33  O   UNL     1     110.539 126.756 138.843  0.00  0.00    +0.000 OA
BRANCH  33  35
ATOM     34  O   UNL     1     110.459 125.602 139.682  0.00  0.00    +0.000 OA
ATOM     35  C   UNL     1     110.662 126.394 139.575  0.00  0.00    +0.000 C 
BRANCH  35  36
ATOM     36  C   UNL     1     110.988 126.823 140.198  0.00  0.00    +0.000 C 
BRANCH  36  39
ATOM     37  O   UNL     1     112.401 126.620 140.269  0.00  0.00    +0.000 OA
ATOM     38  O   UNL     1     111.558 126.158 141.326  0.00  0.00    +0.000 OA
ATOM     39  C   UNL     1     111.648 126.534 140.598  0.00  0.00    +0.000 C 
ENDBRANCH  36  39
ENDBRANCH  35  36
ENDBRANCH  33  35
ENDBRANCH  32  33
ENDBRANCH  29  32
ENDBRANCH  22  31
ENDBRANCH   5  22
TORSDOF 8
ENDMDL
MODEL 3
REMARK VINA RESULT:      -8.9      1.456      4.251
REMARK  Name = 44259118
REMARK  8 active torsions:
REMARK  status: ('A' for Active; 'I' for Inactive)
REMARK    1  A    between atoms: O_2  and  C_20
REMARK    2  A    between atoms: O_2  and  C_22
REMARK    3  A    between atoms: O_6  and  C_21
REMARK    4  A    between atoms: O_6  and  C_26
REMARK    5  A    between atoms: C_18  and  C_21
REMARK    6  A    between atoms: C_23  and  C_28
REMARK    7  A    between atoms: C_26  and  C_30
REMARK    8  A    between atoms: C_30  and  C_39
REMARK                            x       y       z     vdW  Elec       q    Type
REMARK                         _______ _______ _______ _____ _____    ______ ____
ROOT
ATOM      1  O   UNL     1     113.827 126.208 138.315  0.00  0.00    +0.000 OA
ATOM      2  O   UNL     1     111.724 124.996 137.825  0.00  0.00    +0.000 OA
ATOM      3  O   UNL     1     112.351 124.292 136.733  0.00  0.00    +0.000 OA
ATOM      4  O   UNL     1     115.158 124.823 136.126  0.00  0.00    +0.000 OA
ATOM      5  C   UNL     1     112.452 125.944 138.608  0.00  0.00    +0.000 A 
ATOM      6  C   UNL     1     113.154 126.348 138.771  0.00  0.00    +0.000 A 
ATOM      7  C   UNL     1     112.425 125.400 137.988  0.00  0.00    +0.000 A 
ATOM      8  C   UNL     1     113.098 125.260 137.532  0.00  0.00    +0.000 A 
ATOM      9  C   UNL     1     113.798 125.663 137.695  0.00  0.00    +0.000 A 
ATOM     10  C   UNL     1     113.056 124.691 136.889  0.00  0.00    +0.000 A 
ATOM     11  C   UNL     1     114.505 125.526 137.227  0.00  0.00    +0.000 A 
ATOM     12  C   UNL     1     113.753 124.540 136.410  0.00  0.00    +0.000 A 
ATOM     13  C   UNL     1     114.483 124.961 136.580  0.00  0.00    +0.000 A 
ENDROOT
BRANCH   6  16
ATOM     14  O   UNL     1     113.247 129.054 139.686  0.00  0.00    +0.000 OA
ATOM     15  O   UNL     1     113.263 128.525 141.249  0.00  0.00    +0.000 OA
ATOM     16  C   UNL     1     113.181 126.891 139.391  0.00  0.00    +0.000 A 
ATOM     17  C   UNL     1     113.200 127.701 139.229  0.00  0.00    +0.000 A 
ATOM     18  C   UNL     1     113.189 126.627 140.172  0.00  0.00    +0.000 A 
ATOM     19  C   UNL     1     113.228 128.245 139.848  0.00  0.00    +0.000 A 
ATOM     20  C   UNL     1     113.216 127.172 140.791  0.00  0.00    +0.000 A 
ATOM     21  C   UNL     1     113.236 127.980 140.630  0.00  0.00    +0.000 A 
ENDBRANCH   6  16
BRANCH   5  22
ATOM     22  O   UNL     1     111.780 126.084 139.064  0.00  0.00    +0.000 OA
BRANCH  22  31
ATOM     23  O   UNL     1     111.121 126.848 138.053  0.00  0.00    +0.000 OA
ATOM     24  O   UNL     1     108.998 127.125 137.626  0.00  0.00    +0.000 OA
ATOM     25  O   UNL     1     108.925 126.117 138.930  0.00  0.00    +0.000 OA
ATOM     26  O   UNL     1     110.316 125.596 139.649  0.00  0.00    +0.000 OA
ATOM     27  C   UNL     1     109.694 126.865 137.986  0.00  0.00    +0.000 C 
ATOM     28  C   UNL     1     109.657 126.361 138.638  0.00  0.00    +0.000 C 
ATOM     29  C   UNL     1     110.426 127.109 137.693  0.00  0.00    +0.000 C 
ATOM     30  C   UNL     1     110.353 126.100 138.997  0.00  0.00    +0.000 C 
ATOM     31  C   UNL     1     111.085 126.344 138.705  0.00  0.00    +0.000 C 
BRANCH  29  32
ATOM     32  C   UNL     1     110.462 127.613 137.041  0.00  0.00    +0.000 C 
BRANCH  32  33
ATOM     33  O   UNL     1     111.160 128.015 136.868  0.00  0.00    +0.000 OA
BRANCH  33  35
ATOM     34  O   UNL     1     110.780 129.102 136.022  0.00  0.00    +0.000 OA
ATOM     35  C   UNL     1     111.234 128.426 136.156  0.00  0.00    +0.000 C 
BRANCH  35  36
ATOM     36  C   UNL     1     111.762 128.164 135.580  0.00  0.00    +0.000 C 
BRANCH  36  39
ATOM     37  O   UNL     1     112.365 129.151 134.742  0.00  0.00    +0.000 OA
ATOM     38  O   UNL     1     113.115 128.563 135.806  0.00  0.00    +0.000 OA
ATOM     39  C   UNL     1     112.414 128.626 135.376  0.00  0.00    +0.000 C 
ENDBRANCH  36  39
ENDBRANCH  35  36
ENDBRANCH  33  35
ENDBRANCH  32  33
ENDBRANCH  29  32
ENDBRANCH  22  31
ENDBRANCH   5  22
TORSDOF 8
ENDMDL
MODEL 4
REMARK VINA RESULT:      -8.9      1.281      4.560
REMARK  Name = 44259118
REMARK  8 active torsions:
REMARK  status: ('A' for Active; 'I' for Inactive)
REMARK    1  A    between atoms: O_2  and  C_20
REMARK    2  A    between atoms: O_2  and  C_22
REMARK    3  A    between atoms: O_6  and  C_21
REMARK    4  A    between atoms: O_6  and  C_26
REMARK    5  A    between atoms: C_18  and  C_21
REMARK    6  A    between atoms: C_23  and  C_28
REMARK    7  A    between atoms: C_26  and  C_30
REMARK    8  A    between atoms: C_30  and  C_39
REMARK                            x       y       z     vdW  Elec       q    Type
REMARK                         _______ _______ _______ _____ _____    ______ ____
ROOT
ATOM      1  O   UNL     1     112.076 128.307 138.241  0.00  0.00    +0.000 OA
ATOM      2  O   UNL     1     113.874 127.360 136.827  0.00  0.00    +0.000 OA
ATOM      3  O   UNL     1     113.674 128.389 135.835  0.00  0.00    +0.000 OA
ATOM      4  O   UNL     1     111.616 130.413 136.282  0.00  0.00    +0.000 OA
ATOM      5  C   UNL     1     113.084 127.319 138.017  0.00  0.00    +0.000 A 
ATOM      6  C   UNL     1     112.484 127.635 138.489  0.00  0.00    +0.000 A 
ATOM      7  C   UNL     1     113.274 127.676 137.299  0.00  0.00    +0.000 A 
ATOM      8  C   UNL     1     112.865 128.349 137.051  0.00  0.00    +0.000 A 
ATOM      9  C   UNL     1     112.267 128.664 137.522  0.00  0.00    +0.000 A 
ATOM     10  C   UNL     1     113.073 128.711 136.300  0.00  0.00    +0.000 A 
ATOM     11  C   UNL     1     111.834 129.364 137.275  0.00  0.00    +0.000 A 
ATOM     12  C   UNL     1     112.651 129.412 136.036  0.00  0.00    +0.000 A 
ATOM     13  C   UNL     1     112.027 129.740 136.528  0.00  0.00    +0.000 A 
ENDROOT
BRANCH   6  16
ATOM     14  O   UNL     1     110.723 126.025 140.063  0.00  0.00    +0.000 OA
ATOM     15  O   UNL     1     111.722 126.204 141.364  0.00  0.00    +0.000 OA
ATOM     16  C   UNL     1     112.294 127.277 139.208  0.00  0.00    +0.000 A 
ATOM     17  C   UNL     1     111.604 126.830 139.276  0.00  0.00    +0.000 A 
ATOM     18  C   UNL     1     112.794 127.367 139.858  0.00  0.00    +0.000 A 
ATOM     19  C   UNL     1     111.414 126.473 139.995  0.00  0.00    +0.000 A 
ATOM     20  C   UNL     1     112.603 127.009 140.577  0.00  0.00    +0.000 A 
ATOM     21  C   UNL     1     111.913 126.562 140.645  0.00  0.00    +0.000 A 
ENDBRANCH   6  16
BRANCH   5  22
ATOM     22  O   UNL     1     113.493 126.646 138.265  0.00  0.00    +0.000 OA
BRANCH  22  31
ATOM     23  O   UNL     1     112.797 125.771 137.376  0.00  0.00    +0.000 OA
ATOM     24  O   UNL     1     113.420 123.903 136.433  0.00  0.00    +0.000 OA
ATOM     25  O   UNL     1     114.774 124.283 137.296  0.00  0.00    +0.000 OA
ATOM     26  O   UNL     1     114.810 125.655 138.212  0.00  0.00    +0.000 OA
ATOM     27  C   UNL     1     113.438 124.589 136.891  0.00  0.00    +0.000 C 
ATOM     28  C   UNL     1     114.115 124.779 137.322  0.00  0.00    +0.000 C 
ATOM     29  C   UNL     1     112.779 125.085 136.918  0.00  0.00    +0.000 C 
ATOM     30  C   UNL     1     114.133 125.465 137.781  0.00  0.00    +0.000 C 
ATOM     31  C   UNL     1     113.474 125.961 137.807  0.00  0.00    +0.000 C 
BRANCH  29  32
ATOM     32  C   UNL     1     112.102 124.895 136.486  0.00  0.00    +0.000 C 
BRANCH  32  33
ATOM     33  O   UNL     1     111.777 125.444 135.964  0.00  0.00    +0.000 OA
BRANCH  33  35
ATOM     34  O   UNL     1     110.441 125.009 136.223  0.00  0.00    +0.000 OA
ATOM     35  C   UNL     1     110.990 125.372 135.726  0.00  0.00    +0.000 C 
BRANCH  35  36
ATOM     36  C   UNL     1     110.753 125.663 134.992  0.00  0.00    +0.000 C 
BRANCH  36  39
ATOM     37  O   UNL     1     109.358 125.802 134.713  0.00  0.00    +0.000 OA
ATOM     38  O   UNL     1     110.127 126.943 135.098  0.00  0.00    +0.000 OA
ATOM     39  C   UNL     1     110.079 126.136 134.934  0.00  0.00    +0.000 C 
ENDBRANCH  36  39
ENDBRANCH  35  36
ENDBRANCH  33  35
ENDBRANCH  32  33
ENDBRANCH  29  32
ENDBRANCH  22  31
ENDBRANCH   5  22
TORSDOF 8
ENDMDL
MODEL 5
REMARK VINA RESULT:      -8.8      1.519      3.610
REMARK  Name = 44259118
REMARK  8 active torsions:
REMARK  status: ('A' for Active; 'I' for Inactive)
REMARK    1  A    between atoms: O_2  and  C_20
REMARK    2  A    between atoms: O_2  and  C_22
REMARK    3  A    between atoms: O_6  and  C_21
REMARK    4  A    between atoms: O_6  and  C_26
REMARK    5  A    between atoms: C_18  and  C_21
REMARK    6  A    between atoms: C_23  and  C_28
REMARK    7  A    between atoms: C_26  and  C_30
REMARK    8  A    between atoms: C_30  and  C_39
REMARK                            x       y       z     vdW  Elec       q    Type
REMARK                         _______ _______ _______ _____ _____    ______ ____
ROOT
ATOM      1  O   UNL     1     112.600 126.615 136.185  0.00  0.00    +0.000 OA
ATOM      2  O   UNL     1     112.399 126.916 138.634  0.00  0.00    +0.000 OA
ATOM      3  O   UNL     1     111.857 125.587 138.782  0.00  0.00    +0.000 OA
ATOM      4  O   UNL     1     111.511 123.923 136.407  0.00  0.00    +0.000 OA
ATOM      5  C   UNL     1     112.767 127.425 137.351  0.00  0.00    +0.000 A 
ATOM      6  C   UNL     1     112.834 127.325 136.534  0.00  0.00    +0.000 A 
ATOM      7  C   UNL     1     112.466 126.815 137.817  0.00  0.00    +0.000 A 
ATOM      8  C   UNL     1     112.232 126.105 137.469  0.00  0.00    +0.000 A 
ATOM      9  C   UNL     1     112.299 126.005 136.653  0.00  0.00    +0.000 A 
ATOM     10  C   UNL     1     111.920 125.478 137.966  0.00  0.00    +0.000 A 
ATOM     11  C   UNL     1     112.058 125.271 136.278  0.00  0.00    +0.000 A 
ATOM     12  C   UNL     1     111.674 124.736 137.609  0.00  0.00    +0.000 A 
ATOM     13  C   UNL     1     111.744 124.632 136.758  0.00  0.00    +0.000 A 
ENDROOT
BRANCH   6  16
ATOM     14  O   UNL     1     112.420 129.433 134.650  0.00  0.00    +0.000 OA
ATOM     15  O   UNL     1     114.036 129.765 134.666  0.00  0.00    +0.000 OA
ATOM     16  C   UNL     1     113.135 127.934 136.067  0.00  0.00    +0.000 A 
ATOM     17  C   UNL     1     112.627 128.379 135.592  0.00  0.00    +0.000 A 
ATOM     18  C   UNL     1     113.943 128.100 136.075  0.00  0.00    +0.000 A 
ATOM     19  C   UNL     1     112.928 128.989 135.125  0.00  0.00    +0.000 A 
ATOM     20  C   UNL     1     114.243 128.711 135.608  0.00  0.00    +0.000 A 
ATOM     21  C   UNL     1     113.736 129.155 135.133  0.00  0.00    +0.000 A 
ENDBRANCH   6  16
BRANCH   5  22
ATOM     22  O   UNL     1     113.001 128.135 137.699  0.00  0.00    +0.000 OA
BRANCH  22  31
ATOM     23  O   UNL     1     111.674 128.624 137.903  0.00  0.00    +0.000 OA
ATOM     24  O   UNL     1     110.843 129.893 139.473  0.00  0.00    +0.000 OA
ATOM     25  O   UNL     1     112.419 129.794 139.953  0.00  0.00    +0.000 OA
ATOM     26  O   UNL     1     113.498 128.915 139.066  0.00  0.00    +0.000 OA
ATOM     27  C   UNL     1     111.383 129.453 139.029  0.00  0.00    +0.000 C 
ATOM     28  C   UNL     1     112.170 129.404 139.269  0.00  0.00    +0.000 C 
ATOM     29  C   UNL     1     111.135 129.063 138.345  0.00  0.00    +0.000 C 
ATOM     30  C   UNL     1     112.710 128.964 138.826  0.00  0.00    +0.000 C 
ATOM     31  C   UNL     1     112.462 128.574 138.142  0.00  0.00    +0.000 C 
BRANCH  29  32
ATOM     32  C   UNL     1     110.347 129.113 138.106  0.00  0.00    +0.000 C 
BRANCH  32  33
ATOM     33  O   UNL     1     110.163 129.338 137.334  0.00  0.00    +0.000 OA
BRANCH  33  35
ATOM     34  O   UNL     1     108.969 128.558 137.250  0.00  0.00    +0.000 OA
ATOM     35  C   UNL     1     109.398 129.232 137.044  0.00  0.00    +0.000 C 
BRANCH  35  36
ATOM     36  C   UNL     1     109.062 129.798 136.548  0.00  0.00    +0.000 C 
BRANCH  36  39
ATOM     37  O   UNL     1     108.982 129.404 135.177  0.00  0.00    +0.000 OA
ATOM     38  O   UNL     1     107.795 129.487 135.968  0.00  0.00    +0.000 OA
ATOM     39  C   UNL     1     108.613 129.563 135.898  0.00  0.00    +0.000 C 
ENDBRANCH  36  39
ENDBRANCH  35  36
ENDBRANCH  33  35
ENDBRANCH  32  33
ENDBRANCH  29  32
ENDBRANCH  22  31
ENDBRANCH   5  22
TORSDOF 8
ENDMDL
MODEL 6
REMARK VINA RESULT:      -8.7      1.426      4.363
REMARK  Name = 44259118
REMARK  8 active torsions:
REMARK  status: ('A' for Active; 'I' for Inactive)
REMARK    1  A    between atoms: O_2  and  C_20
REMARK    2  A    between atoms: O_2  and  C_22
REMARK    3  A    between atoms: O_6  and  C_21
REMARK    4  A    between atoms: O_6  and  C_26
REMARK    5  A    between atoms: C_18  and  C_21
REMARK    6  A    between atoms: C_23  and  C_28
REMARK    7  A    between atoms: C_26  and  C_30
REMARK    8  A    between atoms: C_30  and  C_39
REMARK                            x       y       z     vdW  Elec       q    Type
REMARK                         _______ _______ _______ _____ _____    ______ ____
ROOT
ATOM      1  O   UNL     1     112.885 126.055 138.616  0.00  0.00    +0.000 OA
ATOM      2  O   UNL     1     110.572 125.687 137.813  0.00  0.00    +0.000 OA
ATOM      3  O   UNL     1     110.032 126.147 139.070  0.00  0.00    +0.000 OA
ATOM      4  O   UNL     1     111.867 126.995 141.178  0.00  0.00    +0.000 OA
ATOM      5  C   UNL     1     111.982 125.641 137.587  0.00  0.00    +0.000 A 
ATOM      6  C   UNL     1     112.753 125.764 137.855  0.00  0.00    +0.000 A 
ATOM      7  C   UNL     1     111.343 125.810 138.081  0.00  0.00    +0.000 A 
ATOM      8  C   UNL     1     111.474 126.101 138.842  0.00  0.00    +0.000 A 
ATOM      9  C   UNL     1     112.245 126.224 139.109  0.00  0.00    +0.000 A 
ATOM     10  C   UNL     1     110.800 126.273 139.346  0.00  0.00    +0.000 A 
ATOM     11  C   UNL     1     112.394 126.526 139.899  0.00  0.00    +0.000 A 
ATOM     12  C   UNL     1     110.930 126.576 140.139  0.00  0.00    +0.000 A 
ATOM     13  C   UNL     1     111.733 126.704 140.418  0.00  0.00    +0.000 A 
ENDROOT
BRANCH   6  16
ATOM     14  O   UNL     1     114.840 126.656 136.118  0.00  0.00    +0.000 OA
ATOM     15  O   UNL     1     115.310 125.092 135.880  0.00  0.00    +0.000 OA
ATOM     16  C   UNL     1     113.392 125.595 137.362  0.00  0.00    +0.000 A 
ATOM     17  C   UNL     1     113.797 126.210 136.986  0.00  0.00    +0.000 A 
ATOM     18  C   UNL     1     113.627 124.814 137.242  0.00  0.00    +0.000 A 
ATOM     19  C   UNL     1     114.436 126.041 136.493  0.00  0.00    +0.000 A 
ATOM     20  C   UNL     1     114.267 124.646 136.748  0.00  0.00    +0.000 A 
ATOM     21  C   UNL     1     114.671 125.259 136.374  0.00  0.00    +0.000 A 
ENDBRANCH   6  16
BRANCH   5  22
ATOM     22  O   UNL     1     111.851 125.350 136.827  0.00  0.00    +0.000 OA
BRANCH  22  31
ATOM     23  O   UNL     1     111.424 126.611 136.306  0.00  0.00    +0.000 OA
ATOM     24  O   UNL     1     110.050 127.095 134.680  0.00  0.00    +0.000 OA
ATOM     25  O   UNL     1     110.003 125.446 134.648  0.00  0.00    +0.000 OA
ATOM     26  O   UNL     1     110.903 124.574 135.721  0.00  0.00    +0.000 OA
ATOM     27  C   UNL     1     110.501 126.659 135.217  0.00  0.00    +0.000 C 
ATOM     28  C   UNL     1     110.477 125.834 135.201  0.00  0.00    +0.000 C 
ATOM     29  C   UNL     1     110.975 127.047 135.770  0.00  0.00    +0.000 C 
ATOM     30  C   UNL     1     110.927 125.398 135.738  0.00  0.00    +0.000 C 
ATOM     31  C   UNL     1     111.401 125.786 136.291  0.00  0.00    +0.000 C 
BRANCH  29  32
ATOM     32  C   UNL     1     110.998 127.872 135.786  0.00  0.00    +0.000 C 
BRANCH  32  33
ATOM     33  O   UNL     1     111.715 128.263 135.899  0.00  0.00    +0.000 OA
BRANCH  33  35
ATOM     34  O   UNL     1     111.129 129.404 136.528  0.00  0.00    +0.000 OA
ATOM     35  C   UNL     1     111.723 129.071 136.062  0.00  0.00    +0.000 C 
BRANCH  35  36
ATOM     36  C   UNL     1     112.325 129.547 135.760  0.00  0.00    +0.000 C 
BRANCH  36  39
ATOM     37  O   UNL     1     113.514 129.704 136.538  0.00  0.00    +0.000 OA
ATOM     38  O   UNL     1     112.532 130.742 136.515  0.00  0.00    +0.000 OA
ATOM     39  C   UNL     1     112.790 129.997 136.271  0.00  0.00    +0.000 C 
ENDBRANCH  36  39
ENDBRANCH  35  36
ENDBRANCH  33  35
ENDBRANCH  32  33
ENDBRANCH  29  32
ENDBRANCH  22  31
ENDBRANCH   5  22
TORSDOF 8
ENDMDL
MODEL 7
REMARK VINA RESULT:      -8.6      1.177      3.723
REMARK  Name = 44259118
REMARK  8 active torsions:
REMARK  status: ('A' for Active; 'I' for Inactive)
REMARK    1  A    between atoms: O_2  and  C_20
REMARK    2  A    between atoms: O_2  and  C_22
REMARK    3  A    between atoms: O_6  and  C_21
REMARK    4  A    between atoms: O_6  and  C_26
REMARK    5  A    between atoms: C_18  and  C_21
REMARK    6  A    between atoms: C_23  and  C_28
REMARK    7  A    between atoms: C_26  and  C_30
REMARK    8  A    between atoms: C_30  and  C_39
REMARK                            x       y       z     vdW  Elec       q    Type
REMARK                         _______ _______ _______ _____ _____    ______ ____
ROOT
ATOM      1  O   UNL     1     112.021 126.037 138.858  0.00  0.00    +0.000 OA
ATOM      2  O   UNL     1     113.454 127.974 138.290  0.00  0.00    +0.000 OA
ATOM      3  O   UNL     1     113.260 128.539 139.604  0.00  0.00    +0.000 OA
ATOM      4  O   UNL     1     111.584 127.117 141.527  0.00  0.00    +0.000 OA
ATOM      5  C   UNL     1     112.842 126.737 137.920  0.00  0.00    +0.000 A 
ATOM      6  C   UNL     1     112.364 126.091 138.110  0.00  0.00    +0.000 A 
ATOM      7  C   UNL     1     112.976 127.328 138.480  0.00  0.00    +0.000 A 
ATOM      8  C   UNL     1     112.633 127.274 139.228  0.00  0.00    +0.000 A 
ATOM      9  C   UNL     1     112.156 126.629 139.417  0.00  0.00    +0.000 A 
ATOM     10  C   UNL     1     112.781 127.897 139.802  0.00  0.00    +0.000 A 
ATOM     11  C   UNL     1     111.793 126.561 140.193  0.00  0.00    +0.000 A 
ATOM     12  C   UNL     1     112.427 127.847 140.583  0.00  0.00    +0.000 A 
ATOM     13  C   UNL     1     111.928 127.174 140.780  0.00  0.00    +0.000 A 
ENDROOT
BRANCH   6  16
ATOM     14  O   UNL     1     110.666 124.864 136.165  0.00  0.00    +0.000 OA
ATOM     15  O   UNL     1     111.825 123.727 135.871  0.00  0.00    +0.000 OA
ATOM     16  C   UNL     1     112.230 125.499 137.550  0.00  0.00    +0.000 A 
ATOM     17  C   UNL     1     111.515 125.477 137.138  0.00  0.00    +0.000 A 
ATOM     18  C   UNL     1     112.809 124.931 137.403  0.00  0.00    +0.000 A 
ATOM     19  C   UNL     1     111.381 124.886 136.578  0.00  0.00    +0.000 A 
ATOM     20  C   UNL     1     112.674 124.340 136.843  0.00  0.00    +0.000 A 
ATOM     21  C   UNL     1     111.960 124.317 136.431  0.00  0.00    +0.000 A 
ENDBRANCH   6  16
BRANCH   5  22
ATOM     22  O   UNL     1     113.185 126.790 137.172  0.00  0.00    +0.000 OA
BRANCH  22  31
ATOM     23  O   UNL     1     112.295 127.801 136.695  0.00  0.00    +0.000 OA
ATOM     24  O   UNL     1     112.611 129.432 135.280  0.00  0.00    +0.000 OA
ATOM     25  O   UNL     1     114.105 128.732 135.287  0.00  0.00    +0.000 OA
ATOM     26  O   UNL     1     114.392 127.411 136.233  0.00  0.00    +0.000 OA
ATOM     27  C   UNL     1     112.754 128.771 135.753  0.00  0.00    +0.000 C 
ATOM     28  C   UNL     1     113.501 128.422 135.756  0.00  0.00    +0.000 C 
ATOM     29  C   UNL     1     112.151 128.461 136.223  0.00  0.00    +0.000 C 
ATOM     30  C   UNL     1     113.645 127.761 136.230  0.00  0.00    +0.000 C 
ATOM     31  C   UNL     1     113.042 127.450 136.699  0.00  0.00    +0.000 C 
BRANCH  29  32
ATOM     32  C   UNL     1     111.404 128.812 136.219  0.00  0.00    +0.000 C 
BRANCH  32  33
ATOM     33  O   UNL     1     110.731 128.350 136.104  0.00  0.00    +0.000 OA
BRANCH  33  35
ATOM     34  O   UNL     1     109.813 129.182 136.815  0.00  0.00    +0.000 OA
ATOM     35  C   UNL     1     109.981 128.686 136.178  0.00  0.00    +0.000 C 
BRANCH  35  36
ATOM     36  C   UNL     1     109.400 128.526 135.615  0.00  0.00    +0.000 C 
BRANCH  36  39
ATOM     37  O   UNL     1     108.473 127.564 136.122  0.00  0.00    +0.000 OA
ATOM     38  O   UNL     1     108.036 128.892 135.829  0.00  0.00    +0.000 OA
ATOM     39  C   UNL     1     108.637 128.327 135.856  0.00  0.00    +0.000 C 
ENDBRANCH  36  39
ENDBRANCH  35  36
ENDBRANCH  33  35
ENDBRANCH  32  33
ENDBRANCH  29  32
ENDBRANCH  22  31
ENDBRANCH   5  22
TORSDOF 8
ENDMDL
MODEL 8
REMARK VINA RESULT:      -8.6      1.506      3.335
REMARK  Name = 44259118
REMARK  8 active torsions:
REMARK  status: ('A' for Active; 'I' for Inactive)
REMARK    1  A    between atoms: O_2  and  C_20
REMARK    2  A    between atoms: O_2  and  C_22
REMARK    3  A    between atoms: O_6  and  C_21
REMARK    4  A    between atoms: O_6  and  C_26
REMARK    5  A    between atoms: C_18  and  C_21
REMARK    6  A    between atoms: C_23  and  C_28
REMARK    7  A    between atoms: C_26  and  C_30
REMARK    8  A    between atoms: C_30  and  C_39
REMARK                            x       y       z     vdW  Elec       q    Type
REMARK                         _______ _______ _______ _____ _____    ______ ____
ROOT
ATOM      1  O   UNL     1     111.782 128.902 135.604  0.00  0.00    +0.000 OA
ATOM      2  O   UNL     1     112.823 126.847 136.512  0.00  0.00    +0.000 OA
ATOM      3  O   UNL     1     114.143 127.356 136.229  0.00  0.00    +0.000 OA
ATOM      4  O   UNL     1     114.415 129.994 135.006  0.00  0.00    +0.000 OA
ATOM      5  C   UNL     1     111.655 127.610 136.203  0.00  0.00    +0.000 A 
ATOM      6  C   UNL     1     111.308 128.295 135.901  0.00  0.00    +0.000 A 
ATOM      7  C   UNL     1     112.476 127.532 136.209  0.00  0.00    +0.000 A 
ATOM      8  C   UNL     1     112.950 128.139 135.913  0.00  0.00    +0.000 A 
ATOM      9  C   UNL     1     112.604 128.823 135.611  0.00  0.00    +0.000 A 
ATOM     10  C   UNL     1     113.805 128.045 135.925  0.00  0.00    +0.000 A 
ATOM     11  C   UNL     1     113.087 129.461 135.299  0.00  0.00    +0.000 A 
ATOM     12  C   UNL     1     114.304 128.672 135.618  0.00  0.00    +0.000 A 
ATOM     13  C   UNL     1     113.943 129.386 135.303  0.00  0.00    +0.000 A 
ENDROOT
BRANCH   6  16
ATOM     14  O   UNL     1     108.923 129.440 136.984  0.00  0.00    +0.000 OA
ATOM     15  O   UNL     1     108.023 128.608 135.880  0.00  0.00    +0.000 OA
ATOM     16  C   UNL     1     110.487 128.373 135.895  0.00  0.00    +0.000 A 
ATOM     17  C   UNL     1     110.116 128.868 136.442  0.00  0.00    +0.000 A 
ATOM     18  C   UNL     1     110.036 127.957 135.343  0.00  0.00    +0.000 A 
ATOM     19  C   UNL     1     109.294 128.945 136.436  0.00  0.00    +0.000 A 
ATOM     20  C   UNL     1     109.215 128.036 135.338  0.00  0.00    +0.000 A 
ATOM     21  C   UNL     1     108.844 128.529 135.884  0.00  0.00    +0.000 A 
ENDBRANCH   6  16
BRANCH   5  22
ATOM     22  O   UNL     1     111.180 127.003 136.500  0.00  0.00    +0.000 OA
BRANCH  22  31
ATOM     23  O   UNL     1     111.483 127.291 137.866  0.00  0.00    +0.000 OA
ATOM     24  O   UNL     1     111.553 125.992 139.619  0.00  0.00    +0.000 OA
ATOM     25  O   UNL     1     111.133 124.910 138.445  0.00  0.00    +0.000 OA
ATOM     26  O   UNL     1     110.947 125.416 136.886  0.00  0.00    +0.000 OA
ATOM     27  C   UNL     1     111.460 126.245 138.838  0.00  0.00    +0.000 C 
ATOM     28  C   UNL     1     111.250 125.704 138.252  0.00  0.00    +0.000 C 
ATOM     29  C   UNL     1     111.576 127.039 138.645  0.00  0.00    +0.000 C 
ATOM     30  C   UNL     1     111.157 125.957 137.472  0.00  0.00    +0.000 C 
ATOM     31  C   UNL     1     111.273 126.751 137.279  0.00  0.00    +0.000 C 
BRANCH  29  32
ATOM     32  C   UNL     1     111.786 127.579 139.233  0.00  0.00    +0.000 C 
BRANCH  32  33
ATOM     33  O   UNL     1     111.675 128.386 139.110  0.00  0.00    +0.000 OA
BRANCH  33  35
ATOM     34  O   UNL     1     111.693 128.986 140.407  0.00  0.00    +0.000 OA
ATOM     35  C   UNL     1     111.993 128.933 139.640  0.00  0.00    +0.000 C 
BRANCH  35  36
ATOM     36  C   UNL     1     112.610 129.425 139.404  0.00  0.00    +0.000 C 
BRANCH  36  39
ATOM     37  O   UNL     1     112.744 130.678 140.079  0.00  0.00    +0.000 OA
ATOM     38  O   UNL     1     112.184 130.629 138.765  0.00  0.00    +0.000 OA
ATOM     39  C   UNL     1     112.513 130.244 139.416  0.00  0.00    +0.000 C 
ENDBRANCH  36  39
ENDBRANCH  35  36
ENDBRANCH  33  35
ENDBRANCH  32  33
ENDBRANCH  29  32
ENDBRANCH  22  31
ENDBRANCH   5  22
TORSDOF 8
ENDMDL
MODEL 9
REMARK VINA RESULT:      -8.6      1.208      4.159
REMARK  Name = 44259118
REMARK  8 active torsions:
REMARK  status: ('A' for Active; 'I' for Inactive)
REMARK    1  A    between atoms: O_2  and  C_20
REMARK    2  A    between atoms: O_2  and  C_22
REMARK    3  A    between atoms: O_6  and  C_21
REMARK    4  A    between atoms: O_6  and  C_26
REMARK    5  A    between atoms: C_18  and  C_21
REMARK    6  A    between atoms: C_23  and  C_28
REMARK    7  A    between atoms: C_26  and  C_30
REMARK    8  A    between atoms: C_30  and  C_39
REMARK                            x       y       z     vdW  Elec       q    Type
REMARK                         _______ _______ _______ _____ _____    ______ ____
ROOT
ATOM      1  O   UNL     1     111.835 125.551 136.182  0.00  0.00    +0.000 OA
ATOM      2  O   UNL     1     110.785 126.837 138.018  0.00  0.00    +0.000 OA
ATOM      3  O   UNL     1     109.557 126.958 137.270  0.00  0.00    +0.000 OA
ATOM      4  O   UNL     1     109.389 125.754 134.614  0.00  0.00    +0.000 OA
ATOM      5  C   UNL     1     111.912 126.142 137.482  0.00  0.00    +0.000 A 
ATOM      6  C   UNL     1     112.262 125.713 136.869  0.00  0.00    +0.000 A 
ATOM      7  C   UNL     1     111.135 126.408 137.406  0.00  0.00    +0.000 A 
ATOM      8  C   UNL     1     110.708 126.246 136.719  0.00  0.00    +0.000 A 
ATOM      9  C   UNL     1     111.058 125.818 136.108  0.00  0.00    +0.000 A 
ATOM     10  C   UNL     1     109.899 126.530 136.653  0.00  0.00    +0.000 A 
ATOM     11  C   UNL     1     110.623 125.643 135.387  0.00  0.00    +0.000 A 
ATOM     12  C   UNL     1     109.449 126.364 135.940  0.00  0.00    +0.000 A 
ATOM     13  C   UNL     1     109.814 125.917 135.302  0.00  0.00    +0.000 A 
ENDROOT
BRANCH   6  16
ATOM     14  O   UNL     1     114.999 125.804 136.052  0.00  0.00    +0.000 OA
ATOM     15  O   UNL     1     115.371 124.649 137.170  0.00  0.00    +0.000 OA
ATOM     16  C   UNL     1     113.039 125.447 136.945  0.00  0.00    +0.000 A 
ATOM     17  C   UNL     1     113.630 125.758 136.461  0.00  0.00    +0.000 A 
ATOM     18  C   UNL     1     113.225 124.869 137.504  0.00  0.00    +0.000 A 
ATOM     19  C   UNL     1     114.407 125.492 136.536  0.00  0.00    +0.000 A 
ATOM     20  C   UNL     1     114.003 124.604 137.579  0.00  0.00    +0.000 A 
ATOM     21  C   UNL     1     114.594 124.915 137.095  0.00  0.00    +0.000 A 
ENDBRANCH   6  16
BRANCH   5  22
ATOM     22  O   UNL     1     112.339 126.304 138.169  0.00  0.00    +0.000 OA
BRANCH  22  31
ATOM     23  O   UNL     1     112.582 127.671 137.833  0.00  0.00    +0.000 OA
ATOM     24  O   UNL     1     112.843 129.430 139.100  0.00  0.00    +0.000 OA
ATOM     25  O   UNL     1     112.608 128.257 140.237  0.00  0.00    +0.000 OA
ATOM     26  O   UNL     1     112.356 126.695 139.772  0.00  0.00    +0.000 OA
ATOM     27  C   UNL     1     112.717 128.648 138.867  0.00  0.00    +0.000 C 
ATOM     28  C   UNL     1     112.599 128.062 139.436  0.00  0.00    +0.000 C 
ATOM     29  C   UNL     1     112.708 128.452 138.065  0.00  0.00    +0.000 C 
ATOM     30  C   UNL     1     112.473 127.280 139.203  0.00  0.00    +0.000 C 
ATOM     31  C   UNL     1     112.465 127.085 138.401  0.00  0.00    +0.000 C 
BRANCH  29  32
ATOM     32  C   UNL     1     112.826 129.039 137.497  0.00  0.00    +0.000 C 
BRANCH  32  33
ATOM     33  O   UNL     1     113.351 128.911 136.875  0.00  0.00    +0.000 OA
BRANCH  33  35
ATOM     34  O   UNL     1     112.699 129.708 135.884  0.00  0.00    +0.000 OA
ATOM     35  C   UNL     1     113.392 129.450 136.251  0.00  0.00    +0.000 C 
BRANCH  35  36
ATOM     36  C   UNL     1     114.123 129.731 135.994  0.00  0.00    +0.000 C 
BRANCH  36  39
ATOM     37  O   UNL     1     114.341 130.151 134.646  0.00  0.00    +0.000 OA
ATOM     38  O   UNL     1     114.683 128.822 135.045  0.00  0.00    +0.000 OA
ATOM     39  C   UNL     1     114.382 129.568 135.229  0.00  0.00    +0.000 C 
ENDBRANCH  36  39
ENDBRANCH  35  36
ENDBRANCH  33  35
ENDBRANCH  32  33
ENDBRANCH  29  32
ENDBRANCH  22  31
ENDBRANCH   5  22
TORSDOF 8
ENDMDL
MODEL 10
REMARK VINA RESULT:      -8.5      1.658      3.173
REMARK  Name = 44259118
REMARK  8 active torsions:
REMARK  status: ('A' for Active; 'I' for Inactive)
REMARK    1  A    between atoms: O_2  and  C_20
REMARK    2  A    between atoms: O_2  and  C_22
REMARK    3  A    between atoms: O_6  and  C_21
REMARK    4  A    between atoms: O_6  and  C_26
REMARK    5  A    between atoms: C_18  and  C_21
REMARK    6  A    between atoms: C_23  and  C_28
REMARK    7  A    between atoms: C_26  and  C_30
REMARK    8  A    between atoms: C_30  and  C_39
REMARK                            x       y       z     vdW  Elec       q    Type
REMARK                         _______ _______ _______ _____ _____    ______ ____
ROOT
ATOM      1  O   UNL     1     111.828 125.982 136.123  0.00  0.00    +0.000 OA
ATOM      2  O   UNL     1     112.035 128.283 135.234  0.00  0.00    +0.000 OA
ATOM      3  O   UNL     1     110.737 128.190 134.612  0.00  0.00    +0.000 OA
ATOM      4  O   UNL     1     109.200 125.723 134.896  0.00  0.00    +0.000 OA
ATOM      5  C   UNL     1     112.576 127.192 135.982  0.00  0.00    +0.000 A 
ATOM      6  C   UNL     1     112.507 126.424 136.278  0.00  0.00    +0.000 A 
ATOM      7  C   UNL     1     111.966 127.516 135.531  0.00  0.00    +0.000 A 
ATOM      8  C   UNL     1     111.287 127.073 135.376  0.00  0.00    +0.000 A 
ATOM      9  C   UNL     1     111.219 126.307 135.672  0.00  0.00    +0.000 A 
ATOM     10  C   UNL     1     110.659 127.422 134.905  0.00  0.00    +0.000 A 
ATOM     11  C   UNL     1     110.517 125.836 135.518  0.00  0.00    +0.000 A 
ATOM     12  C   UNL     1     109.950 126.967 134.740  0.00  0.00    +0.000 A 
ATOM     13  C   UNL     1     109.878 126.167 135.049  0.00  0.00    +0.000 A 
ENDROOT
BRANCH   6  16
ATOM     14  O   UNL     1     113.598 125.725 138.826  0.00  0.00    +0.000 OA
ATOM     15  O   UNL     1     114.947 125.130 138.085  0.00  0.00    +0.000 OA
ATOM     16  C   UNL     1     113.117 126.101 136.729  0.00  0.00    +0.000 A 
ATOM     17  C   UNL     1     113.053 126.075 137.552  0.00  0.00    +0.000 A 
ATOM     18  C   UNL     1     113.792 125.803 136.359  0.00  0.00    +0.000 A 
ATOM     19  C   UNL     1     113.663 125.751 138.003  0.00  0.00    +0.000 A 
ATOM     20  C   UNL     1     114.401 125.480 136.811  0.00  0.00    +0.000 A 
ATOM     21  C   UNL     1     114.337 125.453 137.632  0.00  0.00    +0.000 A 
ENDBRANCH   6  16
BRANCH   5  22
ATOM     22  O   UNL     1     113.255 127.634 136.136  0.00  0.00    +0.000 OA
BRANCH  22  31
ATOM     23  O   UNL     1     112.635 128.475 137.112  0.00  0.00    +0.000 OA
ATOM     24  O   UNL     1     113.010 130.557 137.650  0.00  0.00    +0.000 OA
ATOM     25  O   UNL     1     114.128 130.337 136.456  0.00  0.00    +0.000 OA
ATOM     26  O   UNL     1     114.250 128.876 135.699  0.00  0.00    +0.000 OA
ATOM     27  C   UNL     1     113.071 129.826 137.271  0.00  0.00    +0.000 C 
ATOM     28  C   UNL     1     113.630 129.716 136.675  0.00  0.00    +0.000 C 
ATOM     29  C   UNL     1     112.574 129.205 137.490  0.00  0.00    +0.000 C 
ATOM     30  C   UNL     1     113.692 128.985 136.296  0.00  0.00    +0.000 C 
ATOM     31  C   UNL     1     113.194 128.364 136.515  0.00  0.00    +0.000 C 
BRANCH  29  32
ATOM     32  C   UNL     1     112.015 129.315 138.087  0.00  0.00    +0.000 C 
BRANCH  32  33
ATOM     33  O   UNL     1     111.607 128.669 138.396  0.00  0.00    +0.000 OA
BRANCH  33  35
ATOM     34  O   UNL     1     111.104 129.079 139.669  0.00  0.00    +0.000 OA
ATOM     35  C   UNL     1     110.972 128.788 138.908  0.00  0.00    +0.000 C 
BRANCH  35  36
ATOM     36  C   UNL     1     110.204 128.616 138.661  0.00  0.00    +0.000 C 
BRANCH  36  39
ATOM     37  O   UNL     1     109.894 127.228 138.807  0.00  0.00    +0.000 OA
ATOM     38  O   UNL     1     109.233 128.199 139.621  0.00  0.00    +0.000 OA
ATOM     39  C   UNL     1     109.777 128.014 139.030  0.00  0.00    +0.000 C 
ENDBRANCH  36  39
ENDBRANCH  35  36
ENDBRANCH  33  35
ENDBRANCH  32  33
ENDBRANCH  29  32
ENDBRANCH  22  31
ENDBRANCH   5  22
TORSDOF 8
ENDMDL
