MODEL 1
REMARK VINA RESULT:      -8.2      0.000      0.000
REMARK  Name = 9972910
REMARK  3 active torsions:
REMARK  status: ('A' for Active; 'I' for Inactive)
REMARK    1  A    between atoms: O_2  and  C_10
REMARK    2  A    between atoms: O_3  and  C_12
REMARK    3  A    between atoms: C_9  and  C_14
REMARK                            x       y       z     vdW  Elec       q    Type
REMARK                         _______ _______ _______ _____ _____    ______ ____
ROOT
ATOM      1  O   UNL     1     112.464 126.399 136.208  0.00  0.00    +0.000 OA
ATOM      2  O   UNL     1     109.978 125.421 135.111  0.00  0.00    +0.000 OA
ATOM      3  O   UNL     1     110.903 124.530 135.766  0.00  0.00    +0.000 OA
ATOM      4  O   UNL     1     110.643 128.257 134.899  0.00  0.00    +0.000 OA
ATOM      5  C   UNL     1     111.235 125.917 135.665  0.00  0.00    +0.000 A 
ATOM      6  C   UNL     1     111.755 126.540 135.812  0.00  0.00    +0.000 A 
ATOM      7  C   UNL     1     112.655 125.636 136.456  0.00  0.00    +0.000 A 
ATOM      8  C   UNL     1     112.135 125.013 136.309  0.00  0.00    +0.000 A 
ATOM      9  C   UNL     1     111.424 125.153 135.913  0.00  0.00    +0.000 A 
ATOM     10  C   UNL     1     111.568 127.340 135.559  0.00  0.00    +0.000 A 
ATOM     11  C   UNL     1     110.491 126.050 135.254  0.00  0.00    +0.000 A 
ATOM     12  C   UNL     1     110.830 127.492 135.146  0.00  0.00    +0.000 A 
ATOM     13  C   UNL     1     110.288 126.843 134.993  0.00  0.00    +0.000 A 
ENDROOT
BRANCH   7  14
ATOM     14  C   UNL     1     113.365 125.495 136.852  0.00  0.00    +0.000 A 
ATOM     15  C   UNL     1     113.414 125.617 137.666  0.00  0.00    +0.000 A 
ATOM     16  C   UNL     1     114.026 125.233 136.434  0.00  0.00    +0.000 A 
ATOM     17  C   UNL     1     114.125 125.477 138.062  0.00  0.00    +0.000 A 
ATOM     18  C   UNL     1     114.735 125.092 136.829  0.00  0.00    +0.000 A 
ATOM     19  C   UNL     1     114.785 125.214 137.643  0.00  0.00    +0.000 A 
ENDBRANCH   7  14
BRANCH   8  20
ATOM     20  O   UNL     1     112.324 124.249 136.557  0.00  0.00    +0.000 OA
ATOM     21  C   UNL     1     111.728 123.687 136.655  0.00  0.00    +0.000 C 
ENDBRANCH   8  20
BRANCH  10  22
ATOM     22  O   UNL     1     112.095 127.956 135.710  0.00  0.00    +0.000 OA
ATOM     23  C   UNL     1     111.827 128.646 136.076  0.00  0.00    +0.000 C 
ENDBRANCH  10  22
TORSDOF 3
ENDMDL
MODEL 2
REMARK VINA RESULT:      -8.0     13.167     13.801
REMARK  Name = 9972910
REMARK  3 active torsions:
REMARK  status: ('A' for Active; 'I' for Inactive)
REMARK    1  A    between atoms: O_2  and  C_10
REMARK    2  A    between atoms: O_3  and  C_12
REMARK    3  A    between atoms: C_9  and  C_14
REMARK                            x       y       z     vdW  Elec       q    Type
REMARK                         _______ _______ _______ _____ _____    ______ ____
ROOT
ATOM      1  O   UNL     1     105.346 124.539 147.467  0.00  0.00    +0.000 OA
ATOM      2  O   UNL     1     102.795 125.703 148.160  0.00  0.00    +0.000 OA
ATOM      3  O   UNL     1     103.995 126.062 148.874  0.00  0.00    +0.000 OA
ATOM      4  O   UNL     1     102.964 123.767 145.981  0.00  0.00    +0.000 OA
ATOM      5  C   UNL     1     104.084 125.114 147.808  0.00  0.00    +0.000 A 
ATOM      6  C   UNL     1     104.535 124.606 147.339  0.00  0.00    +0.000 A 
ATOM      7  C   UNL     1     105.709 124.980 148.063  0.00  0.00    +0.000 A 
ATOM      8  C   UNL     1     105.259 125.487 148.532  0.00  0.00    +0.000 A 
ATOM      9  C   UNL     1     104.446 125.555 148.405  0.00  0.00    +0.000 A 
ATOM     10  C   UNL     1     104.169 124.142 146.715  0.00  0.00    +0.000 A 
ATOM     11  C   UNL     1     103.236 125.193 147.686  0.00  0.00    +0.000 A 
ATOM     12  C   UNL     1     103.324 124.208 146.578  0.00  0.00    +0.000 A 
ATOM     13  C   UNL     1     102.854 124.737 147.067  0.00  0.00    +0.000 A 
ENDROOT
BRANCH   7  14
ATOM     14  C   UNL     1     106.521 124.913 148.190  0.00  0.00    +0.000 A 
ATOM     15  C   UNL     1     106.804 124.449 148.811  0.00  0.00    +0.000 A 
ATOM     16  C   UNL     1     107.051 125.309 147.697  0.00  0.00    +0.000 A 
ATOM     17  C   UNL     1     107.617 124.382 148.939  0.00  0.00    +0.000 A 
ATOM     18  C   UNL     1     107.862 125.242 147.824  0.00  0.00    +0.000 A 
ATOM     19  C   UNL     1     108.145 124.778 148.445  0.00  0.00    +0.000 A 
ENDBRANCH   7  14
BRANCH   8  20
ATOM     20  O   UNL     1     105.620 125.928 149.129  0.00  0.00    +0.000 OA
ATOM     21  C   UNL     1     105.269 126.624 149.398  0.00  0.00    +0.000 C 
ENDBRANCH   8  20
BRANCH  10  22
ATOM     22  O   UNL     1     104.628 123.638 146.251  0.00  0.00    +0.000 OA
ATOM     23  C   UNL     1     104.565 123.664 145.428  0.00  0.00    +0.000 C 
ENDBRANCH  10  22
TORSDOF 3
ENDMDL
MODEL 3
REMARK VINA RESULT:      -7.9     12.334     13.302
REMARK  Name = 9972910
REMARK  3 active torsions:
REMARK  status: ('A' for Active; 'I' for Inactive)
REMARK    1  A    between atoms: O_2  and  C_10
REMARK    2  A    between atoms: O_3  and  C_12
REMARK    3  A    between atoms: C_9  and  C_14
REMARK                            x       y       z     vdW  Elec       q    Type
REMARK                         _______ _______ _______ _____ _____    ______ ____
ROOT
ATOM      1  O   UNL     1     105.127 124.353 147.380  0.00  0.00    +0.000 OA
ATOM      2  O   UNL     1     107.524 125.584 146.341  0.00  0.00    +0.000 OA
ATOM      3  O   UNL     1     106.393 125.319 145.486  0.00  0.00    +0.000 OA
ATOM      4  O   UNL     1     107.372 124.857 149.165  0.00  0.00    +0.000 OA
ATOM      5  C   UNL     1     106.313 124.961 146.868  0.00  0.00    +0.000 A 
ATOM      6  C   UNL     1     105.891 124.639 147.499  0.00  0.00    +0.000 A 
ATOM      7  C   UNL     1     104.784 124.388 146.631  0.00  0.00    +0.000 A 
ATOM      8  C   UNL     1     105.206 124.710 145.999  0.00  0.00    +0.000 A 
ATOM      9  C   UNL     1     105.971 124.997 146.118  0.00  0.00    +0.000 A 
ATOM     10  C   UNL     1     106.236 124.597 148.285  0.00  0.00    +0.000 A 
ATOM     11  C   UNL     1     107.110 125.264 146.978  0.00  0.00    +0.000 A 
ATOM     12  C   UNL     1     107.032 124.894 148.414  0.00  0.00    +0.000 A 
ATOM     13  C   UNL     1     107.472 125.230 147.756  0.00  0.00    +0.000 A 
ENDROOT
BRANCH   7  14
ATOM     14  C   UNL     1     104.020 124.101 146.512  0.00  0.00    +0.000 A 
ATOM     15  C   UNL     1     103.369 124.574 146.696  0.00  0.00    +0.000 A 
ATOM     16  C   UNL     1     103.906 123.342 146.210  0.00  0.00    +0.000 A 
ATOM     17  C   UNL     1     102.604 124.287 146.578  0.00  0.00    +0.000 A 
ATOM     18  C   UNL     1     103.142 123.055 146.091  0.00  0.00    +0.000 A 
ATOM     19  C   UNL     1     102.491 123.528 146.275  0.00  0.00    +0.000 A 
ENDBRANCH   7  14
BRANCH   8  20
ATOM     20  O   UNL     1     104.864 124.745 145.249  0.00  0.00    +0.000 OA
ATOM     21  C   UNL     1     105.329 124.926 144.592  0.00  0.00    +0.000 C 
ENDBRANCH   8  20
BRANCH  10  22
ATOM     22  O   UNL     1     105.807 124.273 148.910  0.00  0.00    +0.000 OA
ATOM     23  C   UNL     1     105.718 124.698 149.612  0.00  0.00    +0.000 C 
ENDBRANCH  10  22
TORSDOF 3
ENDMDL
MODEL 4
REMARK VINA RESULT:      -7.9      2.538      3.746
REMARK  Name = 9972910
REMARK  3 active torsions:
REMARK  status: ('A' for Active; 'I' for Inactive)
REMARK    1  A    between atoms: O_2  and  C_10
REMARK    2  A    between atoms: O_3  and  C_12
REMARK    3  A    between atoms: C_9  and  C_14
REMARK                            x       y       z     vdW  Elec       q    Type
REMARK                         _______ _______ _______ _____ _____    ______ ____
ROOT
ATOM      1  O   UNL     1     113.590 126.311 138.805  0.00  0.00    +0.000 OA
ATOM      2  O   UNL     1     110.942 126.170 139.949  0.00  0.00    +0.000 OA
ATOM      3  O   UNL     1     111.241 125.543 138.685  0.00  0.00    +0.000 OA
ATOM      4  O   UNL     1     113.060 127.602 141.361  0.00  0.00    +0.000 OA
ATOM      5  C   UNL     1     112.281 126.242 139.372  0.00  0.00    +0.000 A 
ATOM      6  C   UNL     1     113.064 126.498 139.411  0.00  0.00    +0.000 A 
ATOM      7  C   UNL     1     113.334 125.868 138.158  0.00  0.00    +0.000 A 
ATOM      8  C   UNL     1     112.551 125.612 138.118  0.00  0.00    +0.000 A 
ATOM      9  C   UNL     1     112.024 125.799 138.725  0.00  0.00    +0.000 A 
ATOM     10  C   UNL     1     113.344 126.961 140.080  0.00  0.00    +0.000 A 
ATOM     11  C   UNL     1     111.722 126.431 139.998  0.00  0.00    +0.000 A 
ATOM     12  C   UNL     1     112.800 127.159 140.715  0.00  0.00    +0.000 A 
ATOM     13  C   UNL     1     111.984 126.892 140.674  0.00  0.00    +0.000 A 
ENDROOT
BRANCH   7  14
ATOM     14  C   UNL     1     113.860 125.681 137.551  0.00  0.00    +0.000 A 
ATOM     15  C   UNL     1     113.907 126.163 136.883  0.00  0.00    +0.000 A 
ATOM     16  C   UNL     1     114.339 125.012 137.611  0.00  0.00    +0.000 A 
ATOM     17  C   UNL     1     114.434 125.976 136.275  0.00  0.00    +0.000 A 
ATOM     18  C   UNL     1     114.865 124.825 137.004  0.00  0.00    +0.000 A 
ATOM     19  C   UNL     1     114.913 125.307 136.337  0.00  0.00    +0.000 A 
ENDBRANCH   7  14
BRANCH   8  20
ATOM     20  O   UNL     1     112.294 125.169 137.471  0.00  0.00    +0.000 OA
ATOM     21  C   UNL     1     111.586 124.747 137.515  0.00  0.00    +0.000 C 
ENDBRANCH   8  20
BRANCH  10  22
ATOM     22  O   UNL     1     114.129 127.212 140.111  0.00  0.00    +0.000 OA
ATOM     23  C   UNL     1     114.565 127.116 140.805  0.00  0.00    +0.000 C 
ENDBRANCH  10  22
TORSDOF 3
ENDMDL
MODEL 5
REMARK VINA RESULT:      -7.6     11.612     12.332
REMARK  Name = 9972910
REMARK  3 active torsions:
REMARK  status: ('A' for Active; 'I' for Inactive)
REMARK    1  A    between atoms: O_2  and  C_10
REMARK    2  A    between atoms: O_3  and  C_12
REMARK    3  A    between atoms: C_9  and  C_14
REMARK                            x       y       z     vdW  Elec       q    Type
REMARK                         _______ _______ _______ _____ _____    ______ ____
ROOT
ATOM      1  O   UNL     1     105.865 124.598 146.828  0.00  0.00    +0.000 OA
ATOM      2  O   UNL     1     106.378 125.837 144.270  0.00  0.00    +0.000 OA
ATOM      3  O   UNL     1     107.069 126.272 145.459  0.00  0.00    +0.000 OA
ATOM      4  O   UNL     1     104.432 123.669 144.469  0.00  0.00    +0.000 OA
ATOM      5  C   UNL     1     106.118 125.210 145.563  0.00  0.00    +0.000 A 
ATOM      6  C   UNL     1     105.717 124.652 146.019  0.00  0.00    +0.000 A 
ATOM      7  C   UNL     1     106.415 125.101 147.182  0.00  0.00    +0.000 A 
ATOM      8  C   UNL     1     106.816 125.659 146.726  0.00  0.00    +0.000 A 
ATOM      9  C   UNL     1     106.668 125.714 145.915  0.00  0.00    +0.000 A 
ATOM     10  C   UNL     1     105.141 124.122 145.663  0.00  0.00    +0.000 A 
ATOM     11  C   UNL     1     105.972 125.277 144.718  0.00  0.00    +0.000 A 
ATOM     12  C   UNL     1     104.982 124.174 144.820  0.00  0.00    +0.000 A 
ATOM     13  C   UNL     1     105.401 124.755 144.344  0.00  0.00    +0.000 A 
ENDROOT
BRANCH   7  14
ATOM     14  C   UNL     1     106.564 125.047 147.991  0.00  0.00    +0.000 A 
ATOM     15  C   UNL     1     107.197 124.594 148.265  0.00  0.00    +0.000 A 
ATOM     16  C   UNL     1     106.080 125.445 148.528  0.00  0.00    +0.000 A 
ATOM     17  C   UNL     1     107.346 124.540 149.075  0.00  0.00    +0.000 A 
ATOM     18  C   UNL     1     106.228 125.391 149.337  0.00  0.00    +0.000 A 
ATOM     19  C   UNL     1     106.861 124.938 149.610  0.00  0.00    +0.000 A 
ENDBRANCH   7  14
BRANCH   8  20
ATOM     20  O   UNL     1     107.366 126.163 147.078  0.00  0.00    +0.000 OA
ATOM     21  C   UNL     1     107.471 126.928 146.787  0.00  0.00    +0.000 C 
ENDBRANCH   8  20
BRANCH  10  22
ATOM     22  O   UNL     1     104.745 123.567 146.127  0.00  0.00    +0.000 OA
ATOM     23  C   UNL     1     103.921 123.527 146.107  0.00  0.00    +0.000 C 
ENDBRANCH  10  22
TORSDOF 3
ENDMDL
MODEL 6
REMARK VINA RESULT:      -7.6     12.861     13.608
REMARK  Name = 9972910
REMARK  3 active torsions:
REMARK  status: ('A' for Active; 'I' for Inactive)
REMARK    1  A    between atoms: O_2  and  C_10
REMARK    2  A    between atoms: O_3  and  C_12
REMARK    3  A    between atoms: C_9  and  C_14
REMARK                            x       y       z     vdW  Elec       q    Type
REMARK                         _______ _______ _______ _____ _____    ______ ____
ROOT
ATOM      1  O   UNL     1     104.084 124.266 147.358  0.00  0.00    +0.000 OA
ATOM      2  O   UNL     1     103.277 123.026 144.877  0.00  0.00    +0.000 OA
ATOM      3  O   UNL     1     104.541 123.710 144.990  0.00  0.00    +0.000 OA
ATOM      4  O   UNL     1     101.516 122.902 147.203  0.00  0.00    +0.000 OA
ATOM      5  C   UNL     1     103.684 123.653 146.132  0.00  0.00    +0.000 A 
ATOM      6  C   UNL     1     103.531 123.838 146.921  0.00  0.00    +0.000 A 
ATOM      7  C   UNL     1     104.790 124.510 147.006  0.00  0.00    +0.000 A 
ATOM      8  C   UNL     1     104.942 124.324 146.217  0.00  0.00    +0.000 A 
ATOM      9  C   UNL     1     104.389 123.895 145.779  0.00  0.00    +0.000 A 
ATOM     10  C   UNL     1     102.800 123.590 147.299  0.00  0.00    +0.000 A 
ATOM     11  C   UNL     1     103.116 123.206 145.665  0.00  0.00    +0.000 A 
ATOM     12  C   UNL     1     102.221 123.144 146.849  0.00  0.00    +0.000 A 
ATOM     13  C   UNL     1     102.379 122.950 146.026  0.00  0.00    +0.000 A 
ENDROOT
BRANCH   7  14
ATOM     14  C   UNL     1     105.342 124.938 147.443  0.00  0.00    +0.000 A 
ATOM     15  C   UNL     1     105.951 124.544 147.837  0.00  0.00    +0.000 A 
ATOM     16  C   UNL     1     105.288 125.760 147.486  0.00  0.00    +0.000 A 
ATOM     17  C   UNL     1     106.504 124.973 148.275  0.00  0.00    +0.000 A 
ATOM     18  C   UNL     1     105.840 126.189 147.922  0.00  0.00    +0.000 A 
ATOM     19  C   UNL     1     106.449 125.795 148.317  0.00  0.00    +0.000 A 
ENDBRANCH   7  14
BRANCH   8  20
ATOM     20  O   UNL     1     105.647 124.567 145.864  0.00  0.00    +0.000 OA
ATOM     21  C   UNL     1     105.681 124.687 145.049  0.00  0.00    +0.000 C 
ENDBRANCH   8  20
BRANCH  10  22
ATOM     22  O   UNL     1     102.656 123.780 148.089  0.00  0.00    +0.000 OA
ATOM     23  C   UNL     1     101.952 124.153 148.300  0.00  0.00    +0.000 C 
ENDBRANCH  10  22
TORSDOF 3
ENDMDL
MODEL 7
REMARK VINA RESULT:      -7.6     12.804     13.694
REMARK  Name = 9972910
REMARK  3 active torsions:
REMARK  status: ('A' for Active; 'I' for Inactive)
REMARK    1  A    between atoms: O_2  and  C_10
REMARK    2  A    between atoms: O_3  and  C_12
REMARK    3  A    between atoms: C_9  and  C_14
REMARK                            x       y       z     vdW  Elec       q    Type
REMARK                         _______ _______ _______ _____ _____    ______ ____
ROOT
ATOM      1  O   UNL     1     104.154 124.465 146.248  0.00  0.00    +0.000 OA
ATOM      2  O   UNL     1     106.278 125.143 148.084  0.00  0.00    +0.000 OA
ATOM      3  O   UNL     1     105.001 124.675 148.564  0.00  0.00    +0.000 OA
ATOM      4  O   UNL     1     106.706 125.405 145.208  0.00  0.00    +0.000 OA
ATOM      5  C   UNL     1     105.205 124.801 147.155  0.00  0.00    +0.000 A 
ATOM      6  C   UNL     1     104.922 124.731 146.383  0.00  0.00    +0.000 A 
ATOM      7  C   UNL     1     103.666 124.269 146.885  0.00  0.00    +0.000 A 
ATOM      8  C   UNL     1     103.949 124.339 147.657  0.00  0.00    +0.000 A 
ATOM      9  C   UNL     1     104.719 124.605 147.792  0.00  0.00    +0.000 A 
ATOM     10  C   UNL     1     105.420 124.932 145.712  0.00  0.00    +0.000 A 
ATOM     11  C   UNL     1     106.005 125.077 147.310  0.00  0.00    +0.000 A 
ATOM     12  C   UNL     1     106.221 125.210 145.846  0.00  0.00    +0.000 A 
ATOM     13  C   UNL     1     106.516 125.282 146.651  0.00  0.00    +0.000 A 
ENDROOT
BRANCH   7  14
ATOM     14  C   UNL     1     102.898 124.003 146.750  0.00  0.00    +0.000 A 
ATOM     15  C   UNL     1     102.758 123.205 146.597  0.00  0.00    +0.000 A 
ATOM     16  C   UNL     1     102.267 124.536 146.767  0.00  0.00    +0.000 A 
ATOM     17  C   UNL     1     101.989 122.938 146.462  0.00  0.00    +0.000 A 
ATOM     18  C   UNL     1     101.499 124.270 146.632  0.00  0.00    +0.000 A 
ATOM     19  C   UNL     1     101.359 123.471 146.480  0.00  0.00    +0.000 A 
ENDBRANCH   7  14
BRANCH   8  20
ATOM     20  O   UNL     1     103.463 124.143 148.294  0.00  0.00    +0.000 OA
ATOM     21  C   UNL     1     103.618 124.453 149.042  0.00  0.00    +0.000 C 
ENDBRANCH   8  20
BRANCH  10  22
ATOM     22  O   UNL     1     105.128 124.859 144.943  0.00  0.00    +0.000 OA
ATOM     23  C   UNL     1     105.571 124.463 144.371  0.00  0.00    +0.000 C 
ENDBRANCH  10  22
TORSDOF 3
ENDMDL
MODEL 8
REMARK VINA RESULT:      -7.4      1.171      3.239
REMARK  Name = 9972910
REMARK  3 active torsions:
REMARK  status: ('A' for Active; 'I' for Inactive)
REMARK    1  A    between atoms: O_2  and  C_10
REMARK    2  A    between atoms: O_3  and  C_12
REMARK    3  A    between atoms: C_9  and  C_14
REMARK                            x       y       z     vdW  Elec       q    Type
REMARK                         _______ _______ _______ _____ _____    ______ ____
ROOT
ATOM      1  O   UNL     1     113.017 126.454 136.718  0.00  0.00    +0.000 OA
ATOM      2  O   UNL     1     110.888 124.784 135.707  0.00  0.00    +0.000 OA
ATOM      3  O   UNL     1     110.885 126.209 135.485  0.00  0.00    +0.000 OA
ATOM      4  O   UNL     1     113.089 123.584 137.204  0.00  0.00    +0.000 OA
ATOM      5  C   UNL     1     111.965 125.628 136.219  0.00  0.00    +0.000 A 
ATOM      6  C   UNL     1     112.675 125.709 136.630  0.00  0.00    +0.000 A 
ATOM      7  C   UNL     1     112.649 127.119 136.396  0.00  0.00    +0.000 A 
ATOM      8  C   UNL     1     111.938 127.037 135.985  0.00  0.00    +0.000 A 
ATOM      9  C   UNL     1     111.595 126.291 135.896  0.00  0.00    +0.000 A 
ATOM     10  C   UNL     1     113.069 125.025 136.970  0.00  0.00    +0.000 A 
ATOM     11  C   UNL     1     111.598 124.856 136.119  0.00  0.00    +0.000 A 
ATOM     12  C   UNL     1     112.718 124.246 136.881  0.00  0.00    +0.000 A 
ATOM     13  C   UNL     1     111.977 124.161 136.452  0.00  0.00    +0.000 A 
ENDROOT
BRANCH   7  14
ATOM     14  C   UNL     1     112.990 127.864 136.485  0.00  0.00    +0.000 A 
ATOM     15  C   UNL     1     113.527 128.141 135.923  0.00  0.00    +0.000 A 
ATOM     16  C   UNL     1     112.796 128.333 137.135  0.00  0.00    +0.000 A 
ATOM     17  C   UNL     1     113.869 128.887 136.011  0.00  0.00    +0.000 A 
ATOM     18  C   UNL     1     113.137 129.078 137.224  0.00  0.00    +0.000 A 
ATOM     19  C   UNL     1     113.674 129.355 136.662  0.00  0.00    +0.000 A 
ENDBRANCH   7  14
BRANCH   8  20
ATOM     20  O   UNL     1     111.569 127.701 135.663  0.00  0.00    +0.000 OA
ATOM     21  C   UNL     1     110.938 127.609 135.140  0.00  0.00    +0.000 C 
ENDBRANCH   8  20
BRANCH  10  22
ATOM     22  O   UNL     1     113.780 125.116 137.379  0.00  0.00    +0.000 OA
ATOM     23  C   UNL     1     114.433 124.655 137.176  0.00  0.00    +0.000 C 
ENDBRANCH  10  22
TORSDOF 3
ENDMDL
MODEL 9
REMARK VINA RESULT:      -7.4      0.980      4.050
REMARK  Name = 9972910
REMARK  3 active torsions:
REMARK  status: ('A' for Active; 'I' for Inactive)
REMARK    1  A    between atoms: O_2  and  C_10
REMARK    2  A    between atoms: O_3  and  C_12
REMARK    3  A    between atoms: C_9  and  C_14
REMARK                            x       y       z     vdW  Elec       q    Type
REMARK                         _______ _______ _______ _____ _____    ______ ____
ROOT
ATOM      1  O   UNL     1     111.648 125.268 136.212  0.00  0.00    +0.000 OA
ATOM      2  O   UNL     1     114.209 126.350 136.997  0.00  0.00    +0.000 OA
ATOM      3  O   UNL     1     113.165 127.204 136.486  0.00  0.00    +0.000 OA
ATOM      4  O   UNL     1     113.710 123.483 137.235  0.00  0.00    +0.000 OA
ATOM      5  C   UNL     1     112.915 125.802 136.601  0.00  0.00    +0.000 A 
ATOM      6  C   UNL     1     112.409 125.156 136.509  0.00  0.00    +0.000 A 
ATOM      7  C   UNL     1     111.391 126.024 136.006  0.00  0.00    +0.000 A 
ATOM      8  C   UNL     1     111.897 126.670 136.098  0.00  0.00    +0.000 A 
ATOM      9  C   UNL     1     112.659 126.559 136.395  0.00  0.00    +0.000 A 
ATOM     10  C   UNL     1     112.665 124.363 136.720  0.00  0.00    +0.000 A 
ATOM     11  C   UNL     1     113.711 125.700 136.909  0.00  0.00    +0.000 A 
ATOM     12  C   UNL     1     113.456 124.241 137.030  0.00  0.00    +0.000 A 
ATOM     13  C   UNL     1     113.983 124.914 137.125  0.00  0.00    +0.000 A 
ENDROOT
BRANCH   7  14
ATOM     14  C   UNL     1     110.630 126.136 135.709  0.00  0.00    +0.000 A 
ATOM     15  C   UNL     1     110.023 126.376 136.212  0.00  0.00    +0.000 A 
ATOM     16  C   UNL     1     110.476 126.007 134.909  0.00  0.00    +0.000 A 
ATOM     17  C   UNL     1     109.260 126.488 135.915  0.00  0.00    +0.000 A 
ATOM     18  C   UNL     1     109.715 126.118 134.612  0.00  0.00    +0.000 A 
ATOM     19  C   UNL     1     109.107 126.358 135.115  0.00  0.00    +0.000 A 
ENDBRANCH   7  14
BRANCH   8  20
ATOM     20  O   UNL     1     111.641 127.427 135.892  0.00  0.00    +0.000 OA
ATOM     21  C   UNL     1     112.186 128.043 135.829  0.00  0.00    +0.000 C 
ENDBRANCH   8  20
BRANCH  10  22
ATOM     22  O   UNL     1     112.152 123.723 136.625  0.00  0.00    +0.000 OA
ATOM     23  C   UNL     1     112.022 123.203 137.252  0.00  0.00    +0.000 C 
ENDBRANCH  10  22
TORSDOF 3
ENDMDL
