MODEL 1
REMARK VINA RESULT:      -8.8      0.000      0.000
REMARK  Name = 131835093
REMARK  4 active torsions:
REMARK  status: ('A' for Active; 'I' for Inactive)
REMARK    1  A    between atoms: S_1  and  O_3
REMARK    2  A    between atoms: O_3  and  C_14
REMARK    3  A    between atoms: O_6  and  C_25
REMARK    4  A    between atoms: C_13  and  C_15
REMARK                            x       y       z     vdW  Elec       q    Type
REMARK                         _______ _______ _______ _____ _____    ______ ____
ROOT
ATOM      1  O   UNL     1     105.202 124.225 147.215  0.00  0.00    +0.000 OA
ATOM      2  O   UNL     1     106.469 125.350 145.411  0.00  0.00    +0.000 OA
ATOM      3  O   UNL     1     107.550 125.650 146.319  0.00  0.00    +0.000 OA
ATOM      4  O   UNL     1     108.210 125.564 147.872  0.00  0.00    +0.000 OA
ATOM      5  O   UNL     1     107.344 124.796 149.103  0.00  0.00    +0.000 OA
ATOM      6  C   UNL     1     104.885 124.270 146.455  0.00  0.00    +0.000 C 
ATOM      7  C   UNL     1     105.307 124.645 145.853  0.00  0.00    +0.000 C 
ATOM      8  C   UNL     1     106.047 124.975 146.013  0.00  0.00    +0.000 C 
ATOM      9  C   UNL     1     106.363 124.930 146.773  0.00  0.00    +0.000 A 
ATOM     10  C   UNL     1     105.941 124.554 147.374  0.00  0.00    +0.000 A 
ATOM     11  C   UNL     1     107.135 125.277 146.926  0.00  0.00    +0.000 A 
ATOM     12  C   UNL     1     106.261 124.501 148.170  0.00  0.00    +0.000 A 
ATOM     13  C   UNL     1     107.470 125.233 147.716  0.00  0.00    +0.000 A 
ATOM     14  C   UNL     1     107.030 124.842 148.342  0.00  0.00    +0.000 A 
ENDROOT
BRANCH   6  16
ATOM     15  O   UNL     1     101.927 122.951 145.818  0.00  0.00    +0.000 OA
ATOM     16  C   UNL     1     104.146 123.940 146.296  0.00  0.00    +0.000 A 
ATOM     17  C   UNL     1     103.459 124.353 146.493  0.00  0.00    +0.000 A 
ATOM     18  C   UNL     1     104.093 123.198 145.939  0.00  0.00    +0.000 A 
ATOM     19  C   UNL     1     102.719 124.023 146.333  0.00  0.00    +0.000 A 
ATOM     20  C   UNL     1     103.354 122.869 145.780  0.00  0.00    +0.000 A 
ATOM     21  C   UNL     1     102.667 123.281 145.977  0.00  0.00    +0.000 A 
BRANCH  19  22
ATOM     22  O   UNL     1     102.033 124.436 146.530  0.00  0.00    +0.000 OA
ATOM     23  C   UNL     1     101.929 124.721 147.297  0.00  0.00    +0.000 C 
ENDBRANCH  19  22
ENDBRANCH   6  16
BRANCH   7  24
ATOM     24  O   UNL     1     104.991 124.691 145.093  0.00  0.00    +0.000 OA
BRANCH  24  25
ATOM     25  S   UNL     1     105.334 125.189 144.532  0.00  0.00    +0.000 S 
ATOM     26  O   UNL     1     105.677 125.687 143.971  0.00  0.00    +0.000 OA
ATOM     27  O   UNL     1     104.909 125.826 144.838  0.00  0.00    +0.000 OA
ATOM     28  O   UNL     1     105.759 124.551 144.226  0.00  0.00    +0.000 OA
ENDBRANCH  24  25
ENDBRANCH   7  24
TORSDOF 4
ENDMDL
MODEL 2
REMARK VINA RESULT:      -8.8      7.076      8.152
REMARK  Name = 131835093
REMARK  4 active torsions:
REMARK  status: ('A' for Active; 'I' for Inactive)
REMARK    1  A    between atoms: S_1  and  O_3
REMARK    2  A    between atoms: O_3  and  C_14
REMARK    3  A    between atoms: O_6  and  C_25
REMARK    4  A    between atoms: C_13  and  C_15
REMARK                            x       y       z     vdW  Elec       q    Type
REMARK                         _______ _______ _______ _____ _____    ______ ____
ROOT
ATOM      1  O   UNL     1     103.319 130.236 142.332  0.00  0.00    +0.000 OA
ATOM      2  O   UNL     1     103.235 128.742 140.361  0.00  0.00    +0.000 OA
ATOM      3  O   UNL     1     104.230 127.874 140.942  0.00  0.00    +0.000 OA
ATOM      4  O   UNL     1     105.274 127.509 142.219  0.00  0.00    +0.000 OA
ATOM      5  O   UNL     1     105.331 128.530 143.565  0.00  0.00    +0.000 OA
ATOM      6  C   UNL     1     102.811 130.409 141.705  0.00  0.00    +0.000 C 
ATOM      7  C   UNL     1     102.783 129.911 141.048  0.00  0.00    +0.000 C 
ATOM      8  C   UNL     1     103.263 129.240 141.018  0.00  0.00    +0.000 C 
ATOM      9  C   UNL     1     103.770 129.068 141.646  0.00  0.00    +0.000 A 
ATOM     10  C   UNL     1     103.798 129.566 142.303  0.00  0.00    +0.000 A 
ATOM     11  C   UNL     1     104.265 128.366 141.603  0.00  0.00    +0.000 A 
ATOM     12  C   UNL     1     104.323 129.397 142.962  0.00  0.00    +0.000 A 
ATOM     13  C   UNL     1     104.795 128.181 142.253  0.00  0.00    +0.000 A 
ATOM     14  C   UNL     1     104.825 128.700 142.937  0.00  0.00    +0.000 A 
ENDROOT
BRANCH   6  16
ATOM     15  O   UNL     1     100.894 133.092 141.824  0.00  0.00    +0.000 OA
ATOM     16  C   UNL     1     102.332 131.079 141.735  0.00  0.00    +0.000 A 
ATOM     17  C   UNL     1     102.633 131.812 141.503  0.00  0.00    +0.000 A 
ATOM     18  C   UNL     1     101.552 131.019 141.997  0.00  0.00    +0.000 A 
ATOM     19  C   UNL     1     102.153 132.483 141.532  0.00  0.00    +0.000 A 
ATOM     20  C   UNL     1     101.073 131.689 142.027  0.00  0.00    +0.000 A 
ATOM     21  C   UNL     1     101.373 132.421 141.795  0.00  0.00    +0.000 A 
BRANCH  19  22
ATOM     22  O   UNL     1     102.453 133.215 141.300  0.00  0.00    +0.000 OA
ATOM     23  C   UNL     1     103.243 133.402 141.446  0.00  0.00    +0.000 C 
ENDBRANCH  19  22
ENDBRANCH   6  16
BRANCH   7  24
ATOM     24  O   UNL     1     102.276 130.083 140.421  0.00  0.00    +0.000 OA
BRANCH  24  25
ATOM     25  S   UNL     1     102.392 129.727 139.686  0.00  0.00    +0.000 S 
ATOM     26  O   UNL     1     102.508 129.370 138.951  0.00  0.00    +0.000 OA
ATOM     27  O   UNL     1     101.818 129.163 139.869  0.00  0.00    +0.000 OA
ATOM     28  O   UNL     1     102.967 130.290 139.504  0.00  0.00    +0.000 OA
ENDBRANCH  24  25
ENDBRANCH   7  24
TORSDOF 4
ENDMDL
MODEL 3
REMARK VINA RESULT:      -8.7      1.020      3.960
REMARK  Name = 131835093
REMARK  4 active torsions:
REMARK  status: ('A' for Active; 'I' for Inactive)
REMARK    1  A    between atoms: S_1  and  O_3
REMARK    2  A    between atoms: O_3  and  C_14
REMARK    3  A    between atoms: O_6  and  C_25
REMARK    4  A    between atoms: C_13  and  C_15
REMARK                            x       y       z     vdW  Elec       q    Type
REMARK                         _______ _______ _______ _____ _____    ______ ____
ROOT
ATOM      1  O   UNL     1     104.809 125.041 147.121  0.00  0.00    +0.000 OA
ATOM      2  O   UNL     1     104.500 123.943 144.924  0.00  0.00    +0.000 OA
ATOM      3  O   UNL     1     103.302 123.289 145.388  0.00  0.00    +0.000 OA
ATOM      4  O   UNL     1     102.187 123.004 146.626  0.00  0.00    +0.000 OA
ATOM      5  O   UNL     1     102.398 123.754 148.126  0.00  0.00    +0.000 OA
ATOM      6  C   UNL     1     105.350 125.176 146.513  0.00  0.00    +0.000 C 
ATOM      7  C   UNL     1     105.248 124.810 145.780  0.00  0.00    +0.000 C 
ATOM      8  C   UNL     1     104.603 124.309 145.656  0.00  0.00    +0.000 C 
ATOM      9  C   UNL     1     104.063 124.174 146.265  0.00  0.00    +0.000 A 
ATOM     10  C   UNL     1     104.166 124.540 146.997  0.00  0.00    +0.000 A 
ATOM     11  C   UNL     1     103.397 123.650 146.124  0.00  0.00    +0.000 A 
ATOM     12  C   UNL     1     103.610 124.408 147.639  0.00  0.00    +0.000 A 
ATOM     13  C   UNL     1     102.830 123.506 146.754  0.00  0.00    +0.000 A 
ATOM     14  C   UNL     1     102.938 123.887 147.516  0.00  0.00    +0.000 A 
ENDROOT
BRANCH   6  16
ATOM     15  O   UNL     1     107.926 127.180 147.007  0.00  0.00    +0.000 OA
ATOM     16  C   UNL     1     105.994 125.677 146.636  0.00  0.00    +0.000 A 
ATOM     17  C   UNL     1     106.707 125.371 146.914  0.00  0.00    +0.000 A 
ATOM     18  C   UNL     1     105.924 126.485 146.482  0.00  0.00    +0.000 A 
ATOM     19  C   UNL     1     107.352 125.872 147.038  0.00  0.00    +0.000 A 
ATOM     20  C   UNL     1     106.568 126.985 146.605  0.00  0.00    +0.000 A 
ATOM     21  C   UNL     1     107.281 126.679 146.883  0.00  0.00    +0.000 A 
BRANCH  19  22
ATOM     22  O   UNL     1     108.065 125.565 147.316  0.00  0.00    +0.000 OA
ATOM     23  C   UNL     1     108.071 125.056 147.964  0.00  0.00    +0.000 C 
ENDBRANCH  19  22
ENDBRANCH   6  16
BRANCH   7  24
ATOM     24  O   UNL     1     105.788 124.945 145.172  0.00  0.00    +0.000 OA
BRANCH  24  25
ATOM     25  S   UNL     1     105.607 124.714 144.401  0.00  0.00    +0.000 S 
ATOM     26  O   UNL     1     105.426 124.484 143.629  0.00  0.00    +0.000 OA
ATOM     27  O   UNL     1     105.167 125.405 144.297  0.00  0.00    +0.000 OA
ATOM     28  O   UNL     1     106.047 124.024 144.504  0.00  0.00    +0.000 OA
ENDBRANCH  24  25
ENDBRANCH   7  24
TORSDOF 4
ENDMDL
MODEL 4
REMARK VINA RESULT:      -8.4      9.362     10.900
REMARK  Name = 131835093
REMARK  4 active torsions:
REMARK  status: ('A' for Active; 'I' for Inactive)
REMARK    1  A    between atoms: S_1  and  O_3
REMARK    2  A    between atoms: O_3  and  C_14
REMARK    3  A    between atoms: O_6  and  C_25
REMARK    4  A    between atoms: C_13  and  C_15
REMARK                            x       y       z     vdW  Elec       q    Type
REMARK                         _______ _______ _______ _____ _____    ______ ____
ROOT
ATOM      1  O   UNL     1     111.368 131.794 145.390  0.00  0.00    +0.000 OA
ATOM      2  O   UNL     1     111.962 133.426 143.627  0.00  0.00    +0.000 OA
ATOM      3  O   UNL     1     112.188 132.363 142.680  0.00  0.00    +0.000 OA
ATOM      4  O   UNL     1     112.212 130.710 142.328  0.00  0.00    +0.000 OA
ATOM      5  O   UNL     1     111.806 129.596 143.532  0.00  0.00    +0.000 OA
ATOM      6  C   UNL     1     111.358 132.602 145.557  0.00  0.00    +0.000 C 
ATOM      7  C   UNL     1     111.556 133.146 144.969  0.00  0.00    +0.000 C 
ATOM      8  C   UNL     1     111.764 132.882 144.215  0.00  0.00    +0.000 C 
ATOM      9  C   UNL     1     111.773 132.074 144.050  0.00  0.00    +0.000 A 
ATOM     10  C   UNL     1     111.575 131.530 144.638  0.00  0.00    +0.000 A 
ATOM     11  C   UNL     1     111.992 131.811 143.261  0.00  0.00    +0.000 A 
ATOM     12  C   UNL     1     111.582 130.685 144.477  0.00  0.00    +0.000 A 
ATOM     13  C   UNL     1     112.004 130.971 143.083  0.00  0.00    +0.000 A 
ATOM     14  C   UNL     1     111.797 130.405 143.695  0.00  0.00    +0.000 A 
ENDROOT
BRANCH   6  16
ATOM     15  O   UNL     1     110.527 133.660 148.570  0.00  0.00    +0.000 OA
ATOM     16  C   UNL     1     111.150 132.866 146.310  0.00  0.00    +0.000 A 
ATOM     17  C   UNL     1     111.725 132.930 146.898  0.00  0.00    +0.000 A 
ATOM     18  C   UNL     1     110.367 133.067 146.476  0.00  0.00    +0.000 A 
ATOM     19  C   UNL     1     111.517 133.195 147.652  0.00  0.00    +0.000 A 
ATOM     20  C   UNL     1     110.159 133.332 147.228  0.00  0.00    +0.000 A 
ATOM     21  C   UNL     1     110.734 133.395 147.816  0.00  0.00    +0.000 A 
BRANCH  19  22
ATOM     22  O   UNL     1     112.092 133.258 148.240  0.00  0.00    +0.000 OA
ATOM     23  C   UNL     1     112.621 132.638 148.368  0.00  0.00    +0.000 C 
ENDBRANCH  19  22
ENDBRANCH   6  16
BRANCH   7  24
ATOM     24  O   UNL     1     111.546 133.954 145.134  0.00  0.00    +0.000 OA
BRANCH  24  25
ATOM     25  S   UNL     1     111.663 134.501 144.527  0.00  0.00    +0.000 S 
ATOM     26  O   UNL     1     111.779 135.048 143.921  0.00  0.00    +0.000 OA
ATOM     27  O   UNL     1     112.470 134.518 144.698  0.00  0.00    +0.000 OA
ATOM     28  O   UNL     1     110.856 134.485 144.357  0.00  0.00    +0.000 OA
ENDBRANCH  24  25
ENDBRANCH   7  24
TORSDOF 4
ENDMDL
MODEL 5
REMARK VINA RESULT:      -8.3      1.612      4.576
REMARK  Name = 131835093
REMARK  4 active torsions:
REMARK  status: ('A' for Active; 'I' for Inactive)
REMARK    1  A    between atoms: S_1  and  O_3
REMARK    2  A    between atoms: O_3  and  C_14
REMARK    3  A    between atoms: O_6  and  C_25
REMARK    4  A    between atoms: C_13  and  C_15
REMARK                            x       y       z     vdW  Elec       q    Type
REMARK                         _______ _______ _______ _____ _____    ______ ____
ROOT
ATOM      1  O   UNL     1     104.910 124.251 146.796  0.00  0.00    +0.000 OA
ATOM      2  O   UNL     1     103.258 125.132 148.415  0.00  0.00    +0.000 OA
ATOM      3  O   UNL     1     102.178 124.496 147.701  0.00  0.00    +0.000 OA
ATOM      4  O   UNL     1     101.652 123.541 146.410  0.00  0.00    +0.000 OA
ATOM      5  O   UNL     1     102.780 122.940 145.305  0.00  0.00    +0.000 OA
ATOM      6  C   UNL     1     105.161 124.718 147.429  0.00  0.00    +0.000 C 
ATOM      7  C   UNL     1     104.610 125.012 147.968  0.00  0.00    +0.000 C 
ATOM      8  C   UNL     1     103.809 124.838 147.875  0.00  0.00    +0.000 C 
ATOM      9  C   UNL     1     103.559 124.372 147.243  0.00  0.00    +0.000 A 
ATOM     10  C   UNL     1     104.110 124.078 146.703  0.00  0.00    +0.000 A 
ATOM     11  C   UNL     1     102.721 124.198 147.157  0.00  0.00    +0.000 A 
ATOM     12  C   UNL     1     103.861 123.591 146.040  0.00  0.00    +0.000 A 
ATOM     13  C   UNL     1     102.455 123.712 146.500  0.00  0.00    +0.000 A 
ATOM     14  C   UNL     1     103.028 123.407 145.938  0.00  0.00    +0.000 A 
ENDROOT
BRANCH   6  16
ATOM     15  O   UNL     1     108.366 125.412 147.800  0.00  0.00    +0.000 OA
ATOM     16  C   UNL     1     105.962 124.891 147.522  0.00  0.00    +0.000 A 
ATOM     17  C   UNL     1     106.317 125.467 147.049  0.00  0.00    +0.000 A 
ATOM     18  C   UNL     1     106.409 124.490 148.087  0.00  0.00    +0.000 A 
ATOM     19  C   UNL     1     107.118 125.641 147.142  0.00  0.00    +0.000 A 
ATOM     20  C   UNL     1     107.209 124.663 148.180  0.00  0.00    +0.000 A 
ATOM     21  C   UNL     1     107.564 125.239 147.708  0.00  0.00    +0.000 A 
BRANCH  19  22
ATOM     22  O   UNL     1     107.473 126.217 146.670  0.00  0.00    +0.000 OA
ATOM     23  C   UNL     1     107.058 126.901 146.472  0.00  0.00    +0.000 C 
ENDBRANCH  19  22
ENDBRANCH   6  16
BRANCH   7  24
ATOM     24  O   UNL     1     104.860 125.478 148.601  0.00  0.00    +0.000 OA
BRANCH  24  25
ATOM     25  S   UNL     1     104.312 125.922 149.028  0.00  0.00    +0.000 S 
ATOM     26  O   UNL     1     103.764 126.367 149.456  0.00  0.00    +0.000 OA
ATOM     27  O   UNL     1     104.330 126.506 148.445  0.00  0.00    +0.000 OA
ATOM     28  O   UNL     1     104.294 125.339 149.611  0.00  0.00    +0.000 OA
ENDBRANCH  24  25
ENDBRANCH   7  24
TORSDOF 4
ENDMDL
MODEL 6
REMARK VINA RESULT:      -8.2      2.281      3.986
REMARK  Name = 131835093
REMARK  4 active torsions:
REMARK  status: ('A' for Active; 'I' for Inactive)
REMARK    1  A    between atoms: S_1  and  O_3
REMARK    2  A    between atoms: O_3  and  C_14
REMARK    3  A    between atoms: O_6  and  C_25
REMARK    4  A    between atoms: C_13  and  C_15
REMARK                            x       y       z     vdW  Elec       q    Type
REMARK                         _______ _______ _______ _____ _____    ______ ____
ROOT
ATOM      1  O   UNL     1     106.383 124.854 146.059  0.00  0.00    +0.000 OA
ATOM      2  O   UNL     1     106.691 127.215 145.381  0.00  0.00    +0.000 OA
ATOM      3  O   UNL     1     106.141 126.941 144.076  0.00  0.00    +0.000 OA
ATOM      4  O   UNL     1     105.473 125.841 142.982  0.00  0.00    +0.000 OA
ATOM      5  O   UNL     1     105.262 124.229 143.445  0.00  0.00    +0.000 OA
ATOM      6  C   UNL     1     106.709 125.396 146.589  0.00  0.00    +0.000 C 
ATOM      7  C   UNL     1     106.812 126.183 146.363  0.00  0.00    +0.000 C 
ATOM      8  C   UNL     1     106.589 126.428 145.607  0.00  0.00    +0.000 C 
ATOM      9  C   UNL     1     106.263 125.885 145.078  0.00  0.00    +0.000 A 
ATOM     10  C   UNL     1     106.160 125.099 145.304  0.00  0.00    +0.000 A 
ATOM     11  C   UNL     1     106.034 126.152 144.293  0.00  0.00    +0.000 A 
ATOM     12  C   UNL     1     105.822 124.525 144.760  0.00  0.00    +0.000 A 
ATOM     13  C   UNL     1     105.695 125.593 143.737  0.00  0.00    +0.000 A 
ATOM     14  C   UNL     1     105.587 124.773 143.972  0.00  0.00    +0.000 A 
ENDROOT
BRANCH   6  16
ATOM     15  O   UNL     1     107.601 124.418 149.612  0.00  0.00    +0.000 OA
ATOM     16  C   UNL     1     106.932 125.152 147.344  0.00  0.00    +0.000 A 
ATOM     17  C   UNL     1     106.360 125.046 147.929  0.00  0.00    +0.000 A 
ATOM     18  C   UNL     1     107.727 125.012 147.515  0.00  0.00    +0.000 A 
ATOM     19  C   UNL     1     106.583 124.802 148.686  0.00  0.00    +0.000 A 
ATOM     20  C   UNL     1     107.950 124.768 148.271  0.00  0.00    +0.000 A 
ATOM     21  C   UNL     1     107.378 124.662 148.856  0.00  0.00    +0.000 A 
BRANCH  19  22
ATOM     22  O   UNL     1     106.011 124.696 149.271  0.00  0.00    +0.000 OA
ATOM     23  C   UNL     1     105.212 124.687 149.068  0.00  0.00    +0.000 C 
ENDBRANCH  19  22
ENDBRANCH   6  16
BRANCH   7  24
ATOM     24  O   UNL     1     107.138 126.725 146.892  0.00  0.00    +0.000 OA
BRANCH  24  25
ATOM     25  S   UNL     1     107.080 127.534 146.742  0.00  0.00    +0.000 S 
ATOM     26  O   UNL     1     107.023 128.343 146.592  0.00  0.00    +0.000 OA
ATOM     27  O   UNL     1     106.315 127.537 147.049  0.00  0.00    +0.000 OA
ATOM     28  O   UNL     1     107.846 127.532 146.435  0.00  0.00    +0.000 OA
ENDBRANCH  24  25
ENDBRANCH   7  24
TORSDOF 4
ENDMDL
MODEL 7
REMARK VINA RESULT:      -8.2      2.263      3.897
REMARK  Name = 131835093
REMARK  4 active torsions:
REMARK  status: ('A' for Active; 'I' for Inactive)
REMARK    1  A    between atoms: S_1  and  O_3
REMARK    2  A    between atoms: O_3  and  C_14
REMARK    3  A    between atoms: O_6  and  C_25
REMARK    4  A    between atoms: C_13  and  C_15
REMARK                            x       y       z     vdW  Elec       q    Type
REMARK                         _______ _______ _______ _____ _____    ______ ____
ROOT
ATOM      1  O   UNL     1     106.508 126.854 146.820  0.00  0.00    +0.000 OA
ATOM      2  O   UNL     1     105.575 125.673 144.855  0.00  0.00    +0.000 OA
ATOM      3  O   UNL     1     105.163 126.922 144.264  0.00  0.00    +0.000 OA
ATOM      4  O   UNL     1     105.068 128.607 144.346  0.00  0.00    +0.000 OA
ATOM      5  O   UNL     1     105.705 129.414 145.687  0.00  0.00    +0.000 OA
ATOM      6  C   UNL     1     106.552 126.031 146.775  0.00  0.00    +0.000 C 
ATOM      7  C   UNL     1     106.241 125.638 146.120  0.00  0.00    +0.000 C 
ATOM      8  C   UNL     1     105.886 126.067 145.510  0.00  0.00    +0.000 C 
ATOM      9  C   UNL     1     105.843 126.889 145.556  0.00  0.00    +0.000 A 
ATOM     10  C   UNL     1     106.154 127.283 146.211  0.00  0.00    +0.000 A 
ATOM     11  C   UNL     1     105.472 127.325 144.915  0.00  0.00    +0.000 A 
ATOM     12  C   UNL     1     106.115 128.140 146.270  0.00  0.00    +0.000 A 
ATOM     13  C   UNL     1     105.423 128.181 144.957  0.00  0.00    +0.000 A 
ATOM     14  C   UNL     1     105.747 128.591 145.639  0.00  0.00    +0.000 A 
ENDROOT
BRANCH   6  16
ATOM     15  O   UNL     1     107.968 124.315 149.212  0.00  0.00    +0.000 OA
ATOM     16  C   UNL     1     106.906 125.603 147.384  0.00  0.00    +0.000 A 
ATOM     17  C   UNL     1     106.457 125.361 148.033  0.00  0.00    +0.000 A 
ATOM     18  C   UNL     1     107.708 125.415 147.344  0.00  0.00    +0.000 A 
ATOM     19  C   UNL     1     106.812 124.932 148.643  0.00  0.00    +0.000 A 
ATOM     20  C   UNL     1     108.062 124.986 147.953  0.00  0.00    +0.000 A 
ATOM     21  C   UNL     1     107.614 124.745 148.602  0.00  0.00    +0.000 A 
BRANCH  19  22
ATOM     22  O   UNL     1     106.363 124.691 149.292  0.00  0.00    +0.000 OA
ATOM     23  C   UNL     1     105.778 125.186 149.595  0.00  0.00    +0.000 C 
ENDBRANCH  19  22
ENDBRANCH   6  16
BRANCH   7  24
ATOM     24  O   UNL     1     106.284 124.815 146.074  0.00  0.00    +0.000 OA
BRANCH  24  25
ATOM     25  S   UNL     1     105.825 124.408 145.523  0.00  0.00    +0.000 S 
ATOM     26  O   UNL     1     105.365 124.000 144.972  0.00  0.00    +0.000 OA
ATOM     27  O   UNL     1     105.182 124.434 146.040  0.00  0.00    +0.000 OA
ATOM     28  O   UNL     1     106.467 124.382 145.006  0.00  0.00    +0.000 OA
ENDBRANCH  24  25
ENDBRANCH   7  24
TORSDOF 4
ENDMDL
MODEL 8
REMARK VINA RESULT:      -8.0     12.362     13.326
REMARK  Name = 131835093
REMARK  4 active torsions:
REMARK  status: ('A' for Active; 'I' for Inactive)
REMARK    1  A    between atoms: S_1  and  O_3
REMARK    2  A    between atoms: O_3  and  C_14
REMARK    3  A    between atoms: O_6  and  C_25
REMARK    4  A    between atoms: C_13  and  C_15
REMARK                            x       y       z     vdW  Elec       q    Type
REMARK                         _______ _______ _______ _____ _____    ______ ____
ROOT
ATOM      1  O   UNL     1     113.854 126.987 136.728  0.00  0.00    +0.000 OA
ATOM      2  O   UNL     1     111.643 126.155 135.991  0.00  0.00    +0.000 OA
ATOM      3  O   UNL     1     112.008 124.802 136.330  0.00  0.00    +0.000 OA
ATOM      4  O   UNL     1     113.149 123.712 136.933  0.00  0.00    +0.000 OA
ATOM      5  O   UNL     1     114.659 124.280 137.436  0.00  0.00    +0.000 OA
ATOM      6  C   UNL     1     113.293 127.515 136.433  0.00  0.00    +0.000 C 
ATOM      7  C   UNL     1     112.556 127.238 136.187  0.00  0.00    +0.000 C 
ATOM      8  C   UNL     1     112.380 126.433 136.237  0.00  0.00    +0.000 C 
ATOM      9  C   UNL     1     112.942 125.906 136.532  0.00  0.00    +0.000 A 
ATOM     10  C   UNL     1     113.679 126.183 136.778  0.00  0.00    +0.000 A 
ATOM     11  C   UNL     1     112.748 125.070 136.578  0.00  0.00    +0.000 A 
ATOM     12  C   UNL     1     114.273 125.644 137.087  0.00  0.00    +0.000 A 
ATOM     13  C   UNL     1     113.328 124.516 136.885  0.00  0.00    +0.000 A 
ATOM     14  C   UNL     1     114.096 124.805 137.141  0.00  0.00    +0.000 A 
ENDROOT
BRANCH   6  16
ATOM     15  O   UNL     1     113.994 130.734 136.237  0.00  0.00    +0.000 OA
ATOM     16  C   UNL     1     113.468 128.319 136.384  0.00  0.00    +0.000 A 
ATOM     17  C   UNL     1     113.339 128.810 137.034  0.00  0.00    +0.000 A 
ATOM     18  C   UNL     1     113.772 128.634 135.684  0.00  0.00    +0.000 A 
ATOM     19  C   UNL     1     113.514 129.616 136.985  0.00  0.00    +0.000 A 
ATOM     20  C   UNL     1     113.948 129.438 135.635  0.00  0.00    +0.000 A 
ATOM     21  C   UNL     1     113.818 129.929 136.286  0.00  0.00    +0.000 A 
BRANCH  19  22
ATOM     22  O   UNL     1     113.385 130.106 137.636  0.00  0.00    +0.000 OA
ATOM     23  C   UNL     1     113.507 129.819 138.399  0.00  0.00    +0.000 C 
ENDBRANCH  19  22
ENDBRANCH   6  16
BRANCH   7  24
ATOM     24  O   UNL     1     111.994 127.765 135.892  0.00  0.00    +0.000 OA
BRANCH  24  25
ATOM     25  S   UNL     1     111.201 127.541 135.848  0.00  0.00    +0.000 S 
ATOM     26  O   UNL     1     110.408 127.317 135.804  0.00  0.00    +0.000 OA
ATOM     27  O   UNL     1     111.114 127.689 136.655  0.00  0.00    +0.000 OA
ATOM     28  O   UNL     1     111.288 127.393 135.041  0.00  0.00    +0.000 OA
ENDBRANCH  24  25
ENDBRANCH   7  24
TORSDOF 4
ENDMDL
MODEL 9
REMARK VINA RESULT:      -7.9      9.966     11.600
REMARK  Name = 131835093
REMARK  4 active torsions:
REMARK  status: ('A' for Active; 'I' for Inactive)
REMARK    1  A    between atoms: S_1  and  O_3
REMARK    2  A    between atoms: O_3  and  C_14
REMARK    3  A    between atoms: O_6  and  C_25
REMARK    4  A    between atoms: C_13  and  C_15
REMARK                            x       y       z     vdW  Elec       q    Type
REMARK                         _______ _______ _______ _____ _____    ______ ____
ROOT
ATOM      1  O   UNL     1     113.739 126.310 138.627  0.00  0.00    +0.000 OA
ATOM      2  O   UNL     1     111.549 125.278 138.117  0.00  0.00    +0.000 OA
ATOM      3  O   UNL     1     112.138 124.473 137.075  0.00  0.00    +0.000 OA
ATOM      4  O   UNL     1     113.502 124.013 136.191  0.00  0.00    +0.000 OA
ATOM      5  O   UNL     1     114.998 124.717 136.539  0.00  0.00    +0.000 OA
ATOM      6  C   UNL     1     113.070 126.531 139.056  0.00  0.00    +0.000 C 
ATOM      7  C   UNL     1     112.340 126.187 138.886  0.00  0.00    +0.000 C 
ATOM      8  C   UNL     1     112.279 125.622 138.287  0.00  0.00    +0.000 C 
ATOM      9  C   UNL     1     112.949 125.401 137.859  0.00  0.00    +0.000 A 
ATOM     10  C   UNL     1     113.679 125.745 138.030  0.00  0.00    +0.000 A 
ATOM     11  C   UNL     1     112.873 124.812 137.238  0.00  0.00    +0.000 A 
ATOM     12  C   UNL     1     114.384 125.524 137.590  0.00  0.00    +0.000 A 
ATOM     13  C   UNL     1     113.567 124.578 136.789  0.00  0.00    +0.000 A 
ATOM     14  C   UNL     1     114.327 124.936 136.966  0.00  0.00    +0.000 A 
ENDROOT
BRANCH   6  16
ATOM     15  O   UNL     1     113.312 128.790 141.450  0.00  0.00    +0.000 OA
ATOM     16  C   UNL     1     113.130 127.095 139.654  0.00  0.00    +0.000 A 
ATOM     17  C   UNL     1     113.084 127.898 139.470  0.00  0.00    +0.000 A 
ATOM     18  C   UNL     1     113.238 126.858 140.437  0.00  0.00    +0.000 A 
ATOM     19  C   UNL     1     113.144 128.463 140.069  0.00  0.00    +0.000 A 
ATOM     20  C   UNL     1     113.298 127.422 141.035  0.00  0.00    +0.000 A 
ATOM     21  C   UNL     1     113.251 128.225 140.851  0.00  0.00    +0.000 A 
BRANCH  19  22
ATOM     22  O   UNL     1     113.097 129.266 139.884  0.00  0.00    +0.000 OA
ATOM     23  C   UNL     1     113.425 129.547 139.182  0.00  0.00    +0.000 C 
ENDBRANCH  19  22
ENDBRANCH   6  16
BRANCH   7  24
ATOM     24  O   UNL     1     111.670 126.407 139.314  0.00  0.00    +0.000 OA
BRANCH  24  25
ATOM     25  S   UNL     1     110.918 126.224 139.028  0.00  0.00    +0.000 S 
ATOM     26  O   UNL     1     110.166 126.041 138.741  0.00  0.00    +0.000 OA
ATOM     27  O   UNL     1     110.881 125.577 139.538  0.00  0.00    +0.000 OA
ATOM     28  O   UNL     1     110.955 126.871 138.517  0.00  0.00    +0.000 OA
ENDBRANCH  24  25
ENDBRANCH   7  24
TORSDOF 4
ENDMDL
MODEL 10
REMARK VINA RESULT:      -7.9     11.589     12.956
REMARK  Name = 131835093
REMARK  4 active torsions:
REMARK  status: ('A' for Active; 'I' for Inactive)
REMARK    1  A    between atoms: S_1  and  O_3
REMARK    2  A    between atoms: O_3  and  C_14
REMARK    3  A    between atoms: O_6  and  C_25
REMARK    4  A    between atoms: C_13  and  C_15
REMARK                            x       y       z     vdW  Elec       q    Type
REMARK                         _______ _______ _______ _____ _____    ______ ____
ROOT
ATOM      1  O   UNL     1     113.519 127.337 136.171  0.00  0.00    +0.000 OA
ATOM      2  O   UNL     1     113.050 128.530 138.288  0.00  0.00    +0.000 OA
ATOM      3  O   UNL     1     113.347 129.799 137.672  0.00  0.00    +0.000 OA
ATOM      4  O   UNL     1     113.814 130.678 136.306  0.00  0.00    +0.000 OA
ATOM      5  O   UNL     1     114.134 129.864 134.860  0.00  0.00    +0.000 OA
ATOM      6  C   UNL     1     113.291 126.913 136.841  0.00  0.00    +0.000 C 
ATOM      7  C   UNL     1     113.134 127.310 137.547  0.00  0.00    +0.000 C 
ATOM      8  C   UNL     1     113.206 128.132 137.582  0.00  0.00    +0.000 C 
ATOM      9  C   UNL     1     113.435 128.555 136.912  0.00  0.00    +0.000 A 
ATOM     10  C   UNL     1     113.591 128.157 136.206  0.00  0.00    +0.000 A 
ATOM     11  C   UNL     1     113.506 129.410 136.961  0.00  0.00    +0.000 A 
ATOM     12  C   UNL     1     113.830 128.588 135.501  0.00  0.00    +0.000 A 
ATOM     13  C   UNL     1     113.743 129.857 136.267  0.00  0.00    +0.000 A 
ATOM     14  C   UNL     1     113.906 129.443 135.532  0.00  0.00    +0.000 A 
ENDROOT
BRANCH   6  16
ATOM     15  O   UNL     1     113.003 123.628 136.699  0.00  0.00    +0.000 OA
ATOM     16  C   UNL     1     113.219 126.092 136.806  0.00  0.00    +0.000 A 
ATOM     17  C   UNL     1     112.511 125.751 136.554  0.00  0.00    +0.000 A 
ATOM     18  C   UNL     1     113.855 125.612 137.021  0.00  0.00    +0.000 A 
ATOM     19  C   UNL     1     112.439 124.929 136.519  0.00  0.00    +0.000 A 
ATOM     20  C   UNL     1     113.783 124.792 136.986  0.00  0.00    +0.000 A 
ATOM     21  C   UNL     1     113.075 124.450 136.735  0.00  0.00    +0.000 A 
BRANCH  19  22
ATOM     22  O   UNL     1     111.732 124.587 136.267  0.00  0.00    +0.000 OA
ATOM     23  C   UNL     1     111.178 125.041 135.858  0.00  0.00    +0.000 C 
ENDBRANCH  19  22
ENDBRANCH   6  16
BRANCH   7  24
ATOM     24  O   UNL     1     112.906 126.888 138.217  0.00  0.00    +0.000 OA
BRANCH  24  25
ATOM     25  S   UNL     1     112.601 127.285 138.872  0.00  0.00    +0.000 S 
ATOM     26  O   UNL     1     112.296 127.683 139.528  0.00  0.00    +0.000 OA
ATOM     27  O   UNL     1     111.859 127.307 138.514  0.00  0.00    +0.000 OA
ATOM     28  O   UNL     1     113.344 127.264 139.231  0.00  0.00    +0.000 OA
ENDBRANCH  24  25
ENDBRANCH   7  24
TORSDOF 4
ENDMDL
