MODEL 1
REMARK VINA RESULT:      -9.5      0.000      0.000
REMARK  Name = 74977556
REMARK  8 active torsions:
REMARK  status: ('A' for Active; 'I' for Inactive)
REMARK    1  A    between atoms: O_3  and  C_19
REMARK    2  A    between atoms: O_3  and  C_23
REMARK    3  A    between atoms: O_8  and  C_24
REMARK    4  A    between atoms: O_8  and  C_26
REMARK    5  A    between atoms: O_14  and  C_40
REMARK    6  A    between atoms: C_15  and  C_25
REMARK    7  A    between atoms: C_16  and  C_23
REMARK    8  A    between atoms: C_33  and  C_35
REMARK                            x       y       z     vdW  Elec       q    Type
REMARK                         _______ _______ _______ _____ _____    ______ ____
ROOT
ATOM      1  O   UNL     1     112.671 126.535 137.776  0.00  0.00    +0.000 OA
ENDROOT
BRANCH   1   5
ATOM      2  O   UNL     1     111.364 128.643 136.251  0.00  0.00    +0.000 OA
ATOM      3  O   UNL     1     114.200 128.193 135.922  0.00  0.00    +0.000 OA
ATOM      4  O   UNL     1     113.519 129.229 135.182  0.00  0.00    +0.000 OA
ATOM      5  C   UNL     1     112.708 127.148 137.226  0.00  0.00    +0.000 A 
ATOM      6  C   UNL     1     111.999 127.588 137.020  0.00  0.00    +0.000 A 
ATOM      7  C   UNL     1     113.457 127.351 136.855  0.00  0.00    +0.000 A 
ATOM      8  C   UNL     1     112.048 128.225 136.445  0.00  0.00    +0.000 A 
ATOM      9  C   UNL     1     113.486 127.991 136.283  0.00  0.00    +0.000 A 
ATOM     10  C   UNL     1     112.766 128.420 136.089  0.00  0.00    +0.000 A 
ATOM     11  C   UNL     1     112.801 129.034 135.538  0.00  0.00    +0.000 A 
ATOM     12  C   UNL     1     111.398 129.257 135.700  0.00  0.00    +0.000 A 
ATOM     13  C   UNL     1     112.117 129.452 135.344  0.00  0.00    +0.000 A 
BRANCH  12  14
ATOM     14  C   UNL     1     110.715 129.676 135.506  0.00  0.00    +0.000 A 
ATOM     15  C   UNL     1     110.245 129.429 134.874  0.00  0.00    +0.000 A 
ATOM     16  C   UNL     1     110.501 130.342 135.943  0.00  0.00    +0.000 A 
ATOM     17  C   UNL     1     109.561 129.847 134.680  0.00  0.00    +0.000 A 
ATOM     18  C   UNL     1     109.817 130.761 135.749  0.00  0.00    +0.000 A 
ATOM     19  C   UNL     1     109.348 130.514 135.118  0.00  0.00    +0.000 A 
BRANCH  19  20
ATOM     20  O   UNL     1     108.664 130.932 134.923  0.00  0.00    +0.000 OA
ATOM     21  C   UNL     1     108.721 131.694 134.612  0.00  0.00    +0.000 C 
ENDBRANCH  19  20
ENDBRANCH  12  14
ENDBRANCH   1   5
BRANCH   1  30
ATOM     22  O   UNL     1     113.016 127.280 138.946  0.00  0.00    +0.000 OA
ATOM     23  O   UNL     1     112.210 127.213 140.973  0.00  0.00    +0.000 OA
ATOM     24  O   UNL     1     111.287 126.063 140.232  0.00  0.00    +0.000 OA
ATOM     25  O   UNL     1     111.518 125.724 138.634  0.00  0.00    +0.000 OA
ATOM     26  C   UNL     1     112.901 127.449 139.746  0.00  0.00    +0.000 C 
ATOM     27  C   UNL     1     112.325 127.044 140.175  0.00  0.00    +0.000 C 
ATOM     28  C   UNL     1     111.864 126.468 139.804  0.00  0.00    +0.000 C 
ATOM     29  C   UNL     1     111.978 126.298 139.004  0.00  0.00    +0.000 C 
ATOM     30  C   UNL     1     112.555 126.704 138.576  0.00  0.00    +0.000 C 
BRANCH  26  31
ATOM     31  C   UNL     1     113.362 128.024 140.116  0.00  0.00    +0.000 C 
BRANCH  31  32
ATOM     32  O   UNL     1     113.444 128.770 139.772  0.00  0.00    +0.000 OA
BRANCH  32  38
ATOM     33  O   UNL     1     114.574 129.142 140.636  0.00  0.00    +0.000 OA
ATOM     34  O   UNL     1     114.500 131.177 139.991  0.00  0.00    +0.000 OA
ATOM     35  O   UNL     1     113.548 130.514 139.362  0.00  0.00    +0.000 OA
ATOM     36  C   UNL     1     114.651 130.439 140.331  0.00  0.00    +0.000 C 
ATOM     37  C   UNL     1     114.033 130.111 139.894  0.00  0.00    +0.000 C 
ATOM     38  C   UNL     1     113.986 129.310 140.083  0.00  0.00    +0.000 C 
ATOM     39  C   UNL     1     114.986 129.841 140.790  0.00  0.00    +0.000 C 
BRANCH  36  41
ATOM     40  O   UNL     1     114.931 131.707 140.930  0.00  0.00    +0.000 OA
ATOM     41  C   UNL     1     115.192 130.979 140.642  0.00  0.00    +0.000 C 
ENDBRANCH  36  41
ENDBRANCH  32  38
ENDBRANCH  31  32
ENDBRANCH  26  31
ENDBRANCH   1  30
TORSDOF 8
ENDMDL
MODEL 2
REMARK VINA RESULT:      -9.5      2.152      4.706
REMARK  Name = 74977556
REMARK  8 active torsions:
REMARK  status: ('A' for Active; 'I' for Inactive)
REMARK    1  A    between atoms: O_3  and  C_19
REMARK    2  A    between atoms: O_3  and  C_23
REMARK    3  A    between atoms: O_8  and  C_24
REMARK    4  A    between atoms: O_8  and  C_26
REMARK    5  A    between atoms: O_14  and  C_40
REMARK    6  A    between atoms: C_15  and  C_25
REMARK    7  A    between atoms: C_16  and  C_23
REMARK    8  A    between atoms: C_33  and  C_35
REMARK                            x       y       z     vdW  Elec       q    Type
REMARK                         _______ _______ _______ _____ _____    ______ ____
ROOT
ATOM      1  O   UNL     1     110.442 130.373 135.716  0.00  0.00    +0.000 OA
ENDROOT
BRANCH   1   5
ATOM      2  O   UNL     1     110.518 127.483 136.071  0.00  0.00    +0.000 OA
ATOM      3  O   UNL     1     107.970 128.821 135.809  0.00  0.00    +0.000 OA
ATOM      4  O   UNL     1     108.046 127.391 135.986  0.00  0.00    +0.000 OA
ATOM      5  C   UNL     1     110.051 129.650 135.789  0.00  0.00    +0.000 A 
ATOM      6  C   UNL     1     110.499 128.925 135.895  0.00  0.00    +0.000 A 
ATOM      7  C   UNL     1     109.192 129.619 135.759  0.00  0.00    +0.000 A 
ATOM      8  C   UNL     1     110.083 128.177 135.969  0.00  0.00    +0.000 A 
ATOM      9  C   UNL     1     108.794 128.862 135.836  0.00  0.00    +0.000 A 
ATOM     10  C   UNL     1     109.258 128.146 135.941  0.00  0.00    +0.000 A 
ATOM     11  C   UNL     1     108.870 127.422 136.014  0.00  0.00    +0.000 A 
ATOM     12  C   UNL     1     110.129 126.759 136.144  0.00  0.00    +0.000 A 
ATOM     13  C   UNL     1     109.305 126.729 136.116  0.00  0.00    +0.000 A 
BRANCH  12  14
ATOM     14  C   UNL     1     110.565 126.066 136.245  0.00  0.00    +0.000 A 
ATOM     15  C   UNL     1     110.793 125.829 137.002  0.00  0.00    +0.000 A 
ATOM     16  C   UNL     1     110.772 125.609 135.590  0.00  0.00    +0.000 A 
ATOM     17  C   UNL     1     111.228 125.135 137.103  0.00  0.00    +0.000 A 
ATOM     18  C   UNL     1     111.207 124.916 135.691  0.00  0.00    +0.000 A 
ATOM     19  C   UNL     1     111.435 124.679 136.447  0.00  0.00    +0.000 A 
BRANCH  19  20
ATOM     20  O   UNL     1     111.870 123.985 136.549  0.00  0.00    +0.000 OA
ATOM     21  C   UNL     1     112.688 124.023 136.651  0.00  0.00    +0.000 C 
ENDBRANCH  19  20
ENDBRANCH  12  14
ENDBRANCH   1   5
BRANCH   1  30
ATOM     22  O   UNL     1     110.892 130.616 137.050  0.00  0.00    +0.000 OA
ATOM     23  O   UNL     1     110.704 132.379 138.323  0.00  0.00    +0.000 OA
ATOM     24  O   UNL     1     109.934 132.896 136.958  0.00  0.00    +0.000 OA
ATOM     25  O   UNL     1     109.803 131.893 135.655  0.00  0.00    +0.000 OA
ATOM     26  C   UNL     1     110.958 131.118 137.702  0.00  0.00    +0.000 C 
ATOM     27  C   UNL     1     110.638 131.878 137.672  0.00  0.00    +0.000 C 
ATOM     28  C   UNL     1     110.253 132.136 136.989  0.00  0.00    +0.000 C 
ATOM     29  C   UNL     1     110.188 131.635 136.337  0.00  0.00    +0.000 C 
ATOM     30  C   UNL     1     110.507 130.875 136.367  0.00  0.00    +0.000 C 
BRANCH  26  31
ATOM     31  C   UNL     1     111.343 130.859 138.384  0.00  0.00    +0.000 C 
BRANCH  31  32
ATOM     32  O   UNL     1     112.103 130.542 138.332  0.00  0.00    +0.000 OA
BRANCH  32  38
ATOM     33  O   UNL     1     112.089 129.933 139.671  0.00  0.00    +0.000 OA
ATOM     34  O   UNL     1     114.222 129.917 139.773  0.00  0.00    +0.000 OA
ATOM     35  O   UNL     1     113.873 130.440 138.613  0.00  0.00    +0.000 OA
ATOM     36  C   UNL     1     113.405 129.858 139.879  0.00  0.00    +0.000 C 
ATOM     37  C   UNL     1     113.284 130.194 139.136  0.00  0.00    +0.000 C 
ATOM     38  C   UNL     1     112.470 130.240 139.007  0.00  0.00    +0.000 C 
ATOM     39  C   UNL     1     112.667 129.696 140.210  0.00  0.00    +0.000 C 
BRANCH  36  41
ATOM     40  O   UNL     1     114.595 129.499 140.585  0.00  0.00    +0.000 OA
ATOM     41  C   UNL     1     113.773 129.556 140.554  0.00  0.00    +0.000 C 
ENDBRANCH  36  41
ENDBRANCH  32  38
ENDBRANCH  31  32
ENDBRANCH  26  31
ENDBRANCH   1  30
TORSDOF 8
ENDMDL
MODEL 3
REMARK VINA RESULT:      -9.4      3.112      5.269
REMARK  Name = 74977556
REMARK  8 active torsions:
REMARK  status: ('A' for Active; 'I' for Inactive)
REMARK    1  A    between atoms: O_3  and  C_19
REMARK    2  A    between atoms: O_3  and  C_23
REMARK    3  A    between atoms: O_8  and  C_24
REMARK    4  A    between atoms: O_8  and  C_26
REMARK    5  A    between atoms: O_14  and  C_40
REMARK    6  A    between atoms: C_15  and  C_25
REMARK    7  A    between atoms: C_16  and  C_23
REMARK    8  A    between atoms: C_33  and  C_35
REMARK                            x       y       z     vdW  Elec       q    Type
REMARK                         _______ _______ _______ _____ _____    ______ ____
ROOT
ATOM      1  O   UNL     1     110.649 130.114 136.118  0.00  0.00    +0.000 OA
ENDROOT
BRANCH   1   5
ATOM      2  O   UNL     1     110.680 127.207 136.291  0.00  0.00    +0.000 OA
ATOM      3  O   UNL     1     108.174 128.583 135.870  0.00  0.00    +0.000 OA
ATOM      4  O   UNL     1     108.228 127.144 135.961  0.00  0.00    +0.000 OA
ATOM      5  C   UNL     1     110.250 129.392 136.105  0.00  0.00    +0.000 A 
ATOM      6  C   UNL     1     110.683 128.657 136.207  0.00  0.00    +0.000 A 
ATOM      7  C   UNL     1     109.398 129.371 135.991  0.00  0.00    +0.000 A 
ATOM      8  C   UNL     1     110.259 127.910 136.193  0.00  0.00    +0.000 A 
ATOM      9  C   UNL     1     108.992 128.614 135.979  0.00  0.00    +0.000 A 
ATOM     10  C   UNL     1     109.442 127.888 136.083  0.00  0.00    +0.000 A 
ATOM     11  C   UNL     1     109.045 127.165 136.071  0.00  0.00    +0.000 A 
ATOM     12  C   UNL     1     110.284 126.484 136.279  0.00  0.00    +0.000 A 
ATOM     13  C   UNL     1     109.467 126.463 136.169  0.00  0.00    +0.000 A 
BRANCH  12  14
ATOM     14  C   UNL     1     110.705 125.781 136.378  0.00  0.00    +0.000 A 
ATOM     15  C   UNL     1     110.894 125.516 137.136  0.00  0.00    +0.000 A 
ATOM     16  C   UNL     1     110.936 125.343 135.718  0.00  0.00    +0.000 A 
ATOM     17  C   UNL     1     111.315 124.813 137.234  0.00  0.00    +0.000 A 
ATOM     18  C   UNL     1     111.357 124.641 135.815  0.00  0.00    +0.000 A 
ATOM     19  C   UNL     1     111.546 124.376 136.573  0.00  0.00    +0.000 A 
BRANCH  19  20
ATOM     20  O   UNL     1     111.967 123.673 136.672  0.00  0.00    +0.000 OA
ATOM     21  C   UNL     1     112.778 123.695 136.824  0.00  0.00    +0.000 C 
ENDBRANCH  19  20
ENDBRANCH  12  14
ENDBRANCH   1   5
BRANCH   1  30
ATOM     22  O   UNL     1     110.609 130.337 137.529  0.00  0.00    +0.000 OA
ATOM     23  O   UNL     1     112.113 131.144 138.890  0.00  0.00    +0.000 OA
ATOM     24  O   UNL     1     112.924 131.212 137.455  0.00  0.00    +0.000 OA
ATOM     25  O   UNL     1     112.192 130.697 136.068  0.00  0.00    +0.000 OA
ATOM     26  C   UNL     1     110.976 130.595 138.222  0.00  0.00    +0.000 C 
ATOM     27  C   UNL     1     111.747 130.886 138.198  0.00  0.00    +0.000 C 
ATOM     28  C   UNL     1     112.152 130.920 137.479  0.00  0.00    +0.000 C 
ATOM     29  C   UNL     1     111.787 130.663 136.786  0.00  0.00    +0.000 C 
ATOM     30  C   UNL     1     111.015 130.371 136.810  0.00  0.00    +0.000 C 
BRANCH  26  31
ATOM     31  C   UNL     1     110.570 130.561 138.940  0.00  0.00    +0.000 C 
BRANCH  31  32
ATOM     32  O   UNL     1     109.774 130.773 138.972  0.00  0.00    +0.000 OA
BRANCH  32  38
ATOM     33  O   UNL     1     109.549 130.061 140.239  0.00  0.00    +0.000 OA
ATOM     34  O   UNL     1     107.589 130.884 140.446  0.00  0.00    +0.000 OA
ATOM     35  O   UNL     1     108.113 131.353 139.329  0.00  0.00    +0.000 OA
ATOM     36  C   UNL     1     108.314 130.493 140.504  0.00  0.00    +0.000 C 
ATOM     37  C   UNL     1     108.556 130.835 139.794  0.00  0.00    +0.000 C 
ATOM     38  C   UNL     1     109.319 130.568 139.630  0.00  0.00    +0.000 C 
ATOM     39  C   UNL     1     108.927 130.014 140.780  0.00  0.00    +0.000 C 
BRANCH  36  41
ATOM     40  O   UNL     1     107.102 129.977 141.061  0.00  0.00    +0.000 OA
ATOM     41  C   UNL     1     107.860 130.288 141.163  0.00  0.00    +0.000 C 
ENDBRANCH  36  41
ENDBRANCH  32  38
ENDBRANCH  31  32
ENDBRANCH  26  31
ENDBRANCH   1  30
TORSDOF 8
ENDMDL
MODEL 4
REMARK VINA RESULT:      -9.4      9.197     11.540
REMARK  Name = 74977556
REMARK  8 active torsions:
REMARK  status: ('A' for Active; 'I' for Inactive)
REMARK    1  A    between atoms: O_3  and  C_19
REMARK    2  A    between atoms: O_3  and  C_23
REMARK    3  A    between atoms: O_8  and  C_24
REMARK    4  A    between atoms: O_8  and  C_26
REMARK    5  A    between atoms: O_14  and  C_40
REMARK    6  A    between atoms: C_15  and  C_25
REMARK    7  A    between atoms: C_16  and  C_23
REMARK    8  A    between atoms: C_33  and  C_35
REMARK                            x       y       z     vdW  Elec       q    Type
REMARK                         _______ _______ _______ _____ _____    ______ ____
ROOT
ATOM      1  O   UNL     1     107.112 125.994 146.066  0.00  0.00    +0.000 OA
ENDROOT
BRANCH   1   5
ATOM      2  O   UNL     1     105.671 127.633 144.138  0.00  0.00    +0.000 OA
ATOM      3  O   UNL     1     106.432 128.766 146.686  0.00  0.00    +0.000 OA
ATOM      4  O   UNL     1     105.718 129.548 145.707  0.00  0.00    +0.000 OA
ATOM      5  C   UNL     1     106.767 126.713 145.854  0.00  0.00    +0.000 A 
ATOM      6  C   UNL     1     106.389 126.801 145.087  0.00  0.00    +0.000 A 
ATOM      7  C   UNL     1     106.784 127.377 146.399  0.00  0.00    +0.000 A 
ATOM      8  C   UNL     1     106.032 127.554 144.876  0.00  0.00    +0.000 A 
ATOM      9  C   UNL     1     106.422 128.122 146.170  0.00  0.00    +0.000 A 
ATOM     10  C   UNL     1     106.048 128.193 145.398  0.00  0.00    +0.000 A 
ATOM     11  C   UNL     1     105.702 128.910 145.184  0.00  0.00    +0.000 A 
ATOM     12  C   UNL     1     105.325 128.351 143.924  0.00  0.00    +0.000 A 
ATOM     13  C   UNL     1     105.341 128.989 144.447  0.00  0.00    +0.000 A 
BRANCH  12  14
ATOM     14  C   UNL     1     104.963 128.431 143.187  0.00  0.00    +0.000 A 
ATOM     15  C   UNL     1     104.398 129.020 143.066  0.00  0.00    +0.000 A 
ATOM     16  C   UNL     1     105.166 127.921 142.570  0.00  0.00    +0.000 A 
ATOM     17  C   UNL     1     104.037 129.100 142.328  0.00  0.00    +0.000 A 
ATOM     18  C   UNL     1     104.805 128.000 141.833  0.00  0.00    +0.000 A 
ATOM     19  C   UNL     1     104.240 128.590 141.712  0.00  0.00    +0.000 A 
BRANCH  19  20
ATOM     20  O   UNL     1     103.879 128.669 140.975  0.00  0.00    +0.000 OA
ATOM     21  C   UNL     1     103.232 129.173 140.885  0.00  0.00    +0.000 C 
ENDBRANCH  19  20
ENDBRANCH  12  14
ENDBRANCH   1   5
BRANCH   1  30
ATOM     22  O   UNL     1     106.000 125.389 146.728  0.00  0.00    +0.000 OA
ATOM     23  O   UNL     1     105.889 124.257 148.591  0.00  0.00    +0.000 OA
ATOM     24  O   UNL     1     107.502 124.599 148.529  0.00  0.00    +0.000 OA
ATOM     25  O   UNL     1     108.114 125.468 147.267  0.00  0.00    +0.000 OA
ATOM     26  C   UNL     1     105.694 124.954 147.360  0.00  0.00    +0.000 C 
ATOM     27  C   UNL     1     106.195 124.691 147.960  0.00  0.00    +0.000 C 
ATOM     28  C   UNL     1     107.001 124.862 147.929  0.00  0.00    +0.000 C 
ATOM     29  C   UNL     1     107.308 125.297 147.298  0.00  0.00    +0.000 C 
ATOM     30  C   UNL     1     106.807 125.560 146.697  0.00  0.00    +0.000 C 
BRANCH  26  31
ATOM     31  C   UNL     1     104.888 124.783 147.390  0.00  0.00    +0.000 C 
BRANCH  31  32
ATOM     32  O   UNL     1     104.488 124.563 146.703  0.00  0.00    +0.000 OA
BRANCH  32  38
ATOM     33  O   UNL     1     103.152 124.695 147.303  0.00  0.00    +0.000 OA
ATOM     34  O   UNL     1     102.255 123.522 145.761  0.00  0.00    +0.000 OA
ATOM     35  O   UNL     1     103.547 123.608 145.509  0.00  0.00    +0.000 OA
ATOM     36  C   UNL     1     102.453 123.985 146.415  0.00  0.00    +0.000 C 
ATOM     37  C   UNL     1     103.243 123.983 146.178  0.00  0.00    +0.000 C 
ATOM     38  C   UNL     1     103.675 124.422 146.727  0.00  0.00    +0.000 C 
ATOM     39  C   UNL     1     102.396 124.425 147.111  0.00  0.00    +0.000 C 
BRANCH  36  41
ATOM     40  O   UNL     1     101.176 123.991 145.773  0.00  0.00    +0.000 OA
ATOM     41  C   UNL     1     101.640 123.843 146.439  0.00  0.00    +0.000 C 
ENDBRANCH  36  41
ENDBRANCH  32  38
ENDBRANCH  31  32
ENDBRANCH  26  31
ENDBRANCH   1  30
TORSDOF 8
ENDMDL
MODEL 5
REMARK VINA RESULT:      -9.4      7.392      9.298
REMARK  Name = 74977556
REMARK  8 active torsions:
REMARK  status: ('A' for Active; 'I' for Inactive)
REMARK    1  A    between atoms: O_3  and  C_19
REMARK    2  A    between atoms: O_3  and  C_23
REMARK    3  A    between atoms: O_8  and  C_24
REMARK    4  A    between atoms: O_8  and  C_26
REMARK    5  A    between atoms: O_14  and  C_40
REMARK    6  A    between atoms: C_15  and  C_25
REMARK    7  A    between atoms: C_16  and  C_23
REMARK    8  A    between atoms: C_33  and  C_35
REMARK                            x       y       z     vdW  Elec       q    Type
REMARK                         _______ _______ _______ _____ _____    ______ ____
ROOT
ATOM      1  O   UNL     1     106.060 125.712 143.603  0.00  0.00    +0.000 OA
ENDROOT
BRANCH   1   5
ATOM      2  O   UNL     1     105.293 124.882 140.919  0.00  0.00    +0.000 OA
ATOM      3  O   UNL     1     107.985 125.811 141.409  0.00  0.00    +0.000 OA
ATOM      4  O   UNL     1     107.570 125.392 140.093  0.00  0.00    +0.000 OA
ATOM      5  C   UNL     1     106.250 125.593 142.809  0.00  0.00    +0.000 A 
ATOM      6  C   UNL     1     105.658 125.292 142.263  0.00  0.00    +0.000 A 
ATOM      7  C   UNL     1     107.040 125.771 142.522  0.00  0.00    +0.000 A 
ATOM      8  C   UNL     1     105.865 125.171 141.438  0.00  0.00    +0.000 A 
ATOM      9  C   UNL     1     107.229 125.644 141.694  0.00  0.00    +0.000 A 
ATOM     10  C   UNL     1     106.624 125.341 141.162  0.00  0.00    +0.000 A 
ATOM     11  C   UNL     1     106.811 125.222 140.368  0.00  0.00    +0.000 A 
ATOM     12  C   UNL     1     105.480 124.762 140.124  0.00  0.00    +0.000 A 
ATOM     13  C   UNL     1     106.239 124.932 139.849  0.00  0.00    +0.000 A 
BRANCH  12  14
ATOM     14  C   UNL     1     104.909 124.472 139.605  0.00  0.00    +0.000 A 
ATOM     15  C   UNL     1     104.888 123.668 139.420  0.00  0.00    +0.000 A 
ATOM     16  C   UNL     1     104.357 124.986 139.270  0.00  0.00    +0.000 A 
ATOM     17  C   UNL     1     104.317 123.379 138.901  0.00  0.00    +0.000 A 
ATOM     18  C   UNL     1     103.785 124.697 138.751  0.00  0.00    +0.000 A 
ATOM     19  C   UNL     1     103.765 123.894 138.566  0.00  0.00    +0.000 A 
BRANCH  19  20
ATOM     20  O   UNL     1     103.193 123.604 138.046  0.00  0.00    +0.000 OA
ATOM     21  C   UNL     1     102.400 123.587 138.273  0.00  0.00    +0.000 C 
ENDBRANCH  19  20
ENDBRANCH  12  14
ENDBRANCH   1   5
BRANCH   1  30
ATOM     22  O   UNL     1     105.512 127.028 143.502  0.00  0.00    +0.000 OA
ATOM     23  O   UNL     1     105.751 128.777 144.786  0.00  0.00    +0.000 OA
ATOM     24  O   UNL     1     106.691 127.677 145.580  0.00  0.00    +0.000 OA
ATOM     25  O   UNL     1     106.845 126.144 144.988  0.00  0.00    +0.000 OA
ATOM     26  C   UNL     1     105.435 127.795 143.798  0.00  0.00    +0.000 C 
ATOM     27  C   UNL     1     105.828 128.011 144.491  0.00  0.00    +0.000 C 
ATOM     28  C   UNL     1     106.298 127.461 144.887  0.00  0.00    +0.000 C 
ATOM     29  C   UNL     1     106.375 126.694 144.592  0.00  0.00    +0.000 C 
ATOM     30  C   UNL     1     105.983 126.478 143.899  0.00  0.00    +0.000 C 
BRANCH  26  31
ATOM     31  C   UNL     1     104.965 128.345 143.401  0.00  0.00    +0.000 C 
BRANCH  31  32
ATOM     32  O   UNL     1     104.665 128.165 142.654  0.00  0.00    +0.000 OA
BRANCH  32  38
ATOM     33  O   UNL     1     103.769 129.330 142.622  0.00  0.00    +0.000 OA
ATOM     34  O   UNL     1     103.452 129.130 140.520  0.00  0.00    +0.000 OA
ATOM     35  O   UNL     1     104.271 128.169 140.903  0.00  0.00    +0.000 OA
ATOM     36  C   UNL     1     103.476 129.333 141.320  0.00  0.00    +0.000 C 
ATOM     37  C   UNL     1     103.989 128.703 141.465  0.00  0.00    +0.000 C 
ATOM     38  C   UNL     1     104.170 128.702 142.269  0.00  0.00    +0.000 C 
ATOM     39  C   UNL     1     103.340 129.721 142.036  0.00  0.00    +0.000 C 
BRANCH  36  41
ATOM     40  O   UNL     1     102.291 129.604 140.568  0.00  0.00    +0.000 OA
ATOM     41  C   UNL     1     102.980 129.870 140.936  0.00  0.00    +0.000 C 
ENDBRANCH  36  41
ENDBRANCH  32  38
ENDBRANCH  31  32
ENDBRANCH  26  31
ENDBRANCH   1  30
TORSDOF 8
ENDMDL
MODEL 6
REMARK VINA RESULT:      -9.3      1.808      5.475
REMARK  Name = 74977556
REMARK  8 active torsions:
REMARK  status: ('A' for Active; 'I' for Inactive)
REMARK    1  A    between atoms: O_3  and  C_19
REMARK    2  A    between atoms: O_3  and  C_23
REMARK    3  A    between atoms: O_8  and  C_24
REMARK    4  A    between atoms: O_8  and  C_26
REMARK    5  A    between atoms: O_14  and  C_40
REMARK    6  A    between atoms: C_15  and  C_25
REMARK    7  A    between atoms: C_16  and  C_23
REMARK    8  A    between atoms: C_33  and  C_35
REMARK                            x       y       z     vdW  Elec       q    Type
REMARK                         _______ _______ _______ _____ _____    ______ ____
ROOT
ATOM      1  O   UNL     1     110.530 129.571 135.224  0.00  0.00    +0.000 OA
ENDROOT
BRANCH   1   5
ATOM      2  O   UNL     1     112.597 129.751 137.267  0.00  0.00    +0.000 OA
ATOM      3  O   UNL     1     113.291 128.845 134.612  0.00  0.00    +0.000 OA
ATOM      4  O   UNL     1     114.289 128.946 135.649  0.00  0.00    +0.000 OA
ATOM      5  C   UNL     1     111.316 129.482 135.456  0.00  0.00    +0.000 A 
ATOM      6  C   UNL     1     111.553 129.667 136.261  0.00  0.00    +0.000 A 
ATOM      7  C   UNL     1     111.903 129.202 134.893  0.00  0.00    +0.000 A 
ATOM      8  C   UNL     1     112.374 129.571 136.493  0.00  0.00    +0.000 A 
ATOM      9  C   UNL     1     112.720 129.112 135.144  0.00  0.00    +0.000 A 
ATOM     10  C   UNL     1     112.939 129.303 135.954  0.00  0.00    +0.000 A 
ATOM     11  C   UNL     1     113.725 129.214 136.189  0.00  0.00    +0.000 A 
ATOM     12  C   UNL     1     113.383 129.662 137.502  0.00  0.00    +0.000 A 
ATOM     13  C   UNL     1     113.946 129.394 136.962  0.00  0.00    +0.000 A 
BRANCH  12  14
ATOM     14  C   UNL     1     113.605 129.842 138.276  0.00  0.00    +0.000 A 
ATOM     15  C   UNL     1     114.030 130.532 138.433  0.00  0.00    +0.000 A 
ATOM     16  C   UNL     1     113.402 129.333 138.892  0.00  0.00    +0.000 A 
ATOM     17  C   UNL     1     114.252 130.711 139.207  0.00  0.00    +0.000 A 
ATOM     18  C   UNL     1     113.624 129.511 139.666  0.00  0.00    +0.000 A 
ATOM     19  C   UNL     1     114.049 130.201 139.823  0.00  0.00    +0.000 A 
BRANCH  19  20
ATOM     20  O   UNL     1     114.271 130.381 140.598  0.00  0.00    +0.000 OA
ATOM     21  C   UNL     1     114.948 130.830 140.739  0.00  0.00    +0.000 C 
ENDBRANCH  19  20
ENDBRANCH  12  14
ENDBRANCH   1   5
BRANCH   1  30
ATOM     22  O   UNL     1     110.203 128.206 135.493  0.00  0.00    +0.000 OA
ATOM     23  O   UNL     1     108.303 127.268 136.017  0.00  0.00    +0.000 OA
ATOM     24  O   UNL     1     107.843 128.846 135.875  0.00  0.00    +0.000 OA
ATOM     25  O   UNL     1     108.956 129.998 135.479  0.00  0.00    +0.000 OA
ATOM     26  C   UNL     1     109.646 127.630 135.692  0.00  0.00    +0.000 C 
ATOM     27  C   UNL     1     108.859 127.843 135.819  0.00  0.00    +0.000 C 
ATOM     28  C   UNL     1     108.630 128.633 135.748  0.00  0.00    +0.000 C 
ATOM     29  C   UNL     1     109.186 129.209 135.550  0.00  0.00    +0.000 C 
ATOM     30  C   UNL     1     109.973 128.996 135.422  0.00  0.00    +0.000 C 
BRANCH  26  31
ATOM     31  C   UNL     1     109.876 126.841 135.762  0.00  0.00    +0.000 C 
BRANCH  31  32
ATOM     32  O   UNL     1     110.473 126.633 136.293  0.00  0.00    +0.000 OA
BRANCH  32  38
ATOM     33  O   UNL     1     110.713 125.332 135.651  0.00  0.00    +0.000 OA
ATOM     34  O   UNL     1     111.954 124.677 137.261  0.00  0.00    +0.000 OA
ATOM     35  O   UNL     1     111.539 125.899 137.536  0.00  0.00    +0.000 OA
ATOM     36  C   UNL     1     111.506 124.787 136.576  0.00  0.00    +0.000 C 
ATOM     37  C   UNL     1     111.298 125.543 136.832  0.00  0.00    +0.000 C 
ATOM     38  C   UNL     1     110.809 125.880 136.260  0.00  0.00    +0.000 C 
ATOM     39  C   UNL     1     111.144 124.656 135.846  0.00  0.00    +0.000 C 
BRANCH  36  41
ATOM     40  O   UNL     1     111.893 123.575 137.228  0.00  0.00    +0.000 OA
ATOM     41  C   UNL     1     111.841 124.033 136.544  0.00  0.00    +0.000 C 
ENDBRANCH  36  41
ENDBRANCH  32  38
ENDBRANCH  31  32
ENDBRANCH  26  31
ENDBRANCH   1  30
TORSDOF 8
ENDMDL
MODEL 7
REMARK VINA RESULT:      -9.2      8.226     11.448
REMARK  Name = 74977556
REMARK  8 active torsions:
REMARK  status: ('A' for Active; 'I' for Inactive)
REMARK    1  A    between atoms: O_3  and  C_19
REMARK    2  A    between atoms: O_3  and  C_23
REMARK    3  A    between atoms: O_8  and  C_24
REMARK    4  A    between atoms: O_8  and  C_26
REMARK    5  A    between atoms: O_14  and  C_40
REMARK    6  A    between atoms: C_15  and  C_25
REMARK    7  A    between atoms: C_16  and  C_23
REMARK    8  A    between atoms: C_33  and  C_35
REMARK                            x       y       z     vdW  Elec       q    Type
REMARK                         _______ _______ _______ _____ _____    ______ ____
ROOT
ATOM      1  O   UNL     1     106.087 127.090 144.303  0.00  0.00    +0.000 OA
ENDROOT
BRANCH   1   5
ATOM      2  O   UNL     1     104.493 125.018 145.586  0.00  0.00    +0.000 OA
ATOM      3  O   UNL     1     107.186 125.521 146.506  0.00  0.00    +0.000 OA
ATOM      4  O   UNL     1     106.367 124.502 147.119  0.00  0.00    +0.000 OA
ATOM      5  C   UNL     1     106.007 126.497 144.871  0.00  0.00    +0.000 A 
ATOM      6  C   UNL     1     105.273 126.055 144.935  0.00  0.00    +0.000 A 
ATOM      7  C   UNL     1     106.659 126.319 145.403  0.00  0.00    +0.000 A 
ATOM      8  C   UNL     1     105.200 125.440 145.530  0.00  0.00    +0.000 A 
ATOM      9  C   UNL     1     106.567 125.700 145.991  0.00  0.00    +0.000 A 
ATOM     10  C   UNL     1     105.825 125.267 146.041  0.00  0.00    +0.000 A 
ATOM     11  C   UNL     1     105.742 124.674 146.608  0.00  0.00    +0.000 A 
ATOM     12  C   UNL     1     104.411 124.425 146.154  0.00  0.00    +0.000 A 
ATOM     13  C   UNL     1     105.036 124.253 146.664  0.00  0.00    +0.000 A 
BRANCH  12  14
ATOM     14  C   UNL     1     103.704 124.004 146.211  0.00  0.00    +0.000 A 
ATOM     15  C   UNL     1     103.090 124.289 146.684  0.00  0.00    +0.000 A 
ATOM     16  C   UNL     1     103.610 123.297 145.795  0.00  0.00    +0.000 A 
ATOM     17  C   UNL     1     102.383 123.867 146.741  0.00  0.00    +0.000 A 
ATOM     18  C   UNL     1     102.903 122.876 145.851  0.00  0.00    +0.000 A 
ATOM     19  C   UNL     1     102.290 123.160 146.324  0.00  0.00    +0.000 A 
BRANCH  19  20
ATOM     20  O   UNL     1     101.583 122.739 146.381  0.00  0.00    +0.000 OA
ATOM     21  C   UNL     1     100.878 123.136 146.538  0.00  0.00    +0.000 C 
ENDBRANCH  19  20
ENDBRANCH  12  14
ENDBRANCH   1   5
BRANCH   1  30
ATOM     22  O   UNL     1     106.373 126.335 143.124  0.00  0.00    +0.000 OA
ATOM     23  O   UNL     1     107.940 126.570 141.622  0.00  0.00    +0.000 OA
ATOM     24  O   UNL     1     108.294 127.820 142.640  0.00  0.00    +0.000 OA
ATOM     25  O   UNL     1     107.367 128.080 143.980  0.00  0.00    +0.000 OA
ATOM     26  C   UNL     1     106.837 126.205 142.453  0.00  0.00    +0.000 C 
ATOM     27  C   UNL     1     107.477 126.700 142.292  0.00  0.00    +0.000 C 
ATOM     28  C   UNL     1     107.653 127.325 142.801  0.00  0.00    +0.000 C 
ATOM     29  C   UNL     1     107.190 127.455 143.472  0.00  0.00    +0.000 C 
ATOM     30  C   UNL     1     106.550 126.961 143.633  0.00  0.00    +0.000 C 
BRANCH  26  31
ATOM     31  C   UNL     1     106.659 125.580 141.945  0.00  0.00    +0.000 C 
BRANCH  31  32
ATOM     32  O   UNL     1     105.940 125.570 141.541  0.00  0.00    +0.000 OA
BRANCH  32  38
ATOM     33  O   UNL     1     105.894 124.129 141.253  0.00  0.00    +0.000 OA
ATOM     34  O   UNL     1     104.874 124.449 139.405  0.00  0.00    +0.000 OA
ATOM     35  O   UNL     1     105.086 125.626 139.963  0.00  0.00    +0.000 OA
ATOM     36  C   UNL     1     105.259 124.171 140.080  0.00  0.00    +0.000 C 
ATOM     37  C   UNL     1     105.346 124.945 140.351  0.00  0.00    +0.000 C 
ATOM     38  C   UNL     1     105.738 124.919 141.075  0.00  0.00    +0.000 C 
ATOM     39  C   UNL     1     105.597 123.666 140.638  0.00  0.00    +0.000 C 
BRANCH  36  41
ATOM     40  O   UNL     1     104.761 123.633 138.852  0.00  0.00    +0.000 OA
ATOM     41  C   UNL     1     105.057 123.520 139.614  0.00  0.00    +0.000 C 
ENDBRANCH  36  41
ENDBRANCH  32  38
ENDBRANCH  31  32
ENDBRANCH  26  31
ENDBRANCH   1  30
TORSDOF 8
ENDMDL
MODEL 8
REMARK VINA RESULT:      -9.2      2.060      5.069
REMARK  Name = 74977556
REMARK  8 active torsions:
REMARK  status: ('A' for Active; 'I' for Inactive)
REMARK    1  A    between atoms: O_3  and  C_19
REMARK    2  A    between atoms: O_3  and  C_23
REMARK    3  A    between atoms: O_8  and  C_24
REMARK    4  A    between atoms: O_8  and  C_26
REMARK    5  A    between atoms: O_14  and  C_40
REMARK    6  A    between atoms: C_15  and  C_25
REMARK    7  A    between atoms: C_16  and  C_23
REMARK    8  A    between atoms: C_33  and  C_35
REMARK                            x       y       z     vdW  Elec       q    Type
REMARK                         _______ _______ _______ _____ _____    ______ ____
ROOT
ATOM      1  O   UNL     1     109.289 127.588 135.994  0.00  0.00    +0.000 OA
ENDROOT
BRANCH   1   5
ATOM      2  O   UNL     1     111.684 126.107 136.734  0.00  0.00    +0.000 OA
ATOM      3  O   UNL     1     109.408 126.118 138.515  0.00  0.00    +0.000 OA
ATOM      4  O   UNL     1     110.611 125.396 138.849  0.00  0.00    +0.000 OA
ATOM      5  C   UNL     1     109.697 127.107 136.526  0.00  0.00    +0.000 A 
ATOM      6  C   UNL     1     110.498 126.851 136.349  0.00  0.00    +0.000 A 
ATOM      7  C   UNL     1     109.324 126.861 137.260  0.00  0.00    +0.000 A 
ATOM      8  C   UNL     1     110.916 126.351 136.909  0.00  0.00    +0.000 A 
ATOM      9  C   UNL     1     109.757 126.360 137.807  0.00  0.00    +0.000 A 
ATOM     10  C   UNL     1     110.558 126.113 137.614  0.00  0.00    +0.000 A 
ATOM     11  C   UNL     1     110.969 125.633 138.144  0.00  0.00    +0.000 A 
ATOM     12  C   UNL     1     112.095 125.627 137.264  0.00  0.00    +0.000 A 
ATOM     13  C   UNL     1     111.737 125.390 137.969  0.00  0.00    +0.000 A 
BRANCH  12  14
ATOM     14  C   UNL     1     112.864 125.383 137.090  0.00  0.00    +0.000 A 
ATOM     15  C   UNL     1     113.499 125.892 137.227  0.00  0.00    +0.000 A 
ATOM     16  C   UNL     1     112.998 124.631 136.778  0.00  0.00    +0.000 A 
ATOM     17  C   UNL     1     114.268 125.648 137.052  0.00  0.00    +0.000 A 
ATOM     18  C   UNL     1     113.766 124.387 136.604  0.00  0.00    +0.000 A 
ATOM     19  C   UNL     1     114.401 124.895 136.741  0.00  0.00    +0.000 A 
BRANCH  19  20
ATOM     20  O   UNL     1     115.170 124.652 136.566  0.00  0.00    +0.000 OA
ATOM     21  C   UNL     1     115.601 125.038 135.979  0.00  0.00    +0.000 C 
ENDBRANCH  19  20
ENDBRANCH  12  14
ENDBRANCH   1   5
BRANCH   1  30
ATOM     22  O   UNL     1     109.965 128.799 136.337  0.00  0.00    +0.000 OA
ATOM     23  O   UNL     1     109.251 130.860 136.418  0.00  0.00    +0.000 OA
ATOM     24  O   UNL     1     107.880 130.074 135.944  0.00  0.00    +0.000 OA
ATOM     25  O   UNL     1     107.899 128.438 135.732  0.00  0.00    +0.000 OA
ATOM     26  C   UNL     1     109.955 129.618 136.443  0.00  0.00    +0.000 C 
ATOM     27  C   UNL     1     109.260 130.043 136.312  0.00  0.00    +0.000 C 
ATOM     28  C   UNL     1     108.575 129.649 136.075  0.00  0.00    +0.000 C 
ATOM     29  C   UNL     1     108.584 128.831 135.969  0.00  0.00    +0.000 C 
ATOM     30  C   UNL     1     109.279 128.406 136.100  0.00  0.00    +0.000 C 
BRANCH  26  31
ATOM     31  C   UNL     1     110.641 130.010 136.680  0.00  0.00    +0.000 C 
BRANCH  31  32
ATOM     32  O   UNL     1     111.126 129.678 137.259  0.00  0.00    +0.000 OA
BRANCH  32  38
ATOM     33  O   UNL     1     112.187 130.675 137.051  0.00  0.00    +0.000 OA
ATOM     34  O   UNL     1     113.387 129.839 138.607  0.00  0.00    +0.000 OA
ATOM     35  O   UNL     1     112.278 129.129 138.521  0.00  0.00    +0.000 OA
ATOM     36  C   UNL     1     113.043 130.266 137.990  0.00  0.00    +0.000 C 
ATOM     37  C   UNL     1     112.386 129.768 138.010  0.00  0.00    +0.000 C 
ATOM     38  C   UNL     1     111.857 130.020 137.430  0.00  0.00    +0.000 C 
ATOM     39  C   UNL     1     112.920 130.827 137.397  0.00  0.00    +0.000 C 
BRANCH  36  41
ATOM     40  O   UNL     1     113.909 130.945 138.902  0.00  0.00    +0.000 OA
ATOM     41  C   UNL     1     113.775 130.609 138.161  0.00  0.00    +0.000 C 
ENDBRANCH  36  41
ENDBRANCH  32  38
ENDBRANCH  31  32
ENDBRANCH  26  31
ENDBRANCH   1  30
TORSDOF 8
ENDMDL
MODEL 9
REMARK VINA RESULT:      -9.2      2.306      4.714
REMARK  Name = 74977556
REMARK  8 active torsions:
REMARK  status: ('A' for Active; 'I' for Inactive)
REMARK    1  A    between atoms: O_3  and  C_19
REMARK    2  A    between atoms: O_3  and  C_23
REMARK    3  A    between atoms: O_8  and  C_24
REMARK    4  A    between atoms: O_8  and  C_26
REMARK    5  A    between atoms: O_14  and  C_40
REMARK    6  A    between atoms: C_15  and  C_25
REMARK    7  A    between atoms: C_16  and  C_23
REMARK    8  A    between atoms: C_33  and  C_35
REMARK                            x       y       z     vdW  Elec       q    Type
REMARK                         _______ _______ _______ _____ _____    ______ ____
ROOT
ATOM      1  O   UNL     1     113.724 126.003 137.297  0.00  0.00    +0.000 OA
ENDROOT
BRANCH   1   5
ATOM      2  O   UNL     1     112.669 128.694 137.645  0.00  0.00    +0.000 OA
ATOM      3  O   UNL     1     113.136 127.035 139.965  0.00  0.00    +0.000 OA
ATOM      4  O   UNL     1     112.615 128.373 140.099  0.00  0.00    +0.000 OA
ATOM      5  C   UNL     1     113.456 126.608 137.789  0.00  0.00    +0.000 A 
ATOM      6  C   UNL     1     113.195 127.355 137.453  0.00  0.00    +0.000 A 
ATOM      7  C   UNL     1     113.438 126.496 138.641  0.00  0.00    +0.000 A 
ATOM      8  C   UNL     1     112.919 127.980 137.973  0.00  0.00    +0.000 A 
ATOM      9  C   UNL     1     113.158 127.133 139.146  0.00  0.00    +0.000 A 
ATOM     10  C   UNL     1     112.900 127.873 138.792  0.00  0.00    +0.000 A 
ATOM     11  C   UNL     1     112.633 128.481 139.281  0.00  0.00    +0.000 A 
ATOM     12  C   UNL     1     112.401 129.302 138.135  0.00  0.00    +0.000 A 
ATOM     13  C   UNL     1     112.383 129.195 138.953  0.00  0.00    +0.000 A 
BRANCH  12  14
ATOM     14  C   UNL     1     112.151 130.017 137.807  0.00  0.00    +0.000 A 
ATOM     15  C   UNL     1     111.365 130.113 137.579  0.00  0.00    +0.000 A 
ATOM     16  C   UNL     1     112.689 130.635 137.707  0.00  0.00    +0.000 A 
ATOM     17  C   UNL     1     111.115 130.828 137.251  0.00  0.00    +0.000 A 
ATOM     18  C   UNL     1     112.440 131.349 137.380  0.00  0.00    +0.000 A 
ATOM     19  C   UNL     1     111.653 131.446 137.152  0.00  0.00    +0.000 A 
BRANCH  19  20
ATOM     20  O   UNL     1     111.403 132.161 136.824  0.00  0.00    +0.000 OA
ATOM     21  C   UNL     1     110.805 132.595 137.189  0.00  0.00    +0.000 C 
ENDBRANCH  19  20
ENDBRANCH  12  14
ENDBRANCH   1   5
BRANCH   1  30
ATOM     22  O   UNL     1     112.463 125.611 136.750  0.00  0.00    +0.000 OA
ATOM     23  O   UNL     1     111.645 123.634 136.316  0.00  0.00    +0.000 OA
ATOM     24  O   UNL     1     113.128 123.233 136.918  0.00  0.00    +0.000 OA
ATOM     25  O   UNL     1     114.167 124.417 137.409  0.00  0.00    +0.000 OA
ATOM     26  C   UNL     1     111.943 125.019 136.505  0.00  0.00    +0.000 C 
ATOM     27  C   UNL     1     112.164 124.226 136.561  0.00  0.00    +0.000 C 
ATOM     28  C   UNL     1     112.906 124.026 136.862  0.00  0.00    +0.000 C 
ATOM     29  C   UNL     1     113.426 124.617 137.108  0.00  0.00    +0.000 C 
ATOM     30  C   UNL     1     113.205 125.410 137.052  0.00  0.00    +0.000 C 
BRANCH  26  31
ATOM     31  C   UNL     1     111.201 125.220 136.204  0.00  0.00    +0.000 C 
BRANCH  31  32
ATOM     32  O   UNL     1     110.680 125.667 136.661  0.00  0.00    +0.000 OA
BRANCH  32  38
ATOM     33  O   UNL     1     109.863 126.060 135.503  0.00  0.00    +0.000 OA
ATOM     34  O   UNL     1     108.782 127.498 136.652  0.00  0.00    +0.000 OA
ATOM     35  O   UNL     1     109.662 126.919 137.447  0.00  0.00    +0.000 OA
ATOM     36  C   UNL     1     109.107 126.991 136.088  0.00  0.00    +0.000 C 
ATOM     37  C   UNL     1     109.622 126.688 136.656  0.00  0.00    +0.000 C 
ATOM     38  C   UNL     1     110.089 126.112 136.294  0.00  0.00    +0.000 C 
ATOM     39  C   UNL     1     109.256 126.604 135.374  0.00  0.00    +0.000 C 
BRANCH  36  41
ATOM     40  O   UNL     1     108.248 128.134 136.071  0.00  0.00    +0.000 OA
ATOM     41  C   UNL     1     108.516 127.437 135.721  0.00  0.00    +0.000 C 
ENDBRANCH  36  41
ENDBRANCH  32  38
ENDBRANCH  31  32
ENDBRANCH  26  31
ENDBRANCH   1  30
TORSDOF 8
ENDMDL
MODEL 10
REMARK VINA RESULT:      -9.1      2.500      4.676
REMARK  Name = 74977556
REMARK  8 active torsions:
REMARK  status: ('A' for Active; 'I' for Inactive)
REMARK    1  A    between atoms: O_3  and  C_19
REMARK    2  A    between atoms: O_3  and  C_23
REMARK    3  A    between atoms: O_8  and  C_24
REMARK    4  A    between atoms: O_8  and  C_26
REMARK    5  A    between atoms: O_14  and  C_40
REMARK    6  A    between atoms: C_15  and  C_25
REMARK    7  A    between atoms: C_16  and  C_23
REMARK    8  A    between atoms: C_33  and  C_35
REMARK                            x       y       z     vdW  Elec       q    Type
REMARK                         _______ _______ _______ _____ _____    ______ ____
ROOT
ATOM      1  O   UNL     1     112.727 127.618 141.484  0.00  0.00    +0.000 OA
ENDROOT
BRANCH   1   5
ATOM      2  O   UNL     1     113.327 126.342 138.936  0.00  0.00    +0.000 OA
ATOM      3  O   UNL     1     110.601 126.404 139.893  0.00  0.00    +0.000 OA
ATOM      4  O   UNL     1     110.935 125.780 138.636  0.00  0.00    +0.000 OA
ATOM      5  C   UNL     1     112.477 127.213 140.811  0.00  0.00    +0.000 A 
ATOM      6  C   UNL     1     113.046 126.983 140.209  0.00  0.00    +0.000 A 
ATOM      7  C   UNL     1     111.647 127.018 140.707  0.00  0.00    +0.000 A 
ATOM      8  C   UNL     1     112.777 126.561 139.511  0.00  0.00    +0.000 A 
ATOM      9  C   UNL     1     111.396 126.595 140.002  0.00  0.00    +0.000 A 
ATOM     10  C   UNL     1     111.979 126.373 139.410  0.00  0.00    +0.000 A 
ATOM     11  C   UNL     1     111.732 125.968 138.736  0.00  0.00    +0.000 A 
ATOM     12  C   UNL     1     113.080 125.937 138.262  0.00  0.00    +0.000 A 
ATOM     13  C   UNL     1     112.283 125.750 138.162  0.00  0.00    +0.000 A 
BRANCH  12  14
ATOM     14  C   UNL     1     113.630 125.718 137.687  0.00  0.00    +0.000 A 
ATOM     15  C   UNL     1     114.050 125.012 137.765  0.00  0.00    +0.000 A 
ATOM     16  C   UNL     1     113.761 126.206 137.034  0.00  0.00    +0.000 A 
ATOM     17  C   UNL     1     114.600 124.794 137.190  0.00  0.00    +0.000 A 
ATOM     18  C   UNL     1     114.311 125.989 136.460  0.00  0.00    +0.000 A 
ATOM     19  C   UNL     1     114.730 125.282 136.537  0.00  0.00    +0.000 A 
BRANCH  19  20
ATOM     20  O   UNL     1     115.281 125.064 135.963  0.00  0.00    +0.000 OA
ATOM     21  C   UNL     1     115.561 125.624 135.426  0.00  0.00    +0.000 C 
ENDBRANCH  19  20
ENDBRANCH  12  14
ENDBRANCH   1   5
BRANCH   1  30
ATOM     22  O   UNL     1     112.979 128.876 140.855  0.00  0.00    +0.000 OA
ATOM     23  O   UNL     1     112.640 130.916 141.553  0.00  0.00    +0.000 OA
ATOM     24  O   UNL     1     112.093 130.050 142.846  0.00  0.00    +0.000 OA
ATOM     25  O   UNL     1     112.137 128.400 142.812  0.00  0.00    +0.000 OA
ATOM     26  C   UNL     1     112.956 129.701 140.872  0.00  0.00    +0.000 C 
ATOM     27  C   UNL     1     112.661 130.093 141.536  0.00  0.00    +0.000 C 
ATOM     28  C   UNL     1     112.388 129.658 142.182  0.00  0.00    +0.000 C 
ATOM     29  C   UNL     1     112.410 128.834 142.166  0.00  0.00    +0.000 C 
ATOM     30  C   UNL     1     112.705 128.443 141.502  0.00  0.00    +0.000 C 
BRANCH  26  31
ATOM     31  C   UNL     1     113.230 130.134 140.225  0.00  0.00    +0.000 C 
BRANCH  31  32
ATOM     32  O   UNL     1     112.901 130.011 139.479  0.00  0.00    +0.000 OA
BRANCH  32  38
ATOM     33  O   UNL     1     113.977 130.734 138.787  0.00  0.00    +0.000 OA
ATOM     34  O   UNL     1     113.295 130.083 136.872  0.00  0.00    +0.000 OA
ATOM     35  O   UNL     1     112.490 129.575 137.787  0.00  0.00    +0.000 OA
ATOM     36  C   UNL     1     113.672 130.410 137.529  0.00  0.00    +0.000 C 
ATOM     37  C   UNL     1     113.120 130.051 138.026  0.00  0.00    +0.000 C 
ATOM     38  C   UNL     1     113.309 130.252 138.803  0.00  0.00    +0.000 C 
ATOM     39  C   UNL     1     114.202 130.833 138.000  0.00  0.00    +0.000 C 
BRANCH  36  41
ATOM     40  O   UNL     1     114.347 130.090 136.310  0.00  0.00    +0.000 OA
ATOM     41  C   UNL     1     114.081 130.651 136.854  0.00  0.00    +0.000 C 
ENDBRANCH  36  41
ENDBRANCH  32  38
ENDBRANCH  31  32
ENDBRANCH  26  31
ENDBRANCH   1  30
TORSDOF 8
ENDMDL
