MODEL 1
REMARK VINA RESULT:     -10.2      0.000      0.000
REMARK  Name = 42607977
REMARK  4 active torsions:
REMARK  status: ('A' for Active; 'I' for Inactive)
REMARK    1  A    between atoms: O_2  and  C_16
REMARK    2  A    between atoms: O_2  and  C_20
REMARK    3  A    between atoms: C_17  and  C_18
REMARK    4  A    between atoms: C_19  and  C_27
REMARK                            x       y       z     vdW  Elec       q    Type
REMARK                         _______ _______ _______ _____ _____    ______ ____
ROOT
ATOM      1  O   UNL     1     104.817 124.304 139.382  0.00  0.00    +0.000 OA
ATOM      2  O   UNL     1     105.476 123.437 142.058  0.00  0.00    +0.000 OA
ATOM      3  O   UNL     1     104.439 122.783 141.298  0.00  0.00    +0.000 OA
ATOM      4  C   UNL     1     104.238 123.718 139.336  0.00  0.00    +0.000 C 
ATOM      5  C   UNL     1     106.345 125.085 140.815  0.00  0.00    +0.000 A 
ATOM      6  C   UNL     1     104.112 123.211 139.975  0.00  0.00    +0.000 C 
ATOM      7  C   UNL     1     105.270 124.383 140.068  0.00  0.00    +0.000 A 
ATOM      8  C   UNL     1     105.144 123.877 140.706  0.00  0.00    +0.000 A 
ATOM      9  C   UNL     1     105.870 124.997 140.104  0.00  0.00    +0.000 A 
ATOM     10  C   UNL     1     104.565 123.291 140.660  0.00  0.00    +0.000 C 
ATOM     11  C   UNL     1     106.213 124.557 141.480  0.00  0.00    +0.000 A 
ATOM     12  C   UNL     1     105.609 123.949 141.425  0.00  0.00    +0.000 A 
ENDROOT
BRANCH   4  15
ATOM     13  O   UNL     1     101.707 123.842 138.015  0.00  0.00    +0.000 OA
ATOM     14  O   UNL     1     102.426 123.402 136.597  0.00  0.00    +0.000 OA
ATOM     15  C   UNL     1     103.785 123.639 138.651  0.00  0.00    +0.000 A 
ATOM     16  C   UNL     1     102.973 123.780 138.676  0.00  0.00    +0.000 A 
ATOM     17  C   UNL     1     104.145 123.419 137.942  0.00  0.00    +0.000 A 
ATOM     18  C   UNL     1     102.520 123.701 137.991  0.00  0.00    +0.000 A 
ATOM     19  C   UNL     1     103.692 123.340 137.258  0.00  0.00    +0.000 A 
ATOM     20  C   UNL     1     102.879 123.481 137.282  0.00  0.00    +0.000 A 
ENDBRANCH   4  15
BRANCH   5  21
ATOM     21  O   UNL     1     106.924 125.672 140.859  0.00  0.00    +0.000 OA
BRANCH  21  29
ATOM     22  O   UNL     1     106.110 126.734 141.361  0.00  0.00    +0.000 OA
ATOM     23  O   UNL     1     107.934 127.408 142.891  0.00  0.00    +0.000 OA
ATOM     24  O   UNL     1     108.140 126.121 141.879  0.00  0.00    +0.000 OA
ATOM     25  O   UNL     1     106.513 128.245 142.883  0.00  0.00    +0.000 OA
ATOM     26  C   UNL     1     107.326 127.183 142.381  0.00  0.00    +0.000 C 
ATOM     27  C   UNL     1     107.429 126.539 141.874  0.00  0.00    +0.000 C 
ATOM     28  C   UNL     1     106.615 127.602 142.376  0.00  0.00    +0.000 C 
ATOM     29  C   UNL     1     106.821 126.315 141.364  0.00  0.00    +0.000 C 
ATOM     30  C   UNL     1     106.007 127.377 141.866  0.00  0.00    +0.000 C 
BRANCH  30  33
ATOM     31  O   UNL     1     105.174 128.397 141.311  0.00  0.00    +0.000 OA
ATOM     32  O   UNL     1     104.707 127.612 142.410  0.00  0.00    +0.000 OA
ATOM     33  C   UNL     1     105.297 127.795 141.862  0.00  0.00    +0.000 C 
ENDBRANCH  30  33
ENDBRANCH  21  29
ENDBRANCH   5  21
TORSDOF 4
ENDMDL
MODEL 2
REMARK VINA RESULT:     -10.0      1.251      1.805
REMARK  Name = 42607977
REMARK  4 active torsions:
REMARK  status: ('A' for Active; 'I' for Inactive)
REMARK    1  A    between atoms: O_2  and  C_16
REMARK    2  A    between atoms: O_2  and  C_20
REMARK    3  A    between atoms: C_17  and  C_18
REMARK    4  A    between atoms: C_19  and  C_27
REMARK                            x       y       z     vdW  Elec       q    Type
REMARK                         _______ _______ _______ _____ _____    ______ ____
ROOT
ATOM      1  O   UNL     1     104.808 124.626 139.717  0.00  0.00    +0.000 OA
ATOM      2  O   UNL     1     107.150 123.613 141.070  0.00  0.00    +0.000 OA
ATOM      3  O   UNL     1     106.310 122.743 140.286  0.00  0.00    +0.000 OA
ATOM      4  C   UNL     1     104.650 123.870 139.426  0.00  0.00    +0.000 C 
ATOM      5  C   UNL     1     106.304 125.686 140.995  0.00  0.00    +0.000 A 
ATOM      6  C   UNL     1     105.151 123.243 139.616  0.00  0.00    +0.000 C 
ATOM      7  C   UNL     1     105.466 124.755 140.197  0.00  0.00    +0.000 A 
ATOM      8  C   UNL     1     105.967 124.127 140.387  0.00  0.00    +0.000 A 
ATOM      9  C   UNL     1     105.619 125.546 140.494  0.00  0.00    +0.000 A 
ATOM     10  C   UNL     1     105.809 123.371 140.096  0.00  0.00    +0.000 C 
ATOM     11  C   UNL     1     106.825 125.032 141.192  0.00  0.00    +0.000 A 
ATOM     12  C   UNL     1     106.655 124.247 140.886  0.00  0.00    +0.000 A 
ENDROOT
BRANCH   4  15
ATOM     13  O   UNL     1     103.529 123.383 136.843  0.00  0.00    +0.000 OA
ATOM     14  O   UNL     1     102.018 123.357 137.504  0.00  0.00    +0.000 OA
ATOM     15  C   UNL     1     103.992 123.742 138.946  0.00  0.00    +0.000 A 
ATOM     16  C   UNL     1     104.090 123.627 138.134  0.00  0.00    +0.000 A 
ATOM     17  C   UNL     1     103.236 123.729 139.276  0.00  0.00    +0.000 A 
ATOM     18  C   UNL     1     103.432 123.498 137.654  0.00  0.00    +0.000 A 
ATOM     19  C   UNL     1     102.578 123.601 138.795  0.00  0.00    +0.000 A 
ATOM     20  C   UNL     1     102.676 123.485 137.984  0.00  0.00    +0.000 A 
ENDBRANCH   4  15
BRANCH   5  21
ATOM     21  O   UNL     1     106.459 126.443 141.285  0.00  0.00    +0.000 OA
BRANCH  21  29
ATOM     22  O   UNL     1     106.229 126.194 142.673  0.00  0.00    +0.000 OA
ATOM     23  O   UNL     1     105.041 128.357 142.864  0.00  0.00    +0.000 OA
ATOM     24  O   UNL     1     105.667 127.885 141.412  0.00  0.00    +0.000 OA
ATOM     25  O   UNL     1     105.207 127.388 144.187  0.00  0.00    +0.000 OA
ATOM     26  C   UNL     1     105.437 127.636 142.800  0.00  0.00    +0.000 C 
ATOM     27  C   UNL     1     105.750 127.400 142.074  0.00  0.00    +0.000 C 
ATOM     28  C   UNL     1     105.520 127.151 143.462  0.00  0.00    +0.000 C 
ATOM     29  C   UNL     1     106.146 126.679 142.010  0.00  0.00    +0.000 C 
ATOM     30  C   UNL     1     105.916 126.430 143.398  0.00  0.00    +0.000 C 
BRANCH  30  33
ATOM     31  O   UNL     1     106.686 125.982 144.516  0.00  0.00    +0.000 OA
ATOM     32  O   UNL     1     105.394 125.423 144.267  0.00  0.00    +0.000 OA
ATOM     33  C   UNL     1     105.999 125.946 144.060  0.00  0.00    +0.000 C 
ENDBRANCH  30  33
ENDBRANCH  21  29
ENDBRANCH   5  21
TORSDOF 4
ENDMDL
MODEL 3
REMARK VINA RESULT:     -10.0      6.954      8.560
REMARK  Name = 42607977
REMARK  4 active torsions:
REMARK  status: ('A' for Active; 'I' for Inactive)
REMARK    1  A    between atoms: O_2  and  C_16
REMARK    2  A    between atoms: O_2  and  C_20
REMARK    3  A    between atoms: C_17  and  C_18
REMARK    4  A    between atoms: C_19  and  C_27
REMARK                            x       y       z     vdW  Elec       q    Type
REMARK                         _______ _______ _______ _____ _____    ______ ____
ROOT
ATOM      1  O   UNL     1     112.076 126.702 136.251  0.00  0.00    +0.000 OA
ATOM      2  O   UNL     1     109.639 125.935 134.902  0.00  0.00    +0.000 OA
ATOM      3  O   UNL     1     110.535 124.942 135.442  0.00  0.00    +0.000 OA
ATOM      4  C   UNL     1     112.254 125.907 136.379  0.00  0.00    +0.000 C 
ATOM      5  C   UNL     1     110.490 127.966 135.311  0.00  0.00    +0.000 A 
ATOM      6  C   UNL     1     111.740 125.321 136.110  0.00  0.00    +0.000 C 
ATOM      7  C   UNL     1     111.384 126.911 135.853  0.00  0.00    +0.000 A 
ATOM      8  C   UNL     1     110.870 126.325 135.583  0.00  0.00    +0.000 A 
ATOM      9  C   UNL     1     111.210 127.742 135.725  0.00  0.00    +0.000 A 
ATOM     10  C   UNL     1     111.048 125.529 135.712  0.00  0.00    +0.000 C 
ATOM     11  C   UNL     1     109.956 127.355 135.031  0.00  0.00    +0.000 A 
ATOM     12  C   UNL     1     110.147 126.529 135.168  0.00  0.00    +0.000 A 
ENDROOT
BRANCH   4  15
ATOM     13  O   UNL     1     113.884 126.001 138.725  0.00  0.00    +0.000 OA
ATOM     14  O   UNL     1     115.021 125.072 137.972  0.00  0.00    +0.000 OA
ATOM     15  C   UNL     1     112.946 125.698 136.777  0.00  0.00    +0.000 A 
ATOM     16  C   UNL     1     113.069 125.954 137.553  0.00  0.00    +0.000 A 
ATOM     17  C   UNL     1     113.515 125.234 136.401  0.00  0.00    +0.000 A 
ATOM     18  C   UNL     1     113.761 125.745 137.951  0.00  0.00    +0.000 A 
ATOM     19  C   UNL     1     114.206 125.026 136.799  0.00  0.00    +0.000 A 
ATOM     20  C   UNL     1     114.329 125.281 137.574  0.00  0.00    +0.000 A 
ENDBRANCH   4  15
BRANCH   5  21
ATOM     21  O   UNL     1     110.315 128.762 135.184  0.00  0.00    +0.000 OA
BRANCH  21  29
ATOM     22  O   UNL     1     109.959 129.113 136.523  0.00  0.00    +0.000 OA
ATOM     23  O   UNL     1     108.083 130.481 135.666  0.00  0.00    +0.000 OA
ATOM     24  O   UNL     1     109.064 129.675 134.613  0.00  0.00    +0.000 OA
ATOM     25  O   UNL     1     108.352 130.375 137.289  0.00  0.00    +0.000 OA
ATOM     26  C   UNL     1     108.708 130.025 135.951  0.00  0.00    +0.000 C 
ATOM     27  C   UNL     1     109.199 129.621 135.424  0.00  0.00    +0.000 C 
ATOM     28  C   UNL     1     108.843 129.972 136.763  0.00  0.00    +0.000 C 
ATOM     29  C   UNL     1     109.825 129.165 135.710  0.00  0.00    +0.000 C 
ATOM     30  C   UNL     1     109.468 129.516 137.049  0.00  0.00    +0.000 C 
BRANCH  30  33
ATOM     31  O   UNL     1     109.207 128.895 138.309  0.00  0.00    +0.000 OA
ATOM     32  O   UNL     1     110.133 129.980 138.225  0.00  0.00    +0.000 OA
ATOM     33  C   UNL     1     109.603 129.463 137.861  0.00  0.00    +0.000 C 
ENDBRANCH  30  33
ENDBRANCH  21  29
ENDBRANCH   5  21
TORSDOF 4
ENDMDL
MODEL 4
REMARK VINA RESULT:      -9.8      3.909      6.160
REMARK  Name = 42607977
REMARK  4 active torsions:
REMARK  status: ('A' for Active; 'I' for Inactive)
REMARK    1  A    between atoms: O_2  and  C_16
REMARK    2  A    between atoms: O_2  and  C_20
REMARK    3  A    between atoms: C_17  and  C_18
REMARK    4  A    between atoms: C_19  and  C_27
REMARK                            x       y       z     vdW  Elec       q    Type
REMARK                         _______ _______ _______ _____ _____    ______ ____
ROOT
ATOM      1  O   UNL     1     103.155 130.275 141.973  0.00  0.00    +0.000 OA
ATOM      2  O   UNL     1     103.681 128.004 140.267  0.00  0.00    +0.000 OA
ATOM      3  O   UNL     1     102.746 129.029 139.874  0.00  0.00    +0.000 OA
ATOM      4  C   UNL     1     102.621 130.569 141.416  0.00  0.00    +0.000 C 
ATOM      5  C   UNL     1     104.522 128.533 142.275  0.00  0.00    +0.000 A 
ATOM      6  C   UNL     1     102.485 130.153 140.717  0.00  0.00    +0.000 C 
ATOM      7  C   UNL     1     103.552 129.567 141.830  0.00  0.00    +0.000 A 
ATOM      8  C   UNL     1     103.416 129.151 141.131  0.00  0.00    +0.000 A 
ATOM      9  C   UNL     1     104.105 129.271 142.418  0.00  0.00    +0.000 A 
ATOM     10  C   UNL     1     102.883 129.444 140.574  0.00  0.00    +0.000 C 
ATOM     11  C   UNL     1     104.380 128.101 141.546  0.00  0.00    +0.000 A 
ATOM     12  C   UNL     1     103.823 128.412 140.970  0.00  0.00    +0.000 A 
ENDROOT
BRANCH   4  15
ATOM     13  O   UNL     1     102.541 133.424 141.319  0.00  0.00    +0.000 OA
ATOM     14  O   UNL     1     101.032 133.404 141.987  0.00  0.00    +0.000 OA
ATOM     15  C   UNL     1     102.224 131.277 141.559  0.00  0.00    +0.000 A 
ATOM     16  C   UNL     1     102.581 131.996 141.368  0.00  0.00    +0.000 A 
ATOM     17  C   UNL     1     101.469 131.267 141.893  0.00  0.00    +0.000 A 
ATOM     18  C   UNL     1     102.184 132.705 141.510  0.00  0.00    +0.000 A 
ATOM     19  C   UNL     1     101.073 131.976 142.035  0.00  0.00    +0.000 A 
ATOM     20  C   UNL     1     101.430 132.695 141.844  0.00  0.00    +0.000 A 
ENDBRANCH   4  15
BRANCH   5  21
ATOM     21  O   UNL     1     105.055 128.242 142.833  0.00  0.00    +0.000 OA
BRANCH  21  29
ATOM     22  O   UNL     1     106.208 128.882 142.281  0.00  0.00    +0.000 OA
ATOM     23  O   UNL     1     107.602 126.952 142.957  0.00  0.00    +0.000 OA
ATOM     24  O   UNL     1     105.985 126.956 143.284  0.00  0.00    +0.000 OA
ATOM     25  O   UNL     1     108.289 128.234 142.180  0.00  0.00    +0.000 OA
ATOM     26  C   UNL     1     107.137 127.595 142.732  0.00  0.00    +0.000 C 
ATOM     27  C   UNL     1     106.328 127.597 142.895  0.00  0.00    +0.000 C 
ATOM     28  C   UNL     1     107.481 128.237 142.343  0.00  0.00    +0.000 C 
ATOM     29  C   UNL     1     105.863 128.241 142.670  0.00  0.00    +0.000 C 
ATOM     30  C   UNL     1     107.016 128.880 142.118  0.00  0.00    +0.000 C 
BRANCH  30  33
ATOM     31  O   UNL     1     107.428 129.517 140.907  0.00  0.00    +0.000 OA
ATOM     32  O   UNL     1     107.636 130.166 142.164  0.00  0.00    +0.000 OA
ATOM     33  C   UNL     1     107.360 129.521 141.730  0.00  0.00    +0.000 C 
ENDBRANCH  30  33
ENDBRANCH  21  29
ENDBRANCH   5  21
TORSDOF 4
ENDMDL
MODEL 5
REMARK VINA RESULT:      -9.8      7.315     10.114
REMARK  Name = 42607977
REMARK  4 active torsions:
REMARK  status: ('A' for Active; 'I' for Inactive)
REMARK    1  A    between atoms: O_2  and  C_16
REMARK    2  A    between atoms: O_2  and  C_20
REMARK    3  A    between atoms: C_17  and  C_18
REMARK    4  A    between atoms: C_19  and  C_27
REMARK                            x       y       z     vdW  Elec       q    Type
REMARK                         _______ _______ _______ _____ _____    ______ ____
ROOT
ATOM      1  O   UNL     1     113.318 128.564 139.773  0.00  0.00    +0.000 OA
ATOM      2  O   UNL     1     112.118 126.158 140.832  0.00  0.00    +0.000 OA
ATOM      3  O   UNL     1     112.789 127.098 141.697  0.00  0.00    +0.000 OA
ATOM      4  C   UNL     1     113.559 128.776 140.533  0.00  0.00    +0.000 C 
ATOM      5  C   UNL     1     112.218 126.922 138.729  0.00  0.00    +0.000 A 
ATOM      6  C   UNL     1     113.383 128.288 141.174  0.00  0.00    +0.000 C 
ATOM      7  C   UNL     1     112.900 127.862 139.654  0.00  0.00    +0.000 A 
ATOM      8  C   UNL     1     112.724 127.373 140.295  0.00  0.00    +0.000 A 
ATOM      9  C   UNL     1     112.654 127.651 138.859  0.00  0.00    +0.000 A 
ATOM     10  C   UNL     1     112.965 127.586 141.055  0.00  0.00    +0.000 C 
ATOM     11  C   UNL     1     112.035 126.413 139.397  0.00  0.00    +0.000 A 
ATOM     12  C   UNL     1     112.290 126.641 140.185  0.00  0.00    +0.000 A 
ENDROOT
BRANCH   4  15
ATOM     13  O   UNL     1     113.698 131.424 141.602  0.00  0.00    +0.000 OA
ATOM     14  O   UNL     1     115.230 131.582 141.008  0.00  0.00    +0.000 OA
ATOM     15  C   UNL     1     113.977 129.478 140.652  0.00  0.00    +0.000 A 
ATOM     16  C   UNL     1     113.628 130.100 141.067  0.00  0.00    +0.000 A 
ATOM     17  C   UNL     1     114.743 129.557 140.355  0.00  0.00    +0.000 A 
ATOM     18  C   UNL     1     114.046 130.801 141.186  0.00  0.00    +0.000 A 
ATOM     19  C   UNL     1     115.160 130.259 140.474  0.00  0.00    +0.000 A 
ATOM     20  C   UNL     1     114.812 130.881 140.890  0.00  0.00    +0.000 A 
ENDBRANCH   4  15
BRANCH   5  21
ATOM     21  O   UNL     1     111.978 126.711 137.968  0.00  0.00    +0.000 OA
BRANCH  21  29
ATOM     22  O   UNL     1     113.168 126.044 137.540  0.00  0.00    +0.000 OA
ATOM     23  O   UNL     1     111.796 124.273 136.489  0.00  0.00    +0.000 OA
ATOM     24  O   UNL     1     111.064 125.530 137.267  0.00  0.00    +0.000 OA
ATOM     25  O   UNL     1     113.442 124.197 136.412  0.00  0.00    +0.000 OA
ATOM     26  C   UNL     1     112.253 124.863 136.839  0.00  0.00    +0.000 C 
ATOM     27  C   UNL     1     111.887 125.493 137.229  0.00  0.00    +0.000 C 
ATOM     28  C   UNL     1     113.076 124.826 136.801  0.00  0.00    +0.000 C 
ATOM     29  C   UNL     1     112.344 126.083 137.579  0.00  0.00    +0.000 C 
ATOM     30  C   UNL     1     113.534 125.416 137.152  0.00  0.00    +0.000 C 
BRANCH  30  33
ATOM     31  O   UNL     1     114.779 124.977 137.698  0.00  0.00    +0.000 OA
ATOM     32  O   UNL     1     114.757 125.740 136.490  0.00  0.00    +0.000 OA
ATOM     33  C   UNL     1     114.356 125.378 137.113  0.00  0.00    +0.000 C 
ENDBRANCH  30  33
ENDBRANCH  21  29
ENDBRANCH   5  21
TORSDOF 4
ENDMDL
MODEL 6
REMARK VINA RESULT:      -9.7      3.872      7.117
REMARK  Name = 42607977
REMARK  4 active torsions:
REMARK  status: ('A' for Active; 'I' for Inactive)
REMARK    1  A    between atoms: O_2  and  C_16
REMARK    2  A    between atoms: O_2  and  C_20
REMARK    3  A    between atoms: C_17  and  C_18
REMARK    4  A    between atoms: C_19  and  C_27
REMARK                            x       y       z     vdW  Elec       q    Type
REMARK                         _______ _______ _______ _____ _____    ______ ____
ROOT
ATOM      1  O   UNL     1     106.593 125.760 146.187  0.00  0.00    +0.000 OA
ATOM      2  O   UNL     1     106.041 128.415 145.190  0.00  0.00    +0.000 OA
ATOM      3  O   UNL     1     106.578 128.214 146.514  0.00  0.00    +0.000 OA
ATOM      4  C   UNL     1     106.856 126.083 146.899  0.00  0.00    +0.000 C 
ATOM      5  C   UNL     1     105.771 126.416 144.215  0.00  0.00    +0.000 A 
ATOM      6  C   UNL     1     106.851 126.901 147.008  0.00  0.00    +0.000 C 
ATOM      7  C   UNL     1     106.324 126.254 145.584  0.00  0.00    +0.000 A 
ATOM      8  C   UNL     1     106.319 127.072 145.692  0.00  0.00    +0.000 A 
ATOM      9  C   UNL     1     106.052 125.906 144.847  0.00  0.00    +0.000 A 
ATOM     10  C   UNL     1     106.583 127.395 146.404  0.00  0.00    +0.000 C 
ATOM     11  C   UNL     1     105.766 127.268 144.329  0.00  0.00    +0.000 A 
ATOM     12  C   UNL     1     106.042 127.598 145.072  0.00  0.00    +0.000 A 
ENDROOT
BRANCH   4  15
ATOM     13  O   UNL     1     106.323 124.459 149.189  0.00  0.00    +0.000 OA
ATOM     14  O   UNL     1     107.930 124.105 149.312  0.00  0.00    +0.000 OA
ATOM     15  C   UNL     1     107.125 125.589 147.502  0.00  0.00    +0.000 A 
ATOM     16  C   UNL     1     106.589 125.271 148.044  0.00  0.00    +0.000 A 
ATOM     17  C   UNL     1     107.928 125.411 147.564  0.00  0.00    +0.000 A 
ATOM     18  C   UNL     1     106.858 124.777 148.648  0.00  0.00    +0.000 A 
ATOM     19  C   UNL     1     108.196 124.917 148.167  0.00  0.00    +0.000 A 
ATOM     20  C   UNL     1     107.661 124.600 148.709  0.00  0.00    +0.000 A 
ENDBRANCH   4  15
BRANCH   5  21
ATOM     21  O   UNL     1     105.508 126.090 143.504  0.00  0.00    +0.000 OA
BRANCH  21  29
ATOM     22  O   UNL     1     106.641 126.415 142.696  0.00  0.00    +0.000 OA
ATOM     23  O   UNL     1     106.505 124.193 141.613  0.00  0.00    +0.000 OA
ATOM     24  O   UNL     1     105.418 124.609 142.782  0.00  0.00    +0.000 OA
ATOM     25  O   UNL     1     107.683 125.258 141.166  0.00  0.00    +0.000 OA
ATOM     26  C   UNL     1     106.551 124.934 141.974  0.00  0.00    +0.000 C 
ATOM     27  C   UNL     1     106.007 125.142 142.559  0.00  0.00    +0.000 C 
ATOM     28  C   UNL     1     107.139 125.467 141.751  0.00  0.00    +0.000 C 
ATOM     29  C   UNL     1     106.052 125.883 142.920  0.00  0.00    +0.000 C 
ATOM     30  C   UNL     1     107.185 126.207 142.112  0.00  0.00    +0.000 C 
BRANCH  30  33
ATOM     31  O   UNL     1     108.513 126.715 142.253  0.00  0.00    +0.000 OA
ATOM     32  O   UNL     1     107.623 127.297 141.299  0.00  0.00    +0.000 OA
ATOM     33  C   UNL     1     107.773 126.739 141.888  0.00  0.00    +0.000 C 
ENDBRANCH  30  33
ENDBRANCH  21  29
ENDBRANCH   5  21
TORSDOF 4
ENDMDL
MODEL 7
REMARK VINA RESULT:      -9.6      6.994      8.115
REMARK  Name = 42607977
REMARK  4 active torsions:
REMARK  status: ('A' for Active; 'I' for Inactive)
REMARK    1  A    between atoms: O_2  and  C_16
REMARK    2  A    between atoms: O_2  and  C_20
REMARK    3  A    between atoms: C_17  and  C_18
REMARK    4  A    between atoms: C_19  and  C_27
REMARK                            x       y       z     vdW  Elec       q    Type
REMARK                         _______ _______ _______ _____ _____    ______ ____
ROOT
ATOM      1  O   UNL     1     110.261 127.420 136.406  0.00  0.00    +0.000 OA
ATOM      2  O   UNL     1     110.781 124.740 135.459  0.00  0.00    +0.000 OA
ATOM      3  O   UNL     1     110.143 125.718 134.612  0.00  0.00    +0.000 OA
ATOM      4  C   UNL     1     109.924 127.611 135.677  0.00  0.00    +0.000 C 
ATOM      5  C   UNL     1     111.218 125.686 137.442  0.00  0.00    +0.000 A 
ATOM      6  C   UNL     1     109.885 127.044 135.080  0.00  0.00    +0.000 C 
ATOM      7  C   UNL     1     110.558 126.661 136.537  0.00  0.00    +0.000 A 
ATOM      8  C   UNL     1     110.519 126.094 135.939  0.00  0.00    +0.000 A 
ATOM      9  C   UNL     1     110.906 126.475 137.300  0.00  0.00    +0.000 A 
ATOM     10  C   UNL     1     110.182 126.285 135.211  0.00  0.00    +0.000 C 
ATOM     11  C   UNL     1     111.176 125.096 136.820  0.00  0.00    +0.000 A 
ATOM     12  C   UNL     1     110.825 125.301 136.063  0.00  0.00    +0.000 A 
ENDROOT
BRANCH   4  15
ATOM     13  O   UNL     1     107.874 129.565 136.058  0.00  0.00    +0.000 OA
ATOM     14  O   UNL     1     108.734 130.644 135.154  0.00  0.00    +0.000 OA
ATOM     15  C   UNL     1     109.627 128.369 135.546  0.00  0.00    +0.000 A 
ATOM     16  C   UNL     1     108.899 128.588 135.868  0.00  0.00    +0.000 A 
ATOM     17  C   UNL     1     110.057 128.909 135.094  0.00  0.00    +0.000 A 
ATOM     18  C   UNL     1     108.601 129.346 135.737  0.00  0.00    +0.000 A 
ATOM     19  C   UNL     1     109.759 129.667 134.964  0.00  0.00    +0.000 A 
ATOM     20  C   UNL     1     109.032 129.886 135.285  0.00  0.00    +0.000 A 
ENDBRANCH   4  15
BRANCH   5  21
ATOM     21  O   UNL     1     111.554 125.498 138.172  0.00  0.00    +0.000 OA
BRANCH  21  29
ATOM     22  O   UNL     1     112.926 125.384 137.790  0.00  0.00    +0.000 OA
ATOM     23  O   UNL     1     113.589 126.693 139.783  0.00  0.00    +0.000 OA
ATOM     24  O   UNL     1     111.996 126.371 139.500  0.00  0.00    +0.000 OA
ATOM     25  O   UNL     1     114.740 126.143 138.737  0.00  0.00    +0.000 OA
ATOM     26  C   UNL     1     113.368 126.257 139.118  0.00  0.00    +0.000 C 
ATOM     27  C   UNL     1     112.571 126.095 138.977  0.00  0.00    +0.000 C 
ATOM     28  C   UNL     1     113.943 125.981 138.595  0.00  0.00    +0.000 C 
ATOM     29  C   UNL     1     112.350 125.659 138.313  0.00  0.00    +0.000 C 
ATOM     30  C   UNL     1     113.722 125.545 137.931  0.00  0.00    +0.000 C 
BRANCH  30  33
ATOM     31  O   UNL     1     114.615 124.514 137.504  0.00  0.00    +0.000 OA
ATOM     32  O   UNL     1     114.556 125.750 136.789  0.00  0.00    +0.000 OA
ATOM     33  C   UNL     1     114.297 125.270 137.408  0.00  0.00    +0.000 C 
ENDBRANCH  30  33
ENDBRANCH  21  29
ENDBRANCH   5  21
TORSDOF 4
ENDMDL
MODEL 8
REMARK VINA RESULT:      -9.6      6.744      7.916
REMARK  Name = 42607977
REMARK  4 active torsions:
REMARK  status: ('A' for Active; 'I' for Inactive)
REMARK    1  A    between atoms: O_2  and  C_16
REMARK    2  A    between atoms: O_2  and  C_20
REMARK    3  A    between atoms: C_17  and  C_18
REMARK    4  A    between atoms: C_19  and  C_27
REMARK                            x       y       z     vdW  Elec       q    Type
REMARK                         _______ _______ _______ _____ _____    ______ ____
ROOT
ATOM      1  O   UNL     1     110.337 127.934 136.000  0.00  0.00    +0.000 OA
ATOM      2  O   UNL     1     107.891 129.459 135.808  0.00  0.00    +0.000 OA
ATOM      3  O   UNL     1     107.873 128.018 135.777  0.00  0.00    +0.000 OA
ATOM      4  C   UNL     1     109.903 127.234 135.946  0.00  0.00    +0.000 C 
ATOM      5  C   UNL     1     110.013 130.146 136.016  0.00  0.00    +0.000 A 
ATOM      6  C   UNL     1     109.082 127.262 135.871  0.00  0.00    +0.000 C 
ATOM      7  C   UNL     1     109.949 128.662 135.979  0.00  0.00    +0.000 A 
ATOM      8  C   UNL     1     109.128 128.690 135.905  0.00  0.00    +0.000 A 
ATOM      9  C   UNL     1     110.411 129.384 136.036  0.00  0.00    +0.000 A 
ATOM     10  C   UNL     1     108.694 127.990 135.851  0.00  0.00    +0.000 C 
ATOM     11  C   UNL     1     109.158 130.174 135.939  0.00  0.00    +0.000 A 
ATOM     12  C   UNL     1     108.712 129.442 135.883  0.00  0.00    +0.000 A 
ENDROOT
BRANCH   4  15
ATOM     13  O   UNL     1     111.120 125.119 137.433  0.00  0.00    +0.000 OA
ATOM     14  O   UNL     1     111.454 124.323 136.027  0.00  0.00    +0.000 OA
ATOM     15  C   UNL     1     110.291 126.506 135.966  0.00  0.00    +0.000 A 
ATOM     16  C   UNL     1     110.511 126.177 136.690  0.00  0.00    +0.000 A 
ATOM     17  C   UNL     1     110.458 126.108 135.263  0.00  0.00    +0.000 A 
ATOM     18  C   UNL     1     110.899 125.449 136.710  0.00  0.00    +0.000 A 
ATOM     19  C   UNL     1     110.846 125.381 135.284  0.00  0.00    +0.000 A 
ATOM     20  C   UNL     1     111.066 125.051 136.007  0.00  0.00    +0.000 A 
ENDBRANCH   4  15
BRANCH   5  21
ATOM     21  O   UNL     1     110.449 130.844 136.070  0.00  0.00    +0.000 OA
BRANCH  21  29
ATOM     22  O   UNL     1     110.632 130.884 137.487  0.00  0.00    +0.000 OA
ATOM     23  O   UNL     1     110.155 133.313 137.480  0.00  0.00    +0.000 OA
ATOM     24  O   UNL     1     110.130 132.463 136.066  0.00  0.00    +0.000 OA
ATOM     25  O   UNL     1     110.497 132.543 138.898  0.00  0.00    +0.000 OA
ATOM     26  C   UNL     1     110.314 132.503 137.482  0.00  0.00    +0.000 C 
ATOM     27  C   UNL     1     110.302 132.078 136.775  0.00  0.00    +0.000 C 
ATOM     28  C   UNL     1     110.485 132.118 138.191  0.00  0.00    +0.000 C 
ATOM     29  C   UNL     1     110.461 131.268 136.777  0.00  0.00    +0.000 C 
ATOM     30  C   UNL     1     110.644 131.308 138.194  0.00  0.00    +0.000 C 
BRANCH  30  33
ATOM     31  O   UNL     1     111.597 130.866 139.163  0.00  0.00    +0.000 OA
ATOM     32  O   UNL     1     110.206 130.598 139.352  0.00  0.00    +0.000 OA
ATOM     33  C   UNL     1     110.816 130.924 138.902  0.00  0.00    +0.000 C 
ENDBRANCH  30  33
ENDBRANCH  21  29
ENDBRANCH   5  21
TORSDOF 4
ENDMDL
MODEL 9
REMARK VINA RESULT:      -9.6      7.409      9.108
REMARK  Name = 42607977
REMARK  4 active torsions:
REMARK  status: ('A' for Active; 'I' for Inactive)
REMARK    1  A    between atoms: O_2  and  C_16
REMARK    2  A    between atoms: O_2  and  C_20
REMARK    3  A    between atoms: C_17  and  C_18
REMARK    4  A    between atoms: C_19  and  C_27
REMARK                            x       y       z     vdW  Elec       q    Type
REMARK                         _______ _______ _______ _____ _____    ______ ____
ROOT
ATOM      1  O   UNL     1     111.154 128.547 136.495  0.00  0.00    +0.000 OA
ATOM      2  O   UNL     1     113.758 128.528 135.244  0.00  0.00    +0.000 OA
ATOM      3  O   UNL     1     112.689 129.345 134.724  0.00  0.00    +0.000 OA
ATOM      4  C   UNL     1     110.889 129.089 135.933  0.00  0.00    +0.000 C 
ATOM      5  C   UNL     1     113.004 127.415 137.036  0.00  0.00    +0.000 A 
ATOM      6  C   UNL     1     111.401 129.355 135.343  0.00  0.00    +0.000 C 
ATOM      7  C   UNL     1     111.931 128.271 136.468  0.00  0.00    +0.000 A 
ATOM      8  C   UNL     1     112.443 128.537 135.878  0.00  0.00    +0.000 A 
ATOM      9  C   UNL     1     112.196 127.707 137.059  0.00  0.00    +0.000 A 
ATOM     10  C   UNL     1     112.177 129.079 135.315  0.00  0.00    +0.000 C 
ATOM     11  C   UNL     1     113.536 127.692 136.421  0.00  0.00    +0.000 A 
ATOM     12  C   UNL     1     113.254 128.257 135.838  0.00  0.00    +0.000 A 
ENDROOT
BRANCH   4  15
ATOM     13  O   UNL     1     108.080 128.603 135.722  0.00  0.00    +0.000 OA
ATOM     14  O   UNL     1     107.781 130.194 136.043  0.00  0.00    +0.000 OA
ATOM     15  C   UNL     1     110.112 129.366 135.960  0.00  0.00    +0.000 A 
ATOM     16  C   UNL     1     109.485 128.846 135.827  0.00  0.00    +0.000 A 
ATOM     17  C   UNL     1     109.962 130.161 136.120  0.00  0.00    +0.000 A 
ATOM     18  C   UNL     1     108.708 129.122 135.855  0.00  0.00    +0.000 A 
ATOM     19  C   UNL     1     109.186 130.437 136.148  0.00  0.00    +0.000 A 
ATOM     20  C   UNL     1     108.558 129.918 136.015  0.00  0.00    +0.000 A 
ENDBRANCH   4  15
BRANCH   5  21
ATOM     21  O   UNL     1     113.267 126.873 137.599  0.00  0.00    +0.000 OA
BRANCH  21  29
ATOM     22  O   UNL     1     112.569 125.708 137.157  0.00  0.00    +0.000 OA
ATOM     23  O   UNL     1     114.621 124.360 137.469  0.00  0.00    +0.000 OA
ATOM     24  O   UNL     1     114.635 125.975 137.807  0.00  0.00    +0.000 OA
ATOM     25  O   UNL     1     113.239 123.644 136.922  0.00  0.00    +0.000 OA
ATOM     26  C   UNL     1     113.937 124.809 137.365  0.00  0.00    +0.000 C 
ATOM     27  C   UNL     1     113.944 125.617 137.534  0.00  0.00    +0.000 C 
ATOM     28  C   UNL     1     113.245 124.452 137.092  0.00  0.00    +0.000 C 
ATOM     29  C   UNL     1     113.260 126.066 137.430  0.00  0.00    +0.000 C 
ATOM     30  C   UNL     1     112.561 124.901 136.988  0.00  0.00    +0.000 C 
BRANCH  30  33
ATOM     31  O   UNL     1     111.323 124.238 137.251  0.00  0.00    +0.000 OA
ATOM     32  O   UNL     1     111.727 124.489 135.904  0.00  0.00    +0.000 OA
ATOM     33  C   UNL     1     111.871 124.543 136.715  0.00  0.00    +0.000 C 
ENDBRANCH  30  33
ENDBRANCH  21  29
ENDBRANCH   5  21
TORSDOF 4
ENDMDL
MODEL 10
REMARK VINA RESULT:      -9.6      7.586      9.604
REMARK  Name = 42607977
REMARK  4 active torsions:
REMARK  status: ('A' for Active; 'I' for Inactive)
REMARK    1  A    between atoms: O_2  and  C_16
REMARK    2  A    between atoms: O_2  and  C_20
REMARK    3  A    between atoms: C_17  and  C_18
REMARK    4  A    between atoms: C_19  and  C_27
REMARK                            x       y       z     vdW  Elec       q    Type
REMARK                         _______ _______ _______ _____ _____    ______ ____
ROOT
ATOM      1  O   UNL     1     112.602 128.325 135.550  0.00  0.00    +0.000 OA
ATOM      2  O   UNL     1     109.833 128.420 134.730  0.00  0.00    +0.000 OA
ATOM      3  O   UNL     1     110.682 129.581 134.620  0.00  0.00    +0.000 OA
ATOM      4  C   UNL     1     112.691 129.117 135.335  0.00  0.00    +0.000 C 
ATOM      5  C   UNL     1     111.034 126.733 135.585  0.00  0.00    +0.000 A 
ATOM      6  C   UNL     1     112.051 129.535 135.026  0.00  0.00    +0.000 C 
ATOM      7  C   UNL     1     111.872 127.952 135.455  0.00  0.00    +0.000 A 
ATOM      8  C   UNL     1     111.232 128.370 135.145  0.00  0.00    +0.000 A 
ATOM      9  C   UNL     1     111.792 127.127 135.682  0.00  0.00    +0.000 A 
ATOM     10  C   UNL     1     111.322 129.162 134.930  0.00  0.00    +0.000 C 
ATOM     11  C   UNL     1     110.368 127.169 135.262  0.00  0.00    +0.000 A 
ATOM     12  C   UNL     1     110.468 127.993 135.041  0.00  0.00    +0.000 A 
ENDROOT
BRANCH   4  15
ATOM     13  O   UNL     1     114.511 130.618 136.949  0.00  0.00    +0.000 OA
ATOM     14  O   UNL     1     115.609 130.610 135.717  0.00  0.00    +0.000 OA
ATOM     15  C   UNL     1     113.421 129.490 135.431  0.00  0.00    +0.000 A 
ATOM     16  C   UNL     1     113.601 129.868 136.143  0.00  0.00    +0.000 A 
ATOM     17  C   UNL     1     113.970 129.486 134.815  0.00  0.00    +0.000 A 
ATOM     18  C   UNL     1     114.330 130.241 136.238  0.00  0.00    +0.000 A 
ATOM     19  C   UNL     1     114.699 129.860 134.911  0.00  0.00    +0.000 A 
ATOM     20  C   UNL     1     114.879 130.237 135.622  0.00  0.00    +0.000 A 
ENDBRANCH   4  15
BRANCH   5  21
ATOM     21  O   UNL     1     110.947 125.941 135.800  0.00  0.00    +0.000 OA
BRANCH  21  29
ATOM     22  O   UNL     1     110.461 126.192 137.121  0.00  0.00    +0.000 OA
ATOM     23  O   UNL     1     111.661 124.190 137.943  0.00  0.00    +0.000 OA
ATOM     24  O   UNL     1     111.748 124.606 136.349  0.00  0.00    +0.000 OA
ATOM     25  O   UNL     1     110.775 125.108 138.988  0.00  0.00    +0.000 OA
ATOM     26  C   UNL     1     111.261 124.857 137.669  0.00  0.00    +0.000 C 
ATOM     27  C   UNL     1     111.304 125.066 136.871  0.00  0.00    +0.000 C 
ATOM     28  C   UNL     1     110.818 125.317 138.191  0.00  0.00    +0.000 C 
ATOM     29  C   UNL     1     110.904 125.733 136.597  0.00  0.00    +0.000 C 
ATOM     30  C   UNL     1     110.418 125.984 137.917  0.00  0.00    +0.000 C 
BRANCH  30  33
ATOM     31  O   UNL     1     110.346 127.017 138.901  0.00  0.00    +0.000 OA
ATOM     32  O   UNL     1     109.160 126.327 138.501  0.00  0.00    +0.000 OA
ATOM     33  C   UNL     1     109.975 126.443 138.440  0.00  0.00    +0.000 C 
ENDBRANCH  30  33
ENDBRANCH  21  29
ENDBRANCH   5  21
TORSDOF 4
ENDMDL
