MODEL 1
REMARK VINA RESULT:     -10.1      0.000      0.000
REMARK  Name = 44258862
REMARK  8 active torsions:
REMARK  status: ('A' for Active; 'I' for Inactive)
REMARK    1  A    between atoms: O_2  and  C_14
REMARK    2  A    between atoms: O_2  and  C_21
REMARK    3  A    between atoms: O_3  and  C_18
REMARK    4  A    between atoms: O_3  and  C_20
REMARK    5  A    between atoms: C_17  and  C_19
REMARK    6  A    between atoms: C_21  and  C_26
REMARK    7  A    between atoms: C_22  and  C_27
REMARK    8  A    between atoms: C_32  and  C_37
REMARK                            x       y       z     vdW  Elec       q    Type
REMARK                         _______ _______ _______ _____ _____    ______ ____
ROOT
ATOM      1  O   UNL     1     112.868 127.899 136.706  0.00  0.00    +0.000 OA
ATOM      2  O   UNL     1     112.672 129.437 135.170  0.00  0.00    +0.000 OA
ATOM      3  O   UNL     1     110.694 128.096 136.736  0.00  0.00    +0.000 OA
ATOM      4  C   UNL     1     111.684 128.767 135.953  0.00  0.00    +0.000 C 
ATOM      5  C   UNL     1     112.475 128.885 135.750  0.00  0.00    +0.000 C 
ATOM      6  C   UNL     1     111.485 128.214 136.533  0.00  0.00    +0.000 C 
ATOM      7  C   UNL     1     113.067 128.451 136.127  0.00  0.00    +0.000 C 
ATOM      8  C   UNL     1     112.077 127.780 136.910  0.00  0.00    +0.000 C 
ENDROOT
BRANCH   7  10
ATOM      9  O   UNL     1     114.312 127.939 135.649  0.00  0.00    +0.000 OA
ATOM     10  C   UNL     1     113.857 128.569 135.924  0.00  0.00    +0.000 C 
ENDBRANCH   7  10
BRANCH   4  11
ATOM     11  O   UNL     1     111.092 129.200 135.576  0.00  0.00    +0.000 OA
BRANCH  11  13
ATOM     12  O   UNL     1     111.282 130.312 136.452  0.00  0.00    +0.000 OA
ATOM     13  C   UNL     1     110.813 129.898 135.915  0.00  0.00    +0.000 C 
BRANCH  13  14
ATOM     14  C   UNL     1     110.065 130.183 135.717  0.00  0.00    +0.000 C 
ATOM     15  C   UNL     1     109.905 130.991 135.760  0.00  0.00    +0.000 C 
BRANCH  15  17
ATOM     16  O   UNL     1     106.911 132.130 134.967  0.00  0.00    +0.000 OA
ATOM     17  C   UNL     1     109.157 131.276 135.562  0.00  0.00    +0.000 A 
ATOM     18  C   UNL     1     109.035 131.641 134.833  0.00  0.00    +0.000 A 
ATOM     19  C   UNL     1     108.531 131.195 136.094  0.00  0.00    +0.000 A 
ATOM     20  C   UNL     1     108.286 131.926 134.635  0.00  0.00    +0.000 A 
ATOM     21  C   UNL     1     107.782 131.479 135.895  0.00  0.00    +0.000 A 
ATOM     22  C   UNL     1     107.660 131.845 135.165  0.00  0.00    +0.000 A 
ENDBRANCH  15  17
ENDBRANCH  13  14
ENDBRANCH  11  13
ENDBRANCH   4  11
BRANCH   8  23
ATOM     23  O   UNL     1     111.879 127.229 137.489  0.00  0.00    +0.000 OA
BRANCH  23  28
ATOM     24  O   UNL     1     113.209 126.171 138.860  0.00  0.00    +0.000 OA
ATOM     25  O   UNL     1     112.333 128.457 138.493  0.00  0.00    +0.000 OA
ATOM     26  O   UNL     1     113.076 128.955 139.625  0.00  0.00    +0.000 OA
ATOM     27  O   UNL     1     114.737 127.104 141.157  0.00  0.00    +0.000 OA
ATOM     28  C   UNL     1     112.398 127.081 138.113  0.00  0.00    +0.000 A 
ATOM     29  C   UNL     1     112.690 126.318 138.236  0.00  0.00    +0.000 A 
ATOM     30  C   UNL     1     112.625 127.695 138.615  0.00  0.00    +0.000 A 
ATOM     31  C   UNL     1     113.144 127.547 139.239  0.00  0.00    +0.000 A 
ATOM     32  C   UNL     1     113.436 126.786 139.361  0.00  0.00    +0.000 A 
ATOM     33  C   UNL     1     113.373 128.196 139.755  0.00  0.00    +0.000 A 
ATOM     34  C   UNL     1     113.977 126.619 140.008  0.00  0.00    +0.000 A 
ATOM     35  C   UNL     1     113.913 128.048 140.406  0.00  0.00    +0.000 A 
ATOM     36  C   UNL     1     114.217 127.254 140.534  0.00  0.00    +0.000 A 
BRANCH  29  38
ATOM     37  O   UNL     1     111.782 123.863 136.226  0.00  0.00    +0.000 OA
ATOM     38  C   UNL     1     112.462 125.705 137.734  0.00  0.00    +0.000 A 
ATOM     39  C   UNL     1     111.703 125.386 137.788  0.00  0.00    +0.000 A 
ATOM     40  C   UNL     1     112.995 125.409 137.177  0.00  0.00    +0.000 A 
ATOM     41  C   UNL     1     111.477 124.772 137.286  0.00  0.00    +0.000 A 
ATOM     42  C   UNL     1     112.768 124.795 136.675  0.00  0.00    +0.000 A 
ATOM     43  C   UNL     1     112.009 124.477 136.729  0.00  0.00    +0.000 A 
ENDBRANCH  29  38
ENDBRANCH  23  28
ENDBRANCH   8  23
TORSDOF 8
ENDMDL
MODEL 2
REMARK VINA RESULT:     -10.0      7.651      9.487
REMARK  Name = 44258862
REMARK  8 active torsions:
REMARK  status: ('A' for Active; 'I' for Inactive)
REMARK    1  A    between atoms: O_2  and  C_14
REMARK    2  A    between atoms: O_2  and  C_21
REMARK    3  A    between atoms: O_3  and  C_18
REMARK    4  A    between atoms: O_3  and  C_20
REMARK    5  A    between atoms: C_17  and  C_19
REMARK    6  A    between atoms: C_21  and  C_26
REMARK    7  A    between atoms: C_22  and  C_27
REMARK    8  A    between atoms: C_32  and  C_37
REMARK                            x       y       z     vdW  Elec       q    Type
REMARK                         _______ _______ _______ _____ _____    ______ ____
ROOT
ATOM      1  O   UNL     1     106.088 126.439 142.086  0.00  0.00    +0.000 OA
ATOM      2  O   UNL     1     105.170 127.504 143.754  0.00  0.00    +0.000 OA
ATOM      3  O   UNL     1     106.439 124.947 143.640  0.00  0.00    +0.000 OA
ATOM      4  C   UNL     1     105.805 126.226 143.697  0.00  0.00    +0.000 C 
ATOM      5  C   UNL     1     105.559 126.918 143.322  0.00  0.00    +0.000 C 
ATOM      6  C   UNL     1     106.193 125.639 143.265  0.00  0.00    +0.000 C 
ATOM      7  C   UNL     1     105.700 127.025 142.517  0.00  0.00    +0.000 C 
ATOM      8  C   UNL     1     106.335 125.746 142.459  0.00  0.00    +0.000 C 
ENDROOT
BRANCH   7  10
ATOM      9  O   UNL     1     104.920 127.680 141.514  0.00  0.00    +0.000 OA
ATOM     10  C   UNL     1     105.454 127.717 142.143  0.00  0.00    +0.000 C 
ENDBRANCH   7  10
BRANCH   4  11
ATOM     11  O   UNL     1     105.663 126.120 144.503  0.00  0.00    +0.000 OA
BRANCH  11  13
ATOM     12  O   UNL     1     106.742 126.942 144.949  0.00  0.00    +0.000 OA
ATOM     13  C   UNL     1     106.257 126.283 145.051  0.00  0.00    +0.000 C 
BRANCH  13  14
ATOM     14  C   UNL     1     106.365 125.787 145.701  0.00  0.00    +0.000 C 
ATOM     15  C   UNL     1     106.559 126.107 146.436  0.00  0.00    +0.000 C 
BRANCH  15  17
ATOM     16  O   UNL     1     106.994 124.124 149.038  0.00  0.00    +0.000 OA
ATOM     17  C   UNL     1     106.668 125.611 147.087  0.00  0.00    +0.000 A 
ATOM     18  C   UNL     1     106.023 125.217 147.417  0.00  0.00    +0.000 A 
ATOM     19  C   UNL     1     107.422 125.510 147.406  0.00  0.00    +0.000 A 
ATOM     20  C   UNL     1     106.132 124.722 148.067  0.00  0.00    +0.000 A 
ATOM     21  C   UNL     1     107.531 125.014 148.056  0.00  0.00    +0.000 A 
ATOM     22  C   UNL     1     106.885 124.619 148.387  0.00  0.00    +0.000 A 
ENDBRANCH  15  17
ENDBRANCH  13  14
ENDBRANCH  11  13
ENDBRANCH   4  11
BRANCH   8  23
ATOM     23  O   UNL     1     106.723 125.160 142.028  0.00  0.00    +0.000 OA
BRANCH  23  28
ATOM     24  O   UNL     1     107.655 125.304 140.059  0.00  0.00    +0.000 OA
ATOM     25  O   UNL     1     108.016 126.129 142.365  0.00  0.00    +0.000 OA
ATOM     26  O   UNL     1     109.203 126.839 141.956  0.00  0.00    +0.000 OA
ATOM     27  O   UNL     1     110.041 126.712 139.161  0.00  0.00    +0.000 OA
ATOM     28  C   UNL     1     107.249 125.369 141.428  0.00  0.00    +0.000 A 
ATOM     29  C   UNL     1     107.129 125.095 140.659  0.00  0.00    +0.000 A 
ATOM     30  C   UNL     1     107.895 125.854 141.596  0.00  0.00    +0.000 A 
ATOM     31  C   UNL     1     108.421 126.063 140.996  0.00  0.00    +0.000 A 
ATOM     32  C   UNL     1     108.301 125.789 140.228  0.00  0.00    +0.000 A 
ATOM     33  C   UNL     1     109.091 126.568 141.184  0.00  0.00    +0.000 A 
ATOM     34  C   UNL     1     108.841 125.999 139.594  0.00  0.00    +0.000 A 
ATOM     35  C   UNL     1     109.641 126.790 140.563  0.00  0.00    +0.000 A 
ATOM     36  C   UNL     1     109.516 126.504 139.763  0.00  0.00    +0.000 A 
BRANCH  29  38
ATOM     37  O   UNL     1     104.544 123.155 139.989  0.00  0.00    +0.000 OA
ATOM     38  C   UNL     1     106.482 124.610 140.491  0.00  0.00    +0.000 A 
ATOM     39  C   UNL     1     105.842 124.909 140.065  0.00  0.00    +0.000 A 
ATOM     40  C   UNL     1     106.477 123.826 140.750  0.00  0.00    +0.000 A 
ATOM     41  C   UNL     1     105.196 124.423 139.898  0.00  0.00    +0.000 A 
ATOM     42  C   UNL     1     105.830 123.342 140.583  0.00  0.00    +0.000 A 
ATOM     43  C   UNL     1     105.190 123.641 140.156  0.00  0.00    +0.000 A 
ENDBRANCH  29  38
ENDBRANCH  23  28
ENDBRANCH   8  23
TORSDOF 8
ENDMDL
MODEL 3
REMARK VINA RESULT:     -10.0      8.586      9.666
REMARK  Name = 44258862
REMARK  8 active torsions:
REMARK  status: ('A' for Active; 'I' for Inactive)
REMARK    1  A    between atoms: O_2  and  C_14
REMARK    2  A    between atoms: O_2  and  C_21
REMARK    3  A    between atoms: O_3  and  C_18
REMARK    4  A    between atoms: O_3  and  C_20
REMARK    5  A    between atoms: C_17  and  C_19
REMARK    6  A    between atoms: C_21  and  C_26
REMARK    7  A    between atoms: C_22  and  C_27
REMARK    8  A    between atoms: C_32  and  C_37
REMARK                            x       y       z     vdW  Elec       q    Type
REMARK                         _______ _______ _______ _____ _____    ______ ____
ROOT
ATOM      1  O   UNL     1     106.524 127.280 143.632  0.00  0.00    +0.000 OA
ATOM      2  O   UNL     1     105.870 127.046 141.564  0.00  0.00    +0.000 OA
ATOM      3  O   UNL     1     104.661 128.411 143.763  0.00  0.00    +0.000 OA
ATOM      4  C   UNL     1     105.266 127.728 142.663  0.00  0.00    +0.000 C 
ATOM      5  C   UNL     1     105.883 127.275 142.356  0.00  0.00    +0.000 C 
ATOM      6  C   UNL     1     105.278 127.958 143.456  0.00  0.00    +0.000 C 
ATOM      7  C   UNL     1     106.512 127.051 142.841  0.00  0.00    +0.000 C 
ATOM      8  C   UNL     1     105.907 127.734 143.941  0.00  0.00    +0.000 C 
ENDROOT
BRANCH   7  10
ATOM      9  O   UNL     1     107.910 126.837 142.640  0.00  0.00    +0.000 OA
ATOM     10  C   UNL     1     107.128 126.598 142.533  0.00  0.00    +0.000 C 
ENDBRANCH   7  10
BRANCH   4  11
ATOM     11  O   UNL     1     104.637 127.952 142.178  0.00  0.00    +0.000 OA
BRANCH  11  13
ATOM     12  O   UNL     1     105.269 128.988 141.427  0.00  0.00    +0.000 OA
ATOM     13  C   UNL     1     104.619 128.707 141.849  0.00  0.00    +0.000 C 
BRANCH  13  14
ATOM     14  C   UNL     1     103.951 129.182 141.942  0.00  0.00    +0.000 C 
ATOM     15  C   UNL     1     103.709 129.680 141.330  0.00  0.00    +0.000 C 
BRANCH  15  17
ATOM     16  O   UNL     1     101.037 131.579 141.702  0.00  0.00    +0.000 OA
ATOM     17  C   UNL     1     103.041 130.155 141.423  0.00  0.00    +0.000 A 
ATOM     18  C   UNL     1     103.026 130.734 142.009  0.00  0.00    +0.000 A 
ATOM     19  C   UNL     1     102.389 130.049 140.928  0.00  0.00    +0.000 A 
ATOM     20  C   UNL     1     102.357 131.208 142.102  0.00  0.00    +0.000 A 
ATOM     21  C   UNL     1     101.721 130.524 141.021  0.00  0.00    +0.000 A 
ATOM     22  C   UNL     1     101.705 131.104 141.609  0.00  0.00    +0.000 A 
ENDBRANCH  15  17
ENDBRANCH  13  14
ENDBRANCH  11  13
ENDBRANCH   4  11
BRANCH   8  23
ATOM     23  O   UNL     1     105.919 127.963 144.732  0.00  0.00    +0.000 OA
BRANCH  23  28
ATOM     24  O   UNL     1     107.038 127.117 146.406  0.00  0.00    +0.000 OA
ATOM     25  O   UNL     1     105.213 126.477 144.860  0.00  0.00    +0.000 OA
ATOM     26  O   UNL     1     105.092 125.186 145.491  0.00  0.00    +0.000 OA
ATOM     27  O   UNL     1     106.852 124.529 147.728  0.00  0.00    +0.000 OA
ATOM     28  C   UNL     1     106.174 127.433 145.311  0.00  0.00    +0.000 A 
ATOM     29  C   UNL     1     106.783 127.647 145.827  0.00  0.00    +0.000 A 
ATOM     30  C   UNL     1     105.821 126.691 145.376  0.00  0.00    +0.000 A 
ATOM     31  C   UNL     1     106.076 126.161 145.955  0.00  0.00    +0.000 A 
ATOM     32  C   UNL     1     106.684 126.374 146.469  0.00  0.00    +0.000 A 
ATOM     33  C   UNL     1     105.700 125.390 146.011  0.00  0.00    +0.000 A 
ATOM     34  C   UNL     1     106.959 125.832 147.076  0.00  0.00    +0.000 A 
ATOM     35  C   UNL     1     105.962 124.835 146.612  0.00  0.00    +0.000 A 
ATOM     36  C   UNL     1     106.595 125.057 147.148  0.00  0.00    +0.000 A 
BRANCH  29  38
ATOM     37  O   UNL     1     108.197 130.617 145.568  0.00  0.00    +0.000 OA
ATOM     38  C   UNL     1     107.136 128.389 145.762  0.00  0.00    +0.000 A 
ATOM     39  C   UNL     1     106.728 129.063 146.008  0.00  0.00    +0.000 A 
ATOM     40  C   UNL     1     107.898 128.458 145.452  0.00  0.00    +0.000 A 
ATOM     41  C   UNL     1     107.082 129.806 145.943  0.00  0.00    +0.000 A 
ATOM     42  C   UNL     1     108.251 129.201 145.387  0.00  0.00    +0.000 A 
ATOM     43  C   UNL     1     107.843 129.875 145.633  0.00  0.00    +0.000 A 
ENDBRANCH  29  38
ENDBRANCH  23  28
ENDBRANCH   8  23
TORSDOF 8
ENDMDL
MODEL 4
REMARK VINA RESULT:     -10.0     10.433     12.004
REMARK  Name = 44258862
REMARK  8 active torsions:
REMARK  status: ('A' for Active; 'I' for Inactive)
REMARK    1  A    between atoms: O_2  and  C_14
REMARK    2  A    between atoms: O_2  and  C_21
REMARK    3  A    between atoms: O_3  and  C_18
REMARK    4  A    between atoms: O_3  and  C_20
REMARK    5  A    between atoms: C_17  and  C_19
REMARK    6  A    between atoms: C_21  and  C_26
REMARK    7  A    between atoms: C_22  and  C_27
REMARK    8  A    between atoms: C_32  and  C_37
REMARK                            x       y       z     vdW  Elec       q    Type
REMARK                         _______ _______ _______ _____ _____    ______ ____
ROOT
ATOM      1  O   UNL     1     105.004 124.976 146.692  0.00  0.00    +0.000 OA
ATOM      2  O   UNL     1     104.350 123.857 144.936  0.00  0.00    +0.000 OA
ATOM      3  O   UNL     1     106.839 125.133 145.521  0.00  0.00    +0.000 OA
ATOM      4  C   UNL     1     105.594 124.495 145.229  0.00  0.00    +0.000 C 
ATOM      5  C   UNL     1     104.825 124.296 145.449  0.00  0.00    +0.000 C 
ATOM      6  C   UNL     1     106.069 124.934 145.741  0.00  0.00    +0.000 C 
ATOM      7  C   UNL     1     104.529 124.537 146.180  0.00  0.00    +0.000 C 
ATOM      8  C   UNL     1     105.774 125.175 146.473  0.00  0.00    +0.000 C 
ENDROOT
BRANCH   7  10
ATOM      9  O   UNL     1     103.627 123.875 147.070  0.00  0.00    +0.000 OA
ATOM     10  C   UNL     1     103.760 124.338 146.400  0.00  0.00    +0.000 C 
ENDBRANCH   7  10
BRANCH   4  11
ATOM     11  O   UNL     1     105.890 124.254 144.497  0.00  0.00    +0.000 OA
BRANCH  11  13
ATOM     12  O   UNL     1     105.559 125.479 143.842  0.00  0.00    +0.000 OA
ATOM     13  C   UNL     1     105.681 124.665 143.813  0.00  0.00    +0.000 C 
BRANCH  13  14
ATOM     14  C   UNL     1     105.594 124.260 143.100  0.00  0.00    +0.000 C 
ATOM     15  C   UNL     1     105.831 124.612 142.393  0.00  0.00    +0.000 C 
BRANCH  15  17
ATOM     16  O   UNL     1     105.482 122.993 139.539  0.00  0.00    +0.000 OA
ATOM     17  C   UNL     1     105.744 124.208 141.679  0.00  0.00    +0.000 A 
ATOM     18  C   UNL     1     105.029 123.839 141.500  0.00  0.00    +0.000 A 
ATOM     19  C   UNL     1     106.373 124.172 141.146  0.00  0.00    +0.000 A 
ATOM     20  C   UNL     1     104.942 123.434 140.786  0.00  0.00    +0.000 A 
ATOM     21  C   UNL     1     106.286 123.768 140.432  0.00  0.00    +0.000 A 
ATOM     22  C   UNL     1     105.570 123.398 140.252  0.00  0.00    +0.000 A 
ENDBRANCH  15  17
ENDBRANCH  13  14
ENDBRANCH  11  13
ENDBRANCH   4  11
BRANCH   8  23
ATOM     23  O   UNL     1     106.248 125.614 146.985  0.00  0.00    +0.000 OA
BRANCH  23  28
ATOM     24  O   UNL     1     105.639 126.688 148.785  0.00  0.00    +0.000 OA
ATOM     25  O   UNL     1     105.430 126.886 146.326  0.00  0.00    +0.000 OA
ATOM     26  O   UNL     1     104.672 128.106 146.460  0.00  0.00    +0.000 OA
ATOM     27  O   UNL     1     104.114 129.145 149.132  0.00  0.00    +0.000 OA
ATOM     28  C   UNL     1     105.909 126.184 147.475  0.00  0.00    +0.000 A 
ATOM     29  C   UNL     1     105.978 126.118 148.295  0.00  0.00    +0.000 A 
ATOM     30  C   UNL     1     105.500 126.820 147.146  0.00  0.00    +0.000 A 
ATOM     31  C   UNL     1     105.160 127.390 147.636  0.00  0.00    +0.000 A 
ATOM     32  C   UNL     1     105.230 127.324 148.455  0.00  0.00    +0.000 A 
ATOM     33  C   UNL     1     104.736 128.048 147.281  0.00  0.00    +0.000 A 
ATOM     34  C   UNL     1     104.881 127.911 148.977  0.00  0.00    +0.000 A 
ATOM     35  C   UNL     1     104.381 128.645 147.786  0.00  0.00    +0.000 A 
ATOM     36  C   UNL     1     104.453 128.577 148.640  0.00  0.00    +0.000 A 
BRANCH  29  38
ATOM     37  O   UNL     1     107.613 123.571 149.611  0.00  0.00    +0.000 OA
ATOM     38  C   UNL     1     106.387 125.482 148.624  0.00  0.00    +0.000 A 
ATOM     39  C   UNL     1     107.204 125.420 148.524  0.00  0.00    +0.000 A 
ATOM     40  C   UNL     1     105.979 124.906 149.053  0.00  0.00    +0.000 A 
ATOM     41  C   UNL     1     107.612 124.783 148.853  0.00  0.00    +0.000 A 
ATOM     42  C   UNL     1     106.388 124.270 149.382  0.00  0.00    +0.000 A 
ATOM     43  C   UNL     1     107.205 124.208 149.282  0.00  0.00    +0.000 A 
ENDBRANCH  29  38
ENDBRANCH  23  28
ENDBRANCH   8  23
TORSDOF 8
ENDMDL
MODEL 5
REMARK VINA RESULT:      -9.9      1.476      3.270
REMARK  Name = 44258862
REMARK  8 active torsions:
REMARK  status: ('A' for Active; 'I' for Inactive)
REMARK    1  A    between atoms: O_2  and  C_14
REMARK    2  A    between atoms: O_2  and  C_21
REMARK    3  A    between atoms: O_3  and  C_18
REMARK    4  A    between atoms: O_3  and  C_20
REMARK    5  A    between atoms: C_17  and  C_19
REMARK    6  A    between atoms: C_21  and  C_26
REMARK    7  A    between atoms: C_22  and  C_27
REMARK    8  A    between atoms: C_32  and  C_37
REMARK                            x       y       z     vdW  Elec       q    Type
REMARK                         _______ _______ _______ _____ _____    ______ ____
ROOT
ATOM      1  O   UNL     1     112.613 128.979 137.679  0.00  0.00    +0.000 OA
ATOM      2  O   UNL     1     111.221 130.038 138.983  0.00  0.00    +0.000 OA
ATOM      3  O   UNL     1     111.028 129.335 136.221  0.00  0.00    +0.000 OA
ATOM      4  C   UNL     1     111.124 129.687 137.603  0.00  0.00    +0.000 C 
ATOM      5  C   UNL     1     111.545 129.685 138.312  0.00  0.00    +0.000 C 
ATOM      6  C   UNL     1     111.449 129.334 136.930  0.00  0.00    +0.000 C 
ATOM      7  C   UNL     1     112.290 129.331 138.350  0.00  0.00    +0.000 C 
ATOM      8  C   UNL     1     112.193 128.980 136.968  0.00  0.00    +0.000 C 
ENDROOT
BRANCH   7  10
ATOM      9  O   UNL     1     113.428 129.732 139.115  0.00  0.00    +0.000 OA
ATOM     10  C   UNL     1     112.709 129.330 139.059  0.00  0.00    +0.000 C 
ENDBRANCH   7  10
BRANCH   4  11
ATOM     11  O   UNL     1     110.380 130.040 137.565  0.00  0.00    +0.000 OA
BRANCH  11  13
ATOM     12  O   UNL     1     110.834 131.382 137.379  0.00  0.00    +0.000 OA
ATOM     13  C   UNL     1     110.294 130.781 137.214  0.00  0.00    +0.000 C 
BRANCH  13  14
ATOM     14  C   UNL     1     109.666 130.922 136.697  0.00  0.00    +0.000 C 
ATOM     15  C   UNL     1     109.300 131.661 136.683  0.00  0.00    +0.000 C 
BRANCH  15  17
ATOM     16  O   UNL     1     106.791 132.224 134.615  0.00  0.00    +0.000 OA
ATOM     17  C   UNL     1     108.673 131.802 136.166  0.00  0.00    +0.000 A 
ATOM     18  C   UNL     1     108.819 132.103 135.413  0.00  0.00    +0.000 A 
ATOM     19  C   UNL     1     107.899 131.641 136.404  0.00  0.00    +0.000 A 
ATOM     20  C   UNL     1     108.192 132.244 134.896  0.00  0.00    +0.000 A 
ATOM     21  C   UNL     1     107.272 131.782 135.887  0.00  0.00    +0.000 A 
ATOM     22  C   UNL     1     107.418 132.083 135.132  0.00  0.00    +0.000 A 
ENDBRANCH  15  17
ENDBRANCH  13  14
ENDBRANCH  11  13
ENDBRANCH   4  11
BRANCH   8  23
ATOM     23  O   UNL     1     112.517 128.627 136.297  0.00  0.00    +0.000 OA
BRANCH  23  28
ATOM     24  O   UNL     1     114.261 127.321 136.164  0.00  0.00    +0.000 OA
ATOM     25  O   UNL     1     111.936 127.259 137.014  0.00  0.00    +0.000 OA
ATOM     26  O   UNL     1     112.106 125.898 137.462  0.00  0.00    +0.000 OA
ATOM     27  O   UNL     1     114.676 124.575 137.042  0.00  0.00    +0.000 OA
ATOM     28  C   UNL     1     113.001 127.964 136.372  0.00  0.00    +0.000 A 
ATOM     29  C   UNL     1     113.776 127.985 136.089  0.00  0.00    +0.000 A 
ATOM     30  C   UNL     1     112.712 127.280 136.731  0.00  0.00    +0.000 A 
ATOM     31  C   UNL     1     113.196 126.616 136.806  0.00  0.00    +0.000 A 
ATOM     32  C   UNL     1     113.970 126.637 136.523  0.00  0.00    +0.000 A 
ATOM     33  C   UNL     1     112.882 125.910 137.181  0.00  0.00    +0.000 A 
ATOM     34  C   UNL     1     114.485 125.953 136.595  0.00  0.00    +0.000 A 
ATOM     35  C   UNL     1     113.383 125.216 137.262  0.00  0.00    +0.000 A 
ATOM     36  C   UNL     1     114.189 125.237 136.968  0.00  0.00    +0.000 A 
BRANCH  29  38
ATOM     37  O   UNL     1     114.933 130.722 134.653  0.00  0.00    +0.000 OA
ATOM     38  C   UNL     1     114.066 128.669 135.731  0.00  0.00    +0.000 A 
ATOM     39  C   UNL     1     114.604 129.149 136.131  0.00  0.00    +0.000 A 
ATOM     40  C   UNL     1     113.816 128.873 134.970  0.00  0.00    +0.000 A 
ATOM     41  C   UNL     1     114.893 129.833 135.772  0.00  0.00    +0.000 A 
ATOM     42  C   UNL     1     114.106 129.557 134.612  0.00  0.00    +0.000 A 
ATOM     43  C   UNL     1     114.644 130.038 135.013  0.00  0.00    +0.000 A 
ENDBRANCH  29  38
ENDBRANCH  23  28
ENDBRANCH   8  23
TORSDOF 8
ENDMDL
MODEL 6
REMARK VINA RESULT:      -9.9      1.590      2.773
REMARK  Name = 44258862
REMARK  8 active torsions:
REMARK  status: ('A' for Active; 'I' for Inactive)
REMARK    1  A    between atoms: O_2  and  C_14
REMARK    2  A    between atoms: O_2  and  C_21
REMARK    3  A    between atoms: O_3  and  C_18
REMARK    4  A    between atoms: O_3  and  C_20
REMARK    5  A    between atoms: C_17  and  C_19
REMARK    6  A    between atoms: C_21  and  C_26
REMARK    7  A    between atoms: C_22  and  C_27
REMARK    8  A    between atoms: C_32  and  C_37
REMARK                            x       y       z     vdW  Elec       q    Type
REMARK                         _______ _______ _______ _____ _____    ______ ____
ROOT
ATOM      1  O   UNL     1     112.743 128.846 138.782  0.00  0.00    +0.000 OA
ATOM      2  O   UNL     1     112.661 131.002 138.451  0.00  0.00    +0.000 OA
ATOM      3  O   UNL     1     110.689 128.973 138.055  0.00  0.00    +0.000 OA
ATOM      4  C   UNL     1     111.675 129.988 138.253  0.00  0.00    +0.000 C 
ATOM      5  C   UNL     1     112.435 130.209 138.485  0.00  0.00    +0.000 C 
ATOM      6  C   UNL     1     111.449 129.194 138.286  0.00  0.00    +0.000 C 
ATOM      7  C   UNL     1     112.969 129.638 138.749  0.00  0.00    +0.000 C 
ATOM      8  C   UNL     1     111.983 128.624 138.550  0.00  0.00    +0.000 C 
ENDROOT
BRANCH   7  10
ATOM      9  O   UNL     1     113.969 129.759 139.763  0.00  0.00    +0.000 OA
ATOM     10  C   UNL     1     113.729 129.860 138.980  0.00  0.00    +0.000 C 
ENDBRANCH   7  10
BRANCH   4  11
ATOM     11  O   UNL     1     111.141 130.559 137.989  0.00  0.00    +0.000 OA
BRANCH  11  13
ATOM     12  O   UNL     1     111.727 130.757 136.702  0.00  0.00    +0.000 OA
ATOM     13  C   UNL     1     111.059 130.703 137.182  0.00  0.00    +0.000 C 
BRANCH  13  14
ATOM     14  C   UNL     1     110.308 130.795 136.854  0.00  0.00    +0.000 C 
ATOM     15  C   UNL     1     110.100 131.505 136.488  0.00  0.00    +0.000 C 
BRANCH  15  17
ATOM     16  O   UNL     1     107.094 131.870 135.176  0.00  0.00    +0.000 OA
ATOM     17  C   UNL     1     109.348 131.596 136.160  0.00  0.00    +0.000 A 
ATOM     18  C   UNL     1     109.256 131.613 135.341  0.00  0.00    +0.000 A 
ATOM     19  C   UNL     1     108.690 131.670 136.653  0.00  0.00    +0.000 A 
ATOM     20  C   UNL     1     108.504 131.704 135.013  0.00  0.00    +0.000 A 
ATOM     21  C   UNL     1     107.939 131.761 136.324  0.00  0.00    +0.000 A 
ATOM     22  C   UNL     1     107.845 131.778 135.504  0.00  0.00    +0.000 A 
ENDBRANCH  15  17
ENDBRANCH  13  14
ENDBRANCH  11  13
ENDBRANCH   4  11
BRANCH   8  23
ATOM     23  O   UNL     1     111.756 127.832 138.583  0.00  0.00    +0.000 OA
BRANCH  23  28
ATOM     24  O   UNL     1     113.021 126.075 138.871  0.00  0.00    +0.000 OA
ATOM     25  O   UNL     1     112.553 127.782 137.139  0.00  0.00    +0.000 OA
ATOM     26  O   UNL     1     113.510 127.177 136.244  0.00  0.00    +0.000 OA
ATOM     27  O   UNL     1     114.967 124.801 137.119  0.00  0.00    +0.000 OA
ATOM     28  C   UNL     1     112.311 127.238 138.439  0.00  0.00    +0.000 A 
ATOM     29  C   UNL     1     112.467 126.669 139.016  0.00  0.00    +0.000 A 
ATOM     30  C   UNL     1     112.709 127.212 137.717  0.00  0.00    +0.000 A 
ATOM     31  C   UNL     1     113.264 126.619 137.572  0.00  0.00    +0.000 A 
ATOM     32  C   UNL     1     113.419 126.051 138.149  0.00  0.00    +0.000 A 
ATOM     33  C   UNL     1     113.672 126.604 136.816  0.00  0.00    +0.000 A 
ATOM     34  C   UNL     1     113.994 125.428 138.011  0.00  0.00    +0.000 A 
ATOM     35  C   UNL     1     114.250 125.988 136.660  0.00  0.00    +0.000 A 
ATOM     36  C   UNL     1     114.413 125.396 137.261  0.00  0.00    +0.000 A 
BRANCH  29  38
ATOM     37  O   UNL     1     110.869 126.771 141.902  0.00  0.00    +0.000 OA
ATOM     38  C   UNL     1     112.068 126.695 139.738  0.00  0.00    +0.000 A 
ATOM     39  C   UNL     1     112.469 126.916 140.424  0.00  0.00    +0.000 A 
ATOM     40  C   UNL     1     111.267 126.498 139.773  0.00  0.00    +0.000 A 
ATOM     41  C   UNL     1     112.069 126.941 141.145  0.00  0.00    +0.000 A 
ATOM     42  C   UNL     1     110.868 126.524 140.495  0.00  0.00    +0.000 A 
ATOM     43  C   UNL     1     111.269 126.745 141.181  0.00  0.00    +0.000 A 
ENDBRANCH  29  38
ENDBRANCH  23  28
ENDBRANCH   8  23
TORSDOF 8
ENDMDL
MODEL 7
REMARK VINA RESULT:      -9.9      1.598      3.404
REMARK  Name = 44258862
REMARK  8 active torsions:
REMARK  status: ('A' for Active; 'I' for Inactive)
REMARK    1  A    between atoms: O_2  and  C_14
REMARK    2  A    between atoms: O_2  and  C_21
REMARK    3  A    between atoms: O_3  and  C_18
REMARK    4  A    between atoms: O_3  and  C_20
REMARK    5  A    between atoms: C_17  and  C_19
REMARK    6  A    between atoms: C_21  and  C_26
REMARK    7  A    between atoms: C_22  and  C_27
REMARK    8  A    between atoms: C_32  and  C_37
REMARK                            x       y       z     vdW  Elec       q    Type
REMARK                         _______ _______ _______ _____ _____    ______ ____
ROOT
ATOM      1  O   UNL     1     111.079 126.691 138.628  0.00  0.00    +0.000 OA
ATOM      2  O   UNL     1     108.945 126.828 138.195  0.00  0.00    +0.000 OA
ATOM      3  O   UNL     1     111.044 128.739 137.875  0.00  0.00    +0.000 OA
ATOM      4  C   UNL     1     109.994 127.784 138.035  0.00  0.00    +0.000 C 
ATOM      5  C   UNL     1     109.741 127.032 138.263  0.00  0.00    +0.000 C 
ATOM      6  C   UNL     1     110.791 127.988 138.103  0.00  0.00    +0.000 C 
ATOM      7  C   UNL     1     110.283 126.486 138.560  0.00  0.00    +0.000 C 
ATOM      8  C   UNL     1     111.333 127.442 138.400  0.00  0.00    +0.000 C 
ENDROOT
BRANCH   7  10
ATOM      9  O   UNL     1     110.146 125.477 139.563  0.00  0.00    +0.000 OA
ATOM     10  C   UNL     1     110.029 125.736 138.787  0.00  0.00    +0.000 C 
ENDBRANCH   7  10
BRANCH   4  11
ATOM     11  O   UNL     1     109.452 128.330 137.738  0.00  0.00    +0.000 OA
BRANCH  11  13
ATOM     12  O   UNL     1     109.295 127.760 136.439  0.00  0.00    +0.000 OA
ATOM     13  C   UNL     1     109.364 128.423 136.924  0.00  0.00    +0.000 C 
BRANCH  13  14
ATOM     14  C   UNL     1     109.344 129.179 136.595  0.00  0.00    +0.000 C 
ATOM     15  C   UNL     1     108.789 129.361 136.012  0.00  0.00    +0.000 C 
BRANCH  15  17
ATOM     16  O   UNL     1     108.710 132.386 134.695  0.00  0.00    +0.000 OA
ATOM     17  C   UNL     1     108.769 130.117 135.683  0.00  0.00    +0.000 A 
ATOM     18  C   UNL     1     108.278 130.695 136.006  0.00  0.00    +0.000 A 
ATOM     19  C   UNL     1     109.242 130.295 135.030  0.00  0.00    +0.000 A 
ATOM     20  C   UNL     1     108.258 131.451 135.677  0.00  0.00    +0.000 A 
ATOM     21  C   UNL     1     109.222 131.051 134.701  0.00  0.00    +0.000 A 
ATOM     22  C   UNL     1     108.730 131.630 135.024  0.00  0.00    +0.000 A 
ENDBRANCH  15  17
ENDBRANCH  13  14
ENDBRANCH  11  13
ENDBRANCH   4  11
BRANCH   8  23
ATOM     23  O   UNL     1     112.129 127.647 138.468  0.00  0.00    +0.000 OA
BRANCH  23  28
ATOM     24  O   UNL     1     113.833 126.334 138.844  0.00  0.00    +0.000 OA
ATOM     25  O   UNL     1     112.227 126.844 137.030  0.00  0.00    +0.000 OA
ATOM     26  O   UNL     1     112.847 125.867 136.167  0.00  0.00    +0.000 OA
ATOM     27  O   UNL     1     115.135 124.347 137.159  0.00  0.00    +0.000 OA
ATOM     28  C   UNL     1     112.713 127.075 138.353  0.00  0.00    +0.000 A 
ATOM     29  C   UNL     1     113.249 126.905 138.958  0.00  0.00    +0.000 A 
ATOM     30  C   UNL     1     112.762 126.673 137.635  0.00  0.00    +0.000 A 
ATOM     31  C   UNL     1     113.346 126.102 137.520  0.00  0.00    +0.000 A 
ATOM     32  C   UNL     1     113.881 125.933 138.124  0.00  0.00    +0.000 A 
ATOM     33  C   UNL     1     113.387 125.691 136.766  0.00  0.00    +0.000 A 
ATOM     34  C   UNL     1     114.494 125.340 138.018  0.00  0.00    +0.000 A 
ATOM     35  C   UNL     1     113.993 125.095 136.641  0.00  0.00    +0.000 A 
ATOM     36  C   UNL     1     114.550 124.918 137.271  0.00  0.00    +0.000 A 
BRANCH  29  38
ATOM     37  O   UNL     1     113.053 128.515 141.833  0.00  0.00    +0.000 OA
ATOM     38  C   UNL     1     113.200 127.307 139.677  0.00  0.00    +0.000 A 
ATOM     39  C   UNL     1     112.925 126.917 140.350  0.00  0.00    +0.000 A 
ATOM     40  C   UNL     1     113.425 128.100 139.722  0.00  0.00    +0.000 A 
ATOM     41  C   UNL     1     112.876 127.320 141.069  0.00  0.00    +0.000 A 
ATOM     42  C   UNL     1     113.376 128.502 140.441  0.00  0.00    +0.000 A 
ATOM     43  C   UNL     1     113.102 128.112 141.114  0.00  0.00    +0.000 A 
ENDBRANCH  29  38
ENDBRANCH  23  28
ENDBRANCH   8  23
TORSDOF 8
ENDMDL
MODEL 8
REMARK VINA RESULT:      -9.8      7.982      9.210
REMARK  Name = 44258862
REMARK  8 active torsions:
REMARK  status: ('A' for Active; 'I' for Inactive)
REMARK    1  A    between atoms: O_2  and  C_14
REMARK    2  A    between atoms: O_2  and  C_21
REMARK    3  A    between atoms: O_3  and  C_18
REMARK    4  A    between atoms: O_3  and  C_20
REMARK    5  A    between atoms: C_17  and  C_19
REMARK    6  A    between atoms: C_21  and  C_26
REMARK    7  A    between atoms: C_22  and  C_27
REMARK    8  A    between atoms: C_32  and  C_37
REMARK                            x       y       z     vdW  Elec       q    Type
REMARK                         _______ _______ _______ _____ _____    ______ ____
ROOT
ATOM      1  O   UNL     1     106.809 126.277 142.174  0.00  0.00    +0.000 OA
ATOM      2  O   UNL     1     107.502 125.316 140.342  0.00  0.00    +0.000 OA
ATOM      3  O   UNL     1     104.874 126.047 141.191  0.00  0.00    +0.000 OA
ATOM      4  C   UNL     1     106.188 125.681 140.766  0.00  0.00    +0.000 C 
ATOM      5  C   UNL     1     107.001 125.648 140.907  0.00  0.00    +0.000 C 
ATOM      6  C   UNL     1     105.686 126.013 141.331  0.00  0.00    +0.000 C 
ATOM      7  C   UNL     1     107.311 125.946 141.611  0.00  0.00    +0.000 C 
ATOM      8  C   UNL     1     105.996 126.311 142.035  0.00  0.00    +0.000 C 
ENDROOT
BRANCH   7  10
ATOM      9  O   UNL     1     108.534 126.594 141.963  0.00  0.00    +0.000 OA
ATOM     10  C   UNL     1     108.123 125.912 141.750  0.00  0.00    +0.000 C 
ENDBRANCH   7  10
BRANCH   4  11
ATOM     11  O   UNL     1     105.878 125.383 140.063  0.00  0.00    +0.000 OA
BRANCH  11  13
ATOM     12  O   UNL     1     105.897 124.007 140.444  0.00  0.00    +0.000 OA
ATOM     13  C   UNL     1     105.536 124.633 140.048  0.00  0.00    +0.000 C 
BRANCH  13  14
ATOM     14  C   UNL     1     104.831 124.510 139.637  0.00  0.00    +0.000 C 
ATOM     15  C   UNL     1     104.738 123.837 139.170  0.00  0.00    +0.000 C 
BRANCH  15  17
ATOM     16  O   UNL     1     101.920 123.343 137.526  0.00  0.00    +0.000 OA
ATOM     17  C   UNL     1     104.033 123.713 138.759  0.00  0.00    +0.000 A 
ATOM     18  C   UNL     1     103.319 123.676 139.168  0.00  0.00    +0.000 A 
ATOM     19  C   UNL     1     104.045 123.627 137.938  0.00  0.00    +0.000 A 
ATOM     20  C   UNL     1     102.614 123.552 138.757  0.00  0.00    +0.000 A 
ATOM     21  C   UNL     1     103.340 123.503 137.527  0.00  0.00    +0.000 A 
ATOM     22  C   UNL     1     102.624 123.466 137.937  0.00  0.00    +0.000 A 
ENDBRANCH  15  17
ENDBRANCH  13  14
ENDBRANCH  11  13
ENDBRANCH   4  11
BRANCH   8  23
ATOM     23  O   UNL     1     105.495 126.643 142.599  0.00  0.00    +0.000 OA
BRANCH  23  28
ATOM     24  O   UNL     1     105.987 127.284 144.627  0.00  0.00    +0.000 OA
ATOM     25  O   UNL     1     105.718 125.186 143.341  0.00  0.00    +0.000 OA
ATOM     26  O   UNL     1     106.031 124.397 144.507  0.00  0.00    +0.000 OA
ATOM     27  O   UNL     1     106.628 125.757 147.023  0.00  0.00    +0.000 OA
ATOM     28  C   UNL     1     105.696 126.614 143.398  0.00  0.00    +0.000 A 
ATOM     29  C   UNL     1     105.786 127.313 143.828  0.00  0.00    +0.000 A 
ATOM     30  C   UNL     1     105.808 125.886 143.770  0.00  0.00    +0.000 A 
ATOM     31  C   UNL     1     106.009 125.857 144.569  0.00  0.00    +0.000 A 
ATOM     32  C   UNL     1     106.099 126.555 144.997  0.00  0.00    +0.000 A 
ATOM     33  C   UNL     1     106.123 125.091 144.944  0.00  0.00    +0.000 A 
ATOM     34  C   UNL     1     106.308 126.539 145.830  0.00  0.00    +0.000 A 
ATOM     35  C   UNL     1     106.333 125.055 145.776  0.00  0.00    +0.000 A 
ATOM     36  C   UNL     1     106.426 125.783 146.223  0.00  0.00    +0.000 A 
BRANCH  29  38
ATOM     37  O   UNL     1     105.336 130.226 142.342  0.00  0.00    +0.000 OA
ATOM     38  C   UNL     1     105.674 128.041 143.456  0.00  0.00    +0.000 A 
ATOM     39  C   UNL     1     106.323 128.520 143.282  0.00  0.00    +0.000 A 
ATOM     40  C   UNL     1     104.912 128.291 143.259  0.00  0.00    +0.000 A 
ATOM     41  C   UNL     1     106.210 129.248 142.910  0.00  0.00    +0.000 A 
ATOM     42  C   UNL     1     104.801 129.019 142.887  0.00  0.00    +0.000 A 
ATOM     43  C   UNL     1     105.449 129.497 142.713  0.00  0.00    +0.000 A 
ENDBRANCH  29  38
ENDBRANCH  23  28
ENDBRANCH   8  23
TORSDOF 8
ENDMDL
MODEL 9
REMARK VINA RESULT:      -9.7      2.912      4.981
REMARK  Name = 44258862
REMARK  8 active torsions:
REMARK  status: ('A' for Active; 'I' for Inactive)
REMARK    1  A    between atoms: O_2  and  C_14
REMARK    2  A    between atoms: O_2  and  C_21
REMARK    3  A    between atoms: O_3  and  C_18
REMARK    4  A    between atoms: O_3  and  C_20
REMARK    5  A    between atoms: C_17  and  C_19
REMARK    6  A    between atoms: C_21  and  C_26
REMARK    7  A    between atoms: C_22  and  C_27
REMARK    8  A    between atoms: C_32  and  C_37
REMARK                            x       y       z     vdW  Elec       q    Type
REMARK                         _______ _______ _______ _____ _____    ______ ____
ROOT
ATOM      1  O   UNL     1     111.273 126.655 137.067  0.00  0.00    +0.000 OA
ATOM      2  O   UNL     1     109.193 126.489 137.707  0.00  0.00    +0.000 OA
ATOM      3  O   UNL     1     111.582 126.934 139.209  0.00  0.00    +0.000 OA
ATOM      4  C   UNL     1     110.387 126.712 138.458  0.00  0.00    +0.000 C 
ATOM      5  C   UNL     1     110.012 126.586 137.734  0.00  0.00    +0.000 C 
ATOM      6  C   UNL     1     111.207 126.809 138.486  0.00  0.00    +0.000 C 
ATOM      7  C   UNL     1     110.455 126.558 137.038  0.00  0.00    +0.000 C 
ATOM      8  C   UNL     1     111.650 126.781 137.790  0.00  0.00    +0.000 C 
ENDROOT
BRANCH   7  10
ATOM      9  O   UNL     1     110.259 125.764 135.867  0.00  0.00    +0.000 OA
ATOM     10  C   UNL     1     110.079 126.433 136.316  0.00  0.00    +0.000 C 
ENDBRANCH   7  10
BRANCH   4  11
ATOM     11  O   UNL     1     109.944 126.740 139.153  0.00  0.00    +0.000 OA
BRANCH  11  13
ATOM     12  O   UNL     1     110.288 125.426 139.593  0.00  0.00    +0.000 OA
ATOM     13  C   UNL     1     109.743 126.041 139.542  0.00  0.00    +0.000 C 
BRANCH  13  14
ATOM     14  C   UNL     1     108.995 125.959 139.880  0.00  0.00    +0.000 C 
ATOM     15  C   UNL     1     108.917 125.651 140.641  0.00  0.00    +0.000 C 
BRANCH  15  17
ATOM     16  O   UNL     1     105.925 125.320 141.994  0.00  0.00    +0.000 OA
ATOM     17  C   UNL     1     108.169 125.568 140.979  0.00  0.00    +0.000 A 
ATOM     18  C   UNL     1     107.757 124.859 140.898  0.00  0.00    +0.000 A 
ATOM     19  C   UNL     1     107.835 126.195 141.398  0.00  0.00    +0.000 A 
ATOM     20  C   UNL     1     107.009 124.776 141.236  0.00  0.00    +0.000 A 
ATOM     21  C   UNL     1     107.087 126.113 141.736  0.00  0.00    +0.000 A 
ATOM     22  C   UNL     1     106.673 125.403 141.655  0.00  0.00    +0.000 A 
ENDBRANCH  15  17
ENDBRANCH  13  14
ENDBRANCH  11  13
ENDBRANCH   4  11
BRANCH   8  23
ATOM     23  O   UNL     1     112.468 126.878 137.818  0.00  0.00    +0.000 OA
BRANCH  23  28
ATOM     24  O   UNL     1     113.843 127.398 136.204  0.00  0.00    +0.000 OA
ATOM     25  O   UNL     1     112.024 128.439 137.522  0.00  0.00    +0.000 OA
ATOM     26  O   UNL     1     112.167 129.677 136.794  0.00  0.00    +0.000 OA
ATOM     27  O   UNL     1     114.188 129.864 134.694  0.00  0.00    +0.000 OA
ATOM     28  C   UNL     1     112.852 127.312 137.231  0.00  0.00    +0.000 A 
ATOM     29  C   UNL     1     113.459 126.964 136.792  0.00  0.00    +0.000 A 
ATOM     30  C   UNL     1     112.630 128.092 137.082  0.00  0.00    +0.000 A 
ATOM     31  C   UNL     1     113.015 128.526 136.495  0.00  0.00    +0.000 A 
ATOM     32  C   UNL     1     113.620 128.179 136.056  0.00  0.00    +0.000 A 
ATOM     33  C   UNL     1     112.774 129.338 136.350  0.00  0.00    +0.000 A 
ATOM     34  C   UNL     1     114.029 128.619 135.442  0.00  0.00    +0.000 A 
ATOM     35  C   UNL     1     113.171 129.794 135.740  0.00  0.00    +0.000 A 
ATOM     36  C   UNL     1     113.802 129.433 135.282  0.00  0.00    +0.000 A 
BRANCH  29  38
ATOM     37  O   UNL     1     114.346 123.842 137.389  0.00  0.00    +0.000 OA
ATOM     38  C   UNL     1     113.680 126.184 136.940  0.00  0.00    +0.000 A 
ATOM     39  C   UNL     1     113.469 125.587 136.411  0.00  0.00    +0.000 A 
ATOM     40  C   UNL     1     114.113 126.000 137.619  0.00  0.00    +0.000 A 
ATOM     41  C   UNL     1     113.691 124.806 136.561  0.00  0.00    +0.000 A 
ATOM     42  C   UNL     1     114.334 125.220 137.768  0.00  0.00    +0.000 A 
ATOM     43  C   UNL     1     114.123 124.623 137.239  0.00  0.00    +0.000 A 
ENDBRANCH  29  38
ENDBRANCH  23  28
ENDBRANCH   8  23
TORSDOF 8
ENDMDL
MODEL 10
REMARK VINA RESULT:      -9.5      0.785      2.816
REMARK  Name = 44258862
REMARK  8 active torsions:
REMARK  status: ('A' for Active; 'I' for Inactive)
REMARK    1  A    between atoms: O_2  and  C_14
REMARK    2  A    between atoms: O_2  and  C_21
REMARK    3  A    between atoms: O_3  and  C_18
REMARK    4  A    between atoms: O_3  and  C_20
REMARK    5  A    between atoms: C_17  and  C_19
REMARK    6  A    between atoms: C_21  and  C_26
REMARK    7  A    between atoms: C_22  and  C_27
REMARK    8  A    between atoms: C_32  and  C_37
REMARK                            x       y       z     vdW  Elec       q    Type
REMARK                         _______ _______ _______ _____ _____    ______ ____
ROOT
ATOM      1  O   UNL     1     112.881 127.806 136.730  0.00  0.00    +0.000 OA
ATOM      2  O   UNL     1     112.993 129.491 135.349  0.00  0.00    +0.000 OA
ATOM      3  O   UNL     1     111.043 128.821 137.326  0.00  0.00    +0.000 OA
ATOM      4  C   UNL     1     112.018 129.156 136.337  0.00  0.00    +0.000 C 
ATOM      5  C   UNL     1     112.722 128.986 135.942  0.00  0.00    +0.000 C 
ATOM      6  C   UNL     1     111.746 128.650 136.931  0.00  0.00    +0.000 C 
ATOM      7  C   UNL     1     113.153 128.311 136.138  0.00  0.00    +0.000 C 
ATOM      8  C   UNL     1     112.178 127.975 137.127  0.00  0.00    +0.000 C 
ENDROOT
BRANCH   7  10
ATOM      9  O   UNL     1     114.546 127.994 136.169  0.00  0.00    +0.000 OA
ATOM     10  C   UNL     1     113.856 128.141 135.742  0.00  0.00    +0.000 C 
ENDBRANCH   7  10
BRANCH   4  11
ATOM     11  O   UNL     1     111.587 129.831 136.141  0.00  0.00    +0.000 OA
BRANCH  11  13
ATOM     12  O   UNL     1     111.071 129.327 134.909  0.00  0.00    +0.000 OA
ATOM     13  C   UNL     1     110.978 129.785 135.588  0.00  0.00    +0.000 C 
BRANCH  13  14
ATOM     14  C   UNL     1     110.274 130.196 135.714  0.00  0.00    +0.000 C 
ATOM     15  C   UNL     1     109.830 130.462 135.071  0.00  0.00    +0.000 C 
BRANCH  15  17
ATOM     16  O   UNL     1     107.015 132.109 135.575  0.00  0.00    +0.000 OA
ATOM     17  C   UNL     1     109.127 130.874 135.197  0.00  0.00    +0.000 A 
ATOM     18  C   UNL     1     108.997 131.595 134.819  0.00  0.00    +0.000 A 
ATOM     19  C   UNL     1     108.552 130.563 135.702  0.00  0.00    +0.000 A 
ATOM     20  C   UNL     1     108.294 132.006 134.944  0.00  0.00    +0.000 A 
ATOM     21  C   UNL     1     107.849 130.975 135.828  0.00  0.00    +0.000 A 
ATOM     22  C   UNL     1     107.719 131.697 135.449  0.00  0.00    +0.000 A 
ENDBRANCH  15  17
ENDBRANCH  13  14
ENDBRANCH  11  13
ENDBRANCH   4  11
BRANCH   8  23
ATOM     23  O   UNL     1     111.906 127.470 137.719  0.00  0.00    +0.000 OA
BRANCH  23  28
ATOM     24  O   UNL     1     112.482 125.407 138.140  0.00  0.00    +0.000 OA
ATOM     25  O   UNL     1     111.293 126.699 136.395  0.00  0.00    +0.000 OA
ATOM     26  O   UNL     1     111.061 125.501 135.625  0.00  0.00    +0.000 OA
ATOM     27  O   UNL     1     112.050 122.948 136.640  0.00  0.00    +0.000 OA
ATOM     28  C   UNL     1     111.996 126.654 137.639  0.00  0.00    +0.000 A 
ATOM     29  C   UNL     1     112.392 126.223 138.220  0.00  0.00    +0.000 A 
ATOM     30  C   UNL     1     111.690 126.268 136.977  0.00  0.00    +0.000 A 
ATOM     31  C   UNL     1     111.780 125.452 136.896  0.00  0.00    +0.000 A 
ATOM     32  C   UNL     1     112.175 125.022 137.477  0.00  0.00    +0.000 A 
ATOM     33  C   UNL     1     111.456 125.062 136.202  0.00  0.00    +0.000 A 
ATOM     34  C   UNL     1     112.276 124.172 137.406  0.00  0.00    +0.000 A 
ATOM     35  C   UNL     1     111.546 124.213 136.113  0.00  0.00    +0.000 A 
ATOM     36  C   UNL     1     111.959 123.764 136.718  0.00  0.00    +0.000 A 
BRANCH  29  38
ATOM     37  O   UNL     1     113.620 127.766 140.867  0.00  0.00    +0.000 OA
ATOM     38  C   UNL     1     112.699 126.609 138.882  0.00  0.00    +0.000 A 
ATOM     39  C   UNL     1     112.190 126.897 139.464  0.00  0.00    +0.000 A 
ATOM     40  C   UNL     1     113.515 126.706 138.961  0.00  0.00    +0.000 A 
ATOM     41  C   UNL     1     112.498 127.282 140.126  0.00  0.00    +0.000 A 
ATOM     42  C   UNL     1     113.821 127.092 139.623  0.00  0.00    +0.000 A 
ATOM     43  C   UNL     1     113.312 127.380 140.205  0.00  0.00    +0.000 A 
ENDBRANCH  29  38
ENDBRANCH  23  28
ENDBRANCH   8  23
TORSDOF 8
ENDMDL
