MODEL 1
REMARK VINA RESULT:     -10.0      0.000      0.000
REMARK  Name = 131752730
REMARK  3 active torsions:
REMARK  status: ('A' for Active; 'I' for Inactive)
REMARK    1  A    between atoms: C_12  and  C_17
REMARK    2  A    between atoms: C_16  and  C_23
REMARK    3  A    between atoms: C_21  and  C_27
REMARK                            x       y       z     vdW  Elec       q    Type
REMARK                         _______ _______ _______ _____ _____    ______ ____
ROOT
ATOM      1  O   UNL     1     105.483 125.132 147.765  0.00  0.00    +0.000 OA
ATOM      2  O   UNL     1     104.532 124.293 149.612  0.00  0.00    +0.000 OA
ATOM      3  O   UNL     1     108.266 125.437 147.085  0.00  0.00    +0.000 OA
ATOM      4  O   UNL     1     107.553 124.289 149.605  0.00  0.00    +0.000 OA
ATOM      5  C   UNL     1     106.889 125.280 147.435  0.00  0.00    +0.000 A 
ATOM      6  C   UNL     1     106.312 125.037 147.971  0.00  0.00    +0.000 A 
ATOM      7  C   UNL     1     106.533 124.707 148.694  0.00  0.00    +0.000 A 
ATOM      8  C   UNL     1     105.107 124.537 149.073  0.00  0.00    +0.000 C 
ATOM      9  C   UNL     1     104.877 124.881 148.320  0.00  0.00    +0.000 C 
ATOM     10  C   UNL     1     105.940 124.449 149.261  0.00  0.00    +0.000 C 
ATOM     11  C   UNL     1     107.688 125.193 147.622  0.00  0.00    +0.000 A 
ATOM     12  C   UNL     1     107.331 124.620 148.881  0.00  0.00    +0.000 A 
ATOM     13  C   UNL     1     107.909 124.863 148.345  0.00  0.00    +0.000 A 
ENDROOT
BRANCH   5  18
ATOM     14  O   UNL     1     106.446 125.121 146.086  0.00  0.00    +0.000 OA
ATOM     15  O   UNL     1     106.892 126.918 147.241  0.00  0.00    +0.000 OA
ATOM     16  O   UNL     1     106.450 127.578 145.795  0.00  0.00    +0.000 OA
ATOM     17  O   UNL     1     106.004 126.600 144.543  0.00  0.00    +0.000 OA
ATOM     18  C   UNL     1     106.668 125.610 146.713  0.00  0.00    +0.000 C 
ATOM     19  C   UNL     1     106.669 126.429 146.615  0.00  0.00    +0.000 C 
ATOM     20  C   UNL     1     106.448 126.759 145.892  0.00  0.00    +0.000 C 
ATOM     21  C   UNL     1     106.226 126.270 145.266  0.00  0.00    +0.000 C 
ATOM     22  C   UNL     1     106.224 125.451 145.363  0.00  0.00    +0.000 C 
BRANCH  22  24
ATOM     23  O   UNL     1     106.290 124.189 144.696  0.00  0.00    +0.000 OA
ATOM     24  C   UNL     1     106.002 124.961 144.738  0.00  0.00    +0.000 C 
ENDBRANCH  22  24
ENDBRANCH   5  18
BRANCH   9  27
ATOM     25  O   UNL     1     102.498 123.875 147.096  0.00  0.00    +0.000 OA
ATOM     26  O   UNL     1     101.684 125.232 147.563  0.00  0.00    +0.000 OA
ATOM     27  C   UNL     1     104.079 124.969 148.131  0.00  0.00    +0.000 A 
ATOM     28  C   UNL     1     103.687 124.378 147.708  0.00  0.00    +0.000 A 
ATOM     29  C   UNL     1     103.671 125.647 148.364  0.00  0.00    +0.000 A 
ATOM     30  C   UNL     1     102.889 124.465 147.518  0.00  0.00    +0.000 A 
ATOM     31  C   UNL     1     102.873 125.735 148.174  0.00  0.00    +0.000 A 
ATOM     32  C   UNL     1     102.482 125.144 147.752  0.00  0.00    +0.000 A 
ENDBRANCH   9  27
TORSDOF 3
ENDMDL
MODEL 2
REMARK VINA RESULT:      -9.7     11.004     13.584
REMARK  Name = 131752730
REMARK  3 active torsions:
REMARK  status: ('A' for Active; 'I' for Inactive)
REMARK    1  A    between atoms: C_12  and  C_17
REMARK    2  A    between atoms: C_16  and  C_23
REMARK    3  A    between atoms: C_21  and  C_27
REMARK                            x       y       z     vdW  Elec       q    Type
REMARK                         _______ _______ _______ _____ _____    ______ ____
ROOT
ATOM      1  O   UNL     1     112.154 127.097 136.194  0.00  0.00    +0.000 OA
ATOM      2  O   UNL     1     111.136 128.426 134.706  0.00  0.00    +0.000 OA
ATOM      3  O   UNL     1     111.694 124.324 136.826  0.00  0.00    +0.000 OA
ATOM      4  O   UNL     1     110.103 125.589 134.815  0.00  0.00    +0.000 OA
ATOM      5  C   UNL     1     111.912 125.699 136.503  0.00  0.00    +0.000 A 
ATOM      6  C   UNL     1     111.719 126.367 136.060  0.00  0.00    +0.000 A 
ATOM      7  C   UNL     1     111.117 126.331 135.498  0.00  0.00    +0.000 A 
ATOM      8  C   UNL     1     111.331 127.759 135.151  0.00  0.00    +0.000 C 
ATOM      9  C   UNL     1     111.958 127.797 135.736  0.00  0.00    +0.000 C 
ATOM     10  C   UNL     1     110.907 127.021 135.030  0.00  0.00    +0.000 C 
ATOM     11  C   UNL     1     111.501 124.993 136.383  0.00  0.00    +0.000 A 
ATOM     12  C   UNL     1     110.707 125.626 135.378  0.00  0.00    +0.000 A 
ATOM     13  C   UNL     1     110.899 124.957 135.821  0.00  0.00    +0.000 A 
ENDROOT
BRANCH   5  18
ATOM     14  O   UNL     1     112.359 126.036 137.817  0.00  0.00    +0.000 OA
ATOM     15  O   UNL     1     113.427 125.169 136.123  0.00  0.00    +0.000 OA
ATOM     16  O   UNL     1     114.632 125.242 137.248  0.00  0.00    +0.000 OA
ATOM     17  O   UNL     1     114.322 125.844 138.753  0.00  0.00    +0.000 OA
ATOM     18  C   UNL     1     112.513 125.735 137.065  0.00  0.00    +0.000 C 
ATOM     19  C   UNL     1     113.271 125.470 136.876  0.00  0.00    +0.000 C 
ATOM     20  C   UNL     1     113.874 125.507 137.438  0.00  0.00    +0.000 C 
ATOM     21  C   UNL     1     113.718 125.808 138.190  0.00  0.00    +0.000 C 
ATOM     22  C   UNL     1     112.961 126.072 138.379  0.00  0.00    +0.000 C 
BRANCH  22  24
ATOM     23  O   UNL     1     112.129 126.133 139.540  0.00  0.00    +0.000 OA
ATOM     24  C   UNL     1     112.805 126.374 139.132  0.00  0.00    +0.000 C 
ENDBRANCH  22  24
ENDBRANCH   5  18
BRANCH   9  27
ATOM     25  O   UNL     1     114.200 129.481 135.180  0.00  0.00    +0.000 OA
ATOM     26  O   UNL     1     113.607 130.614 136.223  0.00  0.00    +0.000 OA
ATOM     27  C   UNL     1     112.370 128.501 135.858  0.00  0.00    +0.000 A 
ATOM     28  C   UNL     1     113.078 128.639 135.458  0.00  0.00    +0.000 A 
ATOM     29  C   UNL     1     112.075 129.068 136.379  0.00  0.00    +0.000 A 
ATOM     30  C   UNL     1     113.491 129.343 135.580  0.00  0.00    +0.000 A 
ATOM     31  C   UNL     1     112.487 129.772 136.501  0.00  0.00    +0.000 A 
ATOM     32  C   UNL     1     113.195 129.910 136.101  0.00  0.00    +0.000 A 
ENDBRANCH   9  27
TORSDOF 3
ENDMDL
MODEL 3
REMARK VINA RESULT:      -9.7     12.180     13.617
REMARK  Name = 131752730
REMARK  3 active torsions:
REMARK  status: ('A' for Active; 'I' for Inactive)
REMARK    1  A    between atoms: C_12  and  C_17
REMARK    2  A    between atoms: C_16  and  C_23
REMARK    3  A    between atoms: C_21  and  C_27
REMARK                            x       y       z     vdW  Elec       q    Type
REMARK                         _______ _______ _______ _____ _____    ______ ____
ROOT
ATOM      1  O   UNL     1     112.038 126.676 136.087  0.00  0.00    +0.000 OA
ATOM      2  O   UNL     1     111.951 124.454 136.358  0.00  0.00    +0.000 OA
ATOM      3  O   UNL     1     110.299 128.437 134.612  0.00  0.00    +0.000 OA
ATOM      4  O   UNL     1     109.753 125.631 134.651  0.00  0.00    +0.000 OA
ATOM      5  C   UNL     1     111.154 127.552 135.340  0.00  0.00    +0.000 A 
ATOM      6  C   UNL     1     111.347 126.790 135.588  0.00  0.00    +0.000 A 
ATOM      7  C   UNL     1     110.881 126.150 135.359  0.00  0.00    +0.000 A 
ATOM      8  C   UNL     1     111.759 125.218 136.110  0.00  0.00    +0.000 C 
ATOM      9  C   UNL     1     112.245 125.885 136.349  0.00  0.00    +0.000 C 
ATOM     10  C   UNL     1     111.073 125.351 135.612  0.00  0.00    +0.000 C 
ATOM     11  C   UNL     1     110.493 127.674 134.861  0.00  0.00    +0.000 A 
ATOM     12  C   UNL     1     110.220 126.272 134.881  0.00  0.00    +0.000 A 
ATOM     13  C   UNL     1     110.026 127.033 134.632  0.00  0.00    +0.000 A 
ENDROOT
BRANCH   5  18
ATOM     14  O   UNL     1     112.309 128.371 135.153  0.00  0.00    +0.000 OA
ATOM     15  O   UNL     1     110.708 128.475 136.632  0.00  0.00    +0.000 OA
ATOM     16  O   UNL     1     111.642 129.756 137.092  0.00  0.00    +0.000 OA
ATOM     17  O   UNL     1     113.021 130.114 136.258  0.00  0.00    +0.000 OA
ATOM     18  C   UNL     1     111.620 128.192 135.569  0.00  0.00    +0.000 C 
ATOM     19  C   UNL     1     111.398 128.654 136.215  0.00  0.00    +0.000 C 
ATOM     20  C   UNL     1     111.865 129.294 136.445  0.00  0.00    +0.000 C 
ATOM     21  C   UNL     1     112.554 129.473 136.028  0.00  0.00    +0.000 C 
ATOM     22  C   UNL     1     112.776 129.011 135.382  0.00  0.00    +0.000 C 
BRANCH  22  24
ATOM     23  O   UNL     1     114.106 128.669 134.986  0.00  0.00    +0.000 OA
ATOM     24  C   UNL     1     113.465 129.189 134.965  0.00  0.00    +0.000 C 
ENDBRANCH  22  24
ENDBRANCH   5  18
BRANCH   9  27
ATOM     25  O   UNL     1     113.484 125.965 138.924  0.00  0.00    +0.000 OA
ATOM     26  O   UNL     1     114.891 125.409 138.265  0.00  0.00    +0.000 OA
ATOM     27  C   UNL     1     112.907 125.766 136.828  0.00  0.00    +0.000 A 
ATOM     28  C   UNL     1     112.865 125.925 137.636  0.00  0.00    +0.000 A 
ATOM     29  C   UNL     1     113.610 125.488 136.499  0.00  0.00    +0.000 A 
ATOM     30  C   UNL     1     113.526 125.806 138.116  0.00  0.00    +0.000 A 
ATOM     31  C   UNL     1     114.271 125.369 136.978  0.00  0.00    +0.000 A 
ATOM     32  C   UNL     1     114.229 125.528 137.786  0.00  0.00    +0.000 A 
ENDBRANCH   9  27
TORSDOF 3
ENDMDL
MODEL 4
REMARK VINA RESULT:      -9.5     11.197     12.969
REMARK  Name = 131752730
REMARK  3 active torsions:
REMARK  status: ('A' for Active; 'I' for Inactive)
REMARK    1  A    between atoms: C_12  and  C_17
REMARK    2  A    between atoms: C_16  and  C_23
REMARK    3  A    between atoms: C_21  and  C_27
REMARK                            x       y       z     vdW  Elec       q    Type
REMARK                         _______ _______ _______ _____ _____    ______ ____
ROOT
ATOM      1  O   UNL     1     111.755 127.609 136.248  0.00  0.00    +0.000 OA
ATOM      2  O   UNL     1     111.477 129.519 135.112  0.00  0.00    +0.000 OA
ATOM      3  O   UNL     1     114.169 126.216 136.977  0.00  0.00    +0.000 OA
ATOM      4  O   UNL     1     114.347 128.657 135.499  0.00  0.00    +0.000 OA
ATOM      5  C   UNL     1     112.979 126.917 136.609  0.00  0.00    +0.000 A 
ATOM      6  C   UNL     1     112.613 127.557 136.241  0.00  0.00    +0.000 A 
ATOM      7  C   UNL     1     113.068 128.137 135.871  0.00  0.00    +0.000 A 
ATOM      8  C   UNL     1     111.841 128.877 135.481  0.00  0.00    +0.000 C 
ATOM      9  C   UNL     1     111.367 128.273 135.866  0.00  0.00    +0.000 C 
ATOM     10  C   UNL     1     112.697 128.809 135.483  0.00  0.00    +0.000 C 
ATOM     11  C   UNL     1     113.802 126.857 136.608  0.00  0.00    +0.000 A 
ATOM     12  C   UNL     1     113.890 128.076 135.870  0.00  0.00    +0.000 A 
ATOM     13  C   UNL     1     114.257 127.437 136.238  0.00  0.00    +0.000 A 
ENDROOT
BRANCH   5  18
ATOM     14  O   UNL     1     112.200 125.722 136.535  0.00  0.00    +0.000 OA
ATOM     15  O   UNL     1     112.715 126.989 138.236  0.00  0.00    +0.000 OA
ATOM     16  O   UNL     1     111.804 125.829 138.976  0.00  0.00    +0.000 OA
ATOM     17  O   UNL     1     111.157 124.597 138.088  0.00  0.00    +0.000 OA
ATOM     18  C   UNL     1     112.524 126.338 136.979  0.00  0.00    +0.000 C 
ATOM     19  C   UNL     1     112.391 126.373 137.792  0.00  0.00    +0.000 C 
ATOM     20  C   UNL     1     111.936 125.793 138.162  0.00  0.00    +0.000 C 
ATOM     21  C   UNL     1     111.613 125.178 137.718  0.00  0.00    +0.000 C 
ATOM     22  C   UNL     1     111.745 125.142 136.905  0.00  0.00    +0.000 C 
BRANCH  22  24
ATOM     23  O   UNL     1     111.079 124.684 135.726  0.00  0.00    +0.000 OA
ATOM     24  C   UNL     1     111.422 124.526 136.461  0.00  0.00    +0.000 C 
ENDBRANCH  22  24
ENDBRANCH   5  18
BRANCH   9  27
ATOM     25  O   UNL     1     108.948 129.110 137.140  0.00  0.00    +0.000 OA
ATOM     26  O   UNL     1     108.074 128.506 135.878  0.00  0.00    +0.000 OA
ATOM     27  C   UNL     1     110.544 128.331 135.869  0.00  0.00    +0.000 A 
ATOM     28  C   UNL     1     110.158 128.692 136.503  0.00  0.00    +0.000 A 
ATOM     29  C   UNL     1     110.106 128.029 135.239  0.00  0.00    +0.000 A 
ATOM     30  C   UNL     1     109.334 128.750 136.506  0.00  0.00    +0.000 A 
ATOM     31  C   UNL     1     109.283 128.087 135.241  0.00  0.00    +0.000 A 
ATOM     32  C   UNL     1     108.897 128.448 135.875  0.00  0.00    +0.000 A 
ENDBRANCH   9  27
TORSDOF 3
ENDMDL
MODEL 5
REMARK VINA RESULT:      -9.5     10.629     13.092
REMARK  Name = 131752730
REMARK  3 active torsions:
REMARK  status: ('A' for Active; 'I' for Inactive)
REMARK    1  A    between atoms: C_12  and  C_17
REMARK    2  A    between atoms: C_16  and  C_23
REMARK    3  A    between atoms: C_21  and  C_27
REMARK                            x       y       z     vdW  Elec       q    Type
REMARK                         _______ _______ _______ _____ _____    ______ ____
ROOT
ATOM      1  O   UNL     1     112.517 126.592 136.655  0.00  0.00    +0.000 OA
ATOM      2  O   UNL     1     114.636 127.181 136.233  0.00  0.00    +0.000 OA
ATOM      3  O   UNL     1     111.377 123.994 137.160  0.00  0.00    +0.000 OA
ATOM      4  O   UNL     1     114.184 124.226 136.669  0.00  0.00    +0.000 OA
ATOM      5  C   UNL     1     111.955 125.277 136.908  0.00  0.00    +0.000 A 
ATOM      6  C   UNL     1     112.615 125.742 136.742  0.00  0.00    +0.000 A 
ATOM      7  C   UNL     1     113.358 125.392 136.662  0.00  0.00    +0.000 A 
ATOM      8  C   UNL     1     113.973 126.718 136.399  0.00  0.00    +0.000 C 
ATOM      9  C   UNL     1     113.200 127.082 136.482  0.00  0.00    +0.000 C 
ATOM     10  C   UNL     1     114.053 125.867 136.489  0.00  0.00    +0.000 C 
ATOM     11  C   UNL     1     112.038 124.461 136.994  0.00  0.00    +0.000 A 
ATOM     12  C   UNL     1     113.440 124.576 136.748  0.00  0.00    +0.000 A 
ATOM     13  C   UNL     1     112.781 124.110 136.914  0.00  0.00    +0.000 A 
ENDROOT
BRANCH   5  18
ATOM     14  O   UNL     1     110.767 125.806 136.318  0.00  0.00    +0.000 OA
ATOM     15  O   UNL     1     111.362 125.618 138.409  0.00  0.00    +0.000 OA
ATOM     16  O   UNL     1     109.877 126.319 138.569  0.00  0.00    +0.000 OA
ATOM     17  O   UNL     1     108.984 126.677 137.227  0.00  0.00    +0.000 OA
ATOM     18  C   UNL     1     111.213 125.626 136.988  0.00  0.00    +0.000 C 
ATOM     19  C   UNL     1     110.916 125.798 137.738  0.00  0.00    +0.000 C 
ATOM     20  C   UNL     1     110.173 126.148 137.818  0.00  0.00    +0.000 C 
ATOM     21  C   UNL     1     109.728 126.327 137.147  0.00  0.00    +0.000 C 
ATOM     22  C   UNL     1     110.024 126.156 136.397  0.00  0.00    +0.000 C 
BRANCH  22  24
ATOM     23  O   UNL     1     109.642 125.863 135.051  0.00  0.00    +0.000 OA
ATOM     24  C   UNL     1     109.579 126.335 135.726  0.00  0.00    +0.000 C 
ENDBRANCH  22  24
ENDBRANCH   5  18
BRANCH   9  27
ATOM     25  O   UNL     1     112.650 129.354 134.836  0.00  0.00    +0.000 OA
ATOM     26  O   UNL     1     112.858 130.347 136.138  0.00  0.00    +0.000 OA
ATOM     27  C   UNL     1     113.115 127.898 136.396  0.00  0.00    +0.000 A 
ATOM     28  C   UNL     1     112.925 128.218 135.660  0.00  0.00    +0.000 A 
ATOM     29  C   UNL     1     113.219 128.395 137.046  0.00  0.00    +0.000 A 
ATOM     30  C   UNL     1     112.839 129.035 135.573  0.00  0.00    +0.000 A 
ATOM     31  C   UNL     1     113.133 129.211 136.960  0.00  0.00    +0.000 A 
ATOM     32  C   UNL     1     112.943 129.531 136.224  0.00  0.00    +0.000 A 
ENDBRANCH   9  27
TORSDOF 3
ENDMDL
MODEL 6
REMARK VINA RESULT:      -9.4     11.798     12.859
REMARK  Name = 131752730
REMARK  3 active torsions:
REMARK  status: ('A' for Active; 'I' for Inactive)
REMARK    1  A    between atoms: C_12  and  C_17
REMARK    2  A    between atoms: C_16  and  C_23
REMARK    3  A    between atoms: C_21  and  C_27
REMARK                            x       y       z     vdW  Elec       q    Type
REMARK                         _______ _______ _______ _____ _____    ______ ____
ROOT
ATOM      1  O   UNL     1     111.353 126.548 136.208  0.00  0.00    +0.000 OA
ATOM      2  O   UNL     1     109.715 125.640 134.978  0.00  0.00    +0.000 OA
ATOM      3  O   UNL     1     113.559 125.297 137.574  0.00  0.00    +0.000 OA
ATOM      4  O   UNL     1     111.710 123.677 136.115  0.00  0.00    +0.000 OA
ATOM      5  C   UNL     1     112.461 125.905 136.892  0.00  0.00    +0.000 A 
ATOM      6  C   UNL     1     111.786 125.837 136.421  0.00  0.00    +0.000 A 
ATOM      7  C   UNL     1     111.536 125.095 136.163  0.00  0.00    +0.000 A 
ATOM      8  C   UNL     1     110.389 125.711 135.449  0.00  0.00    +0.000 C 
ATOM      9  C   UNL     1     110.650 126.484 135.718  0.00  0.00    +0.000 C 
ATOM     10  C   UNL     1     110.835 125.012 135.672  0.00  0.00    +0.000 C 
ATOM     11  C   UNL     1     112.884 125.230 137.103  0.00  0.00    +0.000 A 
ATOM     12  C   UNL     1     111.960 124.420 136.374  0.00  0.00    +0.000 A 
ATOM     13  C   UNL     1     112.634 124.487 136.844  0.00  0.00    +0.000 A 
ENDROOT
BRANCH   5  18
ATOM     14  O   UNL     1     113.148 127.133 136.648  0.00  0.00    +0.000 OA
ATOM     15  O   UNL     1     112.084 126.417 138.414  0.00  0.00    +0.000 OA
ATOM     16  O   UNL     1     112.585 127.902 138.931  0.00  0.00    +0.000 OA
ATOM     17  O   UNL     1     113.461 128.874 137.927  0.00  0.00    +0.000 OA
ATOM     18  C   UNL     1     112.710 126.646 137.150  0.00  0.00    +0.000 C 
ATOM     19  C   UNL     1     112.523 126.903 137.911  0.00  0.00    +0.000 C 
ATOM     20  C   UNL     1     112.773 127.646 138.170  0.00  0.00    +0.000 C 
ATOM     21  C   UNL     1     113.211 128.131 137.668  0.00  0.00    +0.000 C 
ATOM     22  C   UNL     1     113.399 127.875 136.907  0.00  0.00    +0.000 C 
BRANCH  22  24
ATOM     23  O   UNL     1     114.215 128.037 135.745  0.00  0.00    +0.000 OA
ATOM     24  C   UNL     1     113.837 128.361 136.404  0.00  0.00    +0.000 C 
ENDBRANCH  22  24
ENDBRANCH   5  18
BRANCH   9  27
ATOM     25  O   UNL     1     108.564 128.365 136.251  0.00  0.00    +0.000 OA
ATOM     26  O   UNL     1     108.959 129.192 134.878  0.00  0.00    +0.000 OA
ATOM     27  C   UNL     1     110.227 127.161 135.508  0.00  0.00    +0.000 A 
ATOM     28  C   UNL     1     109.607 127.424 135.984  0.00  0.00    +0.000 A 
ATOM     29  C   UNL     1     110.424 127.575 134.822  0.00  0.00    +0.000 A 
ATOM     30  C   UNL     1     109.184 128.102 135.775  0.00  0.00    +0.000 A 
ATOM     31  C   UNL     1     110.002 128.251 134.612  0.00  0.00    +0.000 A 
ATOM     32  C   UNL     1     109.381 128.515 135.088  0.00  0.00    +0.000 A 
ENDBRANCH   9  27
TORSDOF 3
ENDMDL
MODEL 7
REMARK VINA RESULT:      -9.4      1.739      3.201
REMARK  Name = 131752730
REMARK  3 active torsions:
REMARK  status: ('A' for Active; 'I' for Inactive)
REMARK    1  A    between atoms: C_12  and  C_17
REMARK    2  A    between atoms: C_16  and  C_23
REMARK    3  A    between atoms: C_21  and  C_27
REMARK                            x       y       z     vdW  Elec       q    Type
REMARK                         _______ _______ _______ _____ _____    ______ ____
ROOT
ATOM      1  O   UNL     1     104.116 125.709 147.190  0.00  0.00    +0.000 OA
ATOM      2  O   UNL     1     102.481 125.988 148.695  0.00  0.00    +0.000 OA
ATOM      3  O   UNL     1     104.587 123.553 145.338  0.00  0.00    +0.000 OA
ATOM      4  O   UNL     1     102.323 123.440 147.081  0.00  0.00    +0.000 OA
ATOM      5  C   UNL     1     104.342 124.616 146.261  0.00  0.00    +0.000 A 
ATOM      6  C   UNL     1     103.883 124.951 146.859  0.00  0.00    +0.000 A 
ATOM      7  C   UNL     1     103.210 124.559 147.132  0.00  0.00    +0.000 A 
ATOM      8  C   UNL     1     102.942 125.655 148.097  0.00  0.00    +0.000 C 
ATOM      9  C   UNL     1     103.643 126.063 147.813  0.00  0.00    +0.000 C 
ATOM     10  C   UNL     1     102.724 124.898 147.755  0.00  0.00    +0.000 C 
ATOM     11  C   UNL     1     104.127 123.888 145.937  0.00  0.00    +0.000 A 
ATOM     12  C   UNL     1     102.997 123.832 146.807  0.00  0.00    +0.000 A 
ATOM     13  C   UNL     1     103.455 123.496 146.210  0.00  0.00    +0.000 A 
ENDROOT
BRANCH   5  18
ATOM     14  O   UNL     1     104.943 125.607 145.427  0.00  0.00    +0.000 OA
ATOM     15  O   UNL     1     105.830 124.200 146.840  0.00  0.00    +0.000 OA
ATOM     16  O   UNL     1     107.175 124.983 146.294  0.00  0.00    +0.000 OA
ATOM     17  O   UNL     1     107.033 126.183 145.169  0.00  0.00    +0.000 OA
ATOM     18  C   UNL     1     105.014 125.007 145.989  0.00  0.00    +0.000 C 
ATOM     19  C   UNL     1     105.758 124.800 146.277  0.00  0.00    +0.000 C 
ATOM     20  C   UNL     1     106.431 125.192 146.004  0.00  0.00    +0.000 C 
ATOM     21  C   UNL     1     106.359 125.791 145.442  0.00  0.00    +0.000 C 
ATOM     22  C   UNL     1     105.616 125.999 145.154  0.00  0.00    +0.000 C 
BRANCH  22  24
ATOM     23  O   UNL     1     105.181 126.442 143.866  0.00  0.00    +0.000 OA
ATOM     24  C   UNL     1     105.543 126.598 144.591  0.00  0.00    +0.000 C 
ENDBRANCH  22  24
ENDBRANCH   5  18
BRANCH   9  27
ATOM     25  O   UNL     1     105.255 127.592 149.612  0.00  0.00    +0.000 OA
ATOM     26  O   UNL     1     104.509 128.974 149.106  0.00  0.00    +0.000 OA
ATOM     27  C   UNL     1     103.859 126.791 148.136  0.00  0.00    +0.000 A 
ATOM     28  C   UNL     1     104.449 126.827 148.712  0.00  0.00    +0.000 A 
ATOM     29  C   UNL     1     103.486 127.482 147.884  0.00  0.00    +0.000 A 
ATOM     30  C   UNL     1     104.666 127.555 149.036  0.00  0.00    +0.000 A 
ATOM     31  C   UNL     1     103.703 128.210 148.207  0.00  0.00    +0.000 A 
ATOM     32  C   UNL     1     104.292 128.246 148.783  0.00  0.00    +0.000 A 
ENDBRANCH   9  27
TORSDOF 3
ENDMDL
MODEL 8
REMARK VINA RESULT:      -9.3     10.506     12.397
REMARK  Name = 131752730
REMARK  3 active torsions:
REMARK  status: ('A' for Active; 'I' for Inactive)
REMARK    1  A    between atoms: C_12  and  C_17
REMARK    2  A    between atoms: C_16  and  C_23
REMARK    3  A    between atoms: C_21  and  C_27
REMARK                            x       y       z     vdW  Elec       q    Type
REMARK                         _______ _______ _______ _____ _____    ______ ____
ROOT
ATOM      1  O   UNL     1     111.619 126.334 136.713  0.00  0.00    +0.000 OA
ATOM      2  O   UNL     1     110.457 125.013 135.326  0.00  0.00    +0.000 OA
ATOM      3  O   UNL     1     114.114 125.858 138.074  0.00  0.00    +0.000 OA
ATOM      4  O   UNL     1     113.024 123.824 136.386  0.00  0.00    +0.000 OA
ATOM      5  C   UNL     1     112.877 126.082 137.393  0.00  0.00    +0.000 A 
ATOM      6  C   UNL     1     112.284 125.817 136.885  0.00  0.00    +0.000 A 
ATOM      7  C   UNL     1     112.333 125.065 136.549  0.00  0.00    +0.000 A 
ATOM      8  C   UNL     1     111.049 125.281 135.835  0.00  0.00    +0.000 C 
ATOM      9  C   UNL     1     110.998 126.064 136.184  0.00  0.00    +0.000 C 
ATOM     10  C   UNL     1     111.721 124.778 136.018  0.00  0.00    +0.000 C 
ATOM     11  C   UNL     1     113.520 125.594 137.565  0.00  0.00    +0.000 A 
ATOM     12  C   UNL     1     112.975 124.577 136.722  0.00  0.00    +0.000 A 
ATOM     13  C   UNL     1     113.569 124.842 137.229  0.00  0.00    +0.000 A 
ENDROOT
BRANCH   5  18
ATOM     14  O   UNL     1     112.397 126.948 138.422  0.00  0.00    +0.000 OA
ATOM     15  O   UNL     1     113.643 127.355 136.677  0.00  0.00    +0.000 OA
ATOM     16  O   UNL     1     113.545 128.859 137.348  0.00  0.00    +0.000 OA
ATOM     17  O   UNL     1     112.681 129.090 138.735  0.00  0.00    +0.000 OA
ATOM     18  C   UNL     1     112.828 126.833 137.728  0.00  0.00    +0.000 C 
ATOM     19  C   UNL     1     113.211 127.470 137.371  0.00  0.00    +0.000 C 
ATOM     20  C   UNL     1     113.162 128.222 137.706  0.00  0.00    +0.000 C 
ATOM     21  C   UNL     1     112.730 128.337 138.399  0.00  0.00    +0.000 C 
ATOM     22  C   UNL     1     112.348 127.700 138.757  0.00  0.00    +0.000 C 
BRANCH  22  24
ATOM     23  O   UNL     1     111.623 127.163 139.866  0.00  0.00    +0.000 OA
ATOM     24  C   UNL     1     111.916 127.814 139.451  0.00  0.00    +0.000 C 
ENDBRANCH  22  24
ENDBRANCH   5  18
BRANCH   9  27
ATOM     25  O   UNL     1     108.373 127.011 136.804  0.00  0.00    +0.000 OA
ATOM     26  O   UNL     1     108.431 128.023 135.502  0.00  0.00    +0.000 OA
ATOM     27  C   UNL     1     110.357 126.554 136.014  0.00  0.00    +0.000 A 
ATOM     28  C   UNL     1     109.686 126.538 136.494  0.00  0.00    +0.000 A 
ATOM     29  C   UNL     1     110.385 127.059 135.363  0.00  0.00    +0.000 A 
ATOM     30  C   UNL     1     109.044 127.027 136.324  0.00  0.00    +0.000 A 
ATOM     31  C   UNL     1     109.743 127.549 135.192  0.00  0.00    +0.000 A 
ATOM     32  C   UNL     1     109.072 127.533 135.672  0.00  0.00    +0.000 A 
ENDBRANCH   9  27
TORSDOF 3
ENDMDL
MODEL 9
REMARK VINA RESULT:      -9.3     11.881     13.187
REMARK  Name = 131752730
REMARK  3 active torsions:
REMARK  status: ('A' for Active; 'I' for Inactive)
REMARK    1  A    between atoms: C_12  and  C_17
REMARK    2  A    between atoms: C_16  and  C_23
REMARK    3  A    between atoms: C_21  and  C_27
REMARK                            x       y       z     vdW  Elec       q    Type
REMARK                         _______ _______ _______ _____ _____    ______ ____
ROOT
ATOM      1  O   UNL     1     110.355 127.921 135.959  0.00  0.00    +0.000 OA
ATOM      2  O   UNL     1     108.576 126.563 135.846  0.00  0.00    +0.000 OA
ATOM      3  O   UNL     1     110.494 130.798 136.010  0.00  0.00    +0.000 OA
ATOM      4  O   UNL     1     107.942 129.517 135.858  0.00  0.00    +0.000 OA
ATOM      5  C   UNL     1     110.411 129.372 135.984  0.00  0.00    +0.000 A 
ATOM      6  C   UNL     1     109.958 128.683 135.950  0.00  0.00    +0.000 A 
ATOM      7  C   UNL     1     109.135 128.732 135.908  0.00  0.00    +0.000 A 
ATOM      8  C   UNL     1     109.032 127.251 135.880  0.00  0.00    +0.000 C 
ATOM      9  C   UNL     1     109.889 127.200 135.924  0.00  0.00    +0.000 C 
ATOM     10  C   UNL     1     108.653 128.021 135.872  0.00  0.00    +0.000 C 
ATOM     11  C   UNL     1     110.040 130.109 135.976  0.00  0.00    +0.000 A 
ATOM     12  C   UNL     1     108.766 129.469 135.900  0.00  0.00    +0.000 A 
ATOM     13  C   UNL     1     109.218 130.157 135.934  0.00  0.00    +0.000 A 
ENDROOT
BRANCH   5  18
ATOM     14  O   UNL     1     111.602 129.203 136.754  0.00  0.00    +0.000 OA
ATOM     15  O   UNL     1     111.316 129.515 134.613  0.00  0.00    +0.000 OA
ATOM     16  O   UNL     1     112.961 129.418 134.697  0.00  0.00    +0.000 OA
ATOM     17  O   UNL     1     113.701 129.178 136.153  0.00  0.00    +0.000 OA
ATOM     18  C   UNL     1     111.232 129.323 136.026  0.00  0.00    +0.000 C 
ATOM     19  C   UNL     1     111.686 129.395 135.341  0.00  0.00    +0.000 C 
ATOM     20  C   UNL     1     112.508 129.346 135.383  0.00  0.00    +0.000 C 
ATOM     21  C   UNL     1     112.877 129.226 136.111  0.00  0.00    +0.000 C 
ATOM     22  C   UNL     1     112.425 129.155 136.796  0.00  0.00    +0.000 C 
BRANCH  22  24
ATOM     23  O   UNL     1     112.397 129.224 138.223  0.00  0.00    +0.000 OA
ATOM     24  C   UNL     1     112.793 129.035 137.524  0.00  0.00    +0.000 C 
ENDBRANCH  22  24
ENDBRANCH   5  18
BRANCH   9  27
ATOM     25  O   UNL     1     111.047 125.029 137.379  0.00  0.00    +0.000 OA
ATOM     26  O   UNL     1     111.378 124.255 135.959  0.00  0.00    +0.000 OA
ATOM     27  C   UNL     1     110.261 126.464 135.933  0.00  0.00    +0.000 A 
ATOM     28  C   UNL     1     110.468 126.115 136.651  0.00  0.00    +0.000 A 
ATOM     29  C   UNL     1     110.427 126.077 135.224  0.00  0.00    +0.000 A 
ATOM     30  C   UNL     1     110.840 125.378 136.660  0.00  0.00    +0.000 A 
ATOM     31  C   UNL     1     110.799 125.341 135.232  0.00  0.00    +0.000 A 
ATOM     32  C   UNL     1     111.006 124.991 135.951  0.00  0.00    +0.000 A 
ENDBRANCH   9  27
TORSDOF 3
ENDMDL
