MODEL 1
REMARK VINA RESULT:     -10.5      0.000      0.000
REMARK  Name = 14887602
REMARK  7 active torsions:
REMARK  status: ('A' for Active; 'I' for Inactive)
REMARK    1  A    between atoms: O_3  and  C_24
REMARK    2  A    between atoms: O_3  and  C_31
REMARK    3  A    between atoms: O_7  and  C_28
REMARK    4  A    between atoms: O_7  and  C_33
REMARK    5  A    between atoms: C_23  and  C_30
REMARK    6  A    between atoms: C_29  and  C_32
REMARK    7  A    between atoms: C_36  and  C_40
REMARK                            x       y       z     vdW  Elec       q    Type
REMARK                         _______ _______ _______ _____ _____    ______ ____
ROOT
ATOM      1  O   UNL     1     111.528 127.408 137.259  0.00  0.00    +0.000 OA
ATOM      2  O   UNL     1     109.074 127.711 137.141  0.00  0.00    +0.000 OA
ATOM      3  O   UNL     1     111.206 125.499 139.435  0.00  0.00    +0.000 OA
ATOM      4  O   UNL     1     108.876 126.771 138.216  0.00  0.00    +0.000 OA
ATOM      5  C   UNL     1     110.385 128.027 136.667  0.00  0.00    +0.000 A 
ATOM      6  C   UNL     1     111.386 126.454 138.345  0.00  0.00    +0.000 A 
ATOM      7  C   UNL     1     111.035 126.991 137.773  0.00  0.00    +0.000 A 
ATOM      8  C   UNL     1     110.218 127.092 137.733  0.00  0.00    +0.000 A 
ATOM      9  C   UNL     1     111.203 127.927 136.706  0.00  0.00    +0.000 A 
ATOM     10  C   UNL     1     109.892 127.611 137.180  0.00  0.00    +0.000 A 
ATOM     11  C   UNL     1     110.878 126.017 138.882  0.00  0.00    +0.000 A 
ATOM     12  C   UNL     1     109.694 126.664 138.263  0.00  0.00    +0.000 A 
ATOM     13  C   UNL     1     110.027 126.122 138.841  0.00  0.00    +0.000 A 
ENDROOT
BRANCH   9  16
ATOM     14  O   UNL     1     113.079 130.032 136.239  0.00  0.00    +0.000 OA
ATOM     15  O   UNL     1     113.174 129.595 134.651  0.00  0.00    +0.000 OA
ATOM     16  C   UNL     1     111.696 128.343 136.193  0.00  0.00    +0.000 A 
ATOM     17  C   UNL     1     112.141 128.979 136.472  0.00  0.00    +0.000 A 
ATOM     18  C   UNL     1     111.743 128.125 135.399  0.00  0.00    +0.000 A 
ATOM     19  C   UNL     1     112.633 129.396 135.959  0.00  0.00    +0.000 A 
ATOM     20  C   UNL     1     112.237 128.542 134.884  0.00  0.00    +0.000 A 
ATOM     21  C   UNL     1     112.681 129.177 135.165  0.00  0.00    +0.000 A 
ENDBRANCH   9  16
BRANCH   5  22
ATOM     22  O   UNL     1     110.060 128.546 136.113  0.00  0.00    +0.000 OA
BRANCH  22  31
ATOM     23  O   UNL     1     109.769 129.558 137.079  0.00  0.00    +0.000 OA
ATOM     24  O   UNL     1     107.870 130.334 135.692  0.00  0.00    +0.000 OA
ATOM     25  O   UNL     1     108.212 131.087 137.119  0.00  0.00    +0.000 OA
ATOM     26  O   UNL     1     108.794 129.063 135.189  0.00  0.00    +0.000 OA
ATOM     27  C   UNL     1     108.503 130.075 136.154  0.00  0.00    +0.000 C 
ATOM     28  C   UNL     1     108.674 130.452 136.867  0.00  0.00    +0.000 C 
ATOM     29  C   UNL     1     108.965 129.440 135.902  0.00  0.00    +0.000 C 
ATOM     30  C   UNL     1     109.306 130.194 137.330  0.00  0.00    +0.000 C 
ATOM     31  C   UNL     1     109.598 129.181 136.364  0.00  0.00    +0.000 C 
BRANCH  30  33
ATOM     32  O   UNL     1     110.206 130.944 138.147  0.00  0.00    +0.000 OA
ATOM     33  C   UNL     1     109.477 130.570 138.043  0.00  0.00    +0.000 C 
ENDBRANCH  30  33
ENDBRANCH  22  31
ENDBRANCH   5  22
BRANCH   6  34
ATOM     34  O   UNL     1     112.205 126.359 138.377  0.00  0.00    +0.000 OA
BRANCH  34  42
ATOM     35  O   UNL     1     112.102 125.183 137.572  0.00  0.00    +0.000 OA
ATOM     36  O   UNL     1     114.568 124.977 137.557  0.00  0.00    +0.000 OA
ATOM     37  O   UNL     1     113.849 126.222 138.367  0.00  0.00    +0.000 OA
ATOM     38  O   UNL     1     113.643 123.870 136.757  0.00  0.00    +0.000 OA
ATOM     39  C   UNL     1     113.746 125.046 137.562  0.00  0.00    +0.000 C 
ATOM     40  C   UNL     1     113.387 125.669 137.967  0.00  0.00    +0.000 C 
ATOM     41  C   UNL     1     113.283 124.492 137.162  0.00  0.00    +0.000 C 
ATOM     42  C   UNL     1     112.564 125.737 137.972  0.00  0.00    +0.000 C 
ATOM     43  C   UNL     1     112.461 124.560 137.167  0.00  0.00    +0.000 C 
BRANCH  43  46
ATOM     44  O   UNL     1     111.826 123.282 137.122  0.00  0.00    +0.000 OA
ATOM     45  O   UNL     1     111.707 124.178 136.015  0.00  0.00    +0.000 OA
ATOM     46  C   UNL     1     111.998 124.007 136.768  0.00  0.00    +0.000 C 
ENDBRANCH  43  46
ENDBRANCH  34  42
ENDBRANCH   6  34
TORSDOF 7
ENDMDL
MODEL 2
REMARK VINA RESULT:     -10.4      2.108      3.999
REMARK  Name = 14887602
REMARK  7 active torsions:
REMARK  status: ('A' for Active; 'I' for Inactive)
REMARK    1  A    between atoms: O_3  and  C_24
REMARK    2  A    between atoms: O_3  and  C_31
REMARK    3  A    between atoms: O_7  and  C_28
REMARK    4  A    between atoms: O_7  and  C_33
REMARK    5  A    between atoms: C_23  and  C_30
REMARK    6  A    between atoms: C_29  and  C_32
REMARK    7  A    between atoms: C_36  and  C_40
REMARK                            x       y       z     vdW  Elec       q    Type
REMARK                         _______ _______ _______ _____ _____    ______ ____
ROOT
ATOM      1  O   UNL     1     112.737 126.076 138.615  0.00  0.00    +0.000 OA
ATOM      2  O   UNL     1     110.464 125.627 137.744  0.00  0.00    +0.000 OA
ATOM      3  O   UNL     1     111.611 126.952 141.154  0.00  0.00    +0.000 OA
ATOM      4  O   UNL     1     109.871 126.054 138.987  0.00  0.00    +0.000 OA
ATOM      5  C   UNL     1     111.881 125.637 137.559  0.00  0.00    +0.000 A 
ATOM      6  C   UNL     1     112.193 126.516 139.888  0.00  0.00    +0.000 A 
ATOM      7  C   UNL     1     112.077 126.215 139.092  0.00  0.00    +0.000 A 
ATOM      8  C   UNL     1     111.320 126.065 138.800  0.00  0.00    +0.000 A 
ATOM      9  C   UNL     1     112.639 125.787 137.849  0.00  0.00    +0.000 A 
ATOM     10  C   UNL     1     111.222 125.776 138.034  0.00  0.00    +0.000 A 
ATOM     11  C   UNL     1     111.510 126.663 140.388  0.00  0.00    +0.000 A 
ATOM     12  C   UNL     1     110.625 126.206 139.286  0.00  0.00    +0.000 A 
ATOM     13  C   UNL     1     110.721 126.508 140.086  0.00  0.00    +0.000 A 
ENDROOT
BRANCH   9  16
ATOM     14  O   UNL     1     114.707 126.766 136.137  0.00  0.00    +0.000 OA
ATOM     15  O   UNL     1     115.277 125.229 135.947  0.00  0.00    +0.000 OA
ATOM     16  C   UNL     1     113.298 125.648 137.374  0.00  0.00    +0.000 A 
ATOM     17  C   UNL     1     113.673 126.276 136.993  0.00  0.00    +0.000 A 
ATOM     18  C   UNL     1     113.583 124.879 137.279  0.00  0.00    +0.000 A 
ATOM     19  C   UNL     1     114.332 126.137 136.518  0.00  0.00    +0.000 A 
ATOM     20  C   UNL     1     114.243 124.739 136.803  0.00  0.00    +0.000 A 
ATOM     21  C   UNL     1     114.617 125.369 136.423  0.00  0.00    +0.000 A 
ENDBRANCH   9  16
BRANCH   5  22
ATOM     22  O   UNL     1     111.783 125.348 136.792  0.00  0.00    +0.000 OA
BRANCH  22  31
ATOM     23  O   UNL     1     111.332 126.592 136.252  0.00  0.00    +0.000 OA
ATOM     24  O   UNL     1     109.935 125.373 134.612  0.00  0.00    +0.000 OA
ATOM     25  O   UNL     1     109.951 127.022 134.619  0.00  0.00    +0.000 OA
ATOM     26  O   UNL     1     110.852 124.536 135.699  0.00  0.00    +0.000 OA
ATOM     27  C   UNL     1     110.401 125.780 135.159  0.00  0.00    +0.000 C 
ATOM     28  C   UNL     1     110.408 126.604 135.162  0.00  0.00    +0.000 C 
ATOM     29  C   UNL     1     110.859 125.360 135.702  0.00  0.00    +0.000 C 
ATOM     30  C   UNL     1     110.874 127.010 135.708  0.00  0.00    +0.000 C 
ATOM     31  C   UNL     1     111.325 125.766 136.249  0.00  0.00    +0.000 C 
BRANCH  30  33
ATOM     32  O   UNL     1     111.582 128.241 135.550  0.00  0.00    +0.000 OA
ATOM     33  C   UNL     1     110.882 127.835 135.712  0.00  0.00    +0.000 C 
ENDBRANCH  30  33
ENDBRANCH  22  31
ENDBRANCH   5  22
BRANCH   6  34
ATOM     34  O   UNL     1     112.954 126.663 140.170  0.00  0.00    +0.000 OA
BRANCH  34  42
ATOM     35  O   UNL     1     112.854 128.029 139.762  0.00  0.00    +0.000 OA
ATOM     36  O   UNL     1     114.951 128.543 140.971  0.00  0.00    +0.000 OA
ATOM     37  O   UNL     1     114.352 127.007 140.976  0.00  0.00    +0.000 OA
ATOM     38  O   UNL     1     114.153 129.738 140.159  0.00  0.00    +0.000 OA
ATOM     39  C   UNL     1     114.252 128.372 140.568  0.00  0.00    +0.000 C 
ATOM     40  C   UNL     1     113.953 127.603 140.571  0.00  0.00    +0.000 C 
ATOM     41  C   UNL     1     113.853 128.969 140.162  0.00  0.00    +0.000 C 
ATOM     42  C   UNL     1     113.253 127.432 140.167  0.00  0.00    +0.000 C 
ATOM     43  C   UNL     1     113.154 128.798 139.759  0.00  0.00    +0.000 C 
BRANCH  43  46
ATOM     44  O   UNL     1     112.241 129.896 139.760  0.00  0.00    +0.000 OA
ATOM     45  O   UNL     1     112.866 129.489 138.541  0.00  0.00    +0.000 OA
ATOM     46  C   UNL     1     112.754 129.394 139.353  0.00  0.00    +0.000 C 
ENDBRANCH  43  46
ENDBRANCH  34  42
ENDBRANCH   6  34
TORSDOF 7
ENDMDL
MODEL 3
REMARK VINA RESULT:     -10.2      1.413      1.919
REMARK  Name = 14887602
REMARK  7 active torsions:
REMARK  status: ('A' for Active; 'I' for Inactive)
REMARK    1  A    between atoms: O_3  and  C_24
REMARK    2  A    between atoms: O_3  and  C_31
REMARK    3  A    between atoms: O_7  and  C_28
REMARK    4  A    between atoms: O_7  and  C_33
REMARK    5  A    between atoms: C_23  and  C_30
REMARK    6  A    between atoms: C_29  and  C_32
REMARK    7  A    between atoms: C_36  and  C_40
REMARK                            x       y       z     vdW  Elec       q    Type
REMARK                         _______ _______ _______ _____ _____    ______ ____
ROOT
ATOM      1  O   UNL     1     113.023 127.980 137.509  0.00  0.00    +0.000 OA
ATOM      2  O   UNL     1     110.898 129.192 137.888  0.00  0.00    +0.000 OA
ATOM      3  O   UNL     1     112.363 126.114 139.644  0.00  0.00    +0.000 OA
ATOM      4  O   UNL     1     110.538 128.287 138.952  0.00  0.00    +0.000 OA
ATOM      5  C   UNL     1     112.127 129.042 137.174  0.00  0.00    +0.000 A 
ATOM      6  C   UNL     1     112.710 127.040 138.571  0.00  0.00    +0.000 A 
ATOM      7  C   UNL     1     112.503 127.726 138.097  0.00  0.00    +0.000 A 
ATOM      8  C   UNL     1     111.795 128.131 138.223  0.00  0.00    +0.000 A 
ATOM      9  C   UNL     1     112.835 128.638 137.047  0.00  0.00    +0.000 A 
ATOM     10  C   UNL     1     111.607 128.788 137.761  0.00  0.00    +0.000 A 
ATOM     11  C   UNL     1     112.172 126.772 139.184  0.00  0.00    +0.000 A 
ATOM     12  C   UNL     1     111.244 127.877 138.832  0.00  0.00    +0.000 A 
ATOM     13  C   UNL     1     111.435 127.192 139.316  0.00  0.00    +0.000 A 
ENDROOT
BRANCH   9  16
ATOM     14  O   UNL     1     114.834 130.463 136.129  0.00  0.00    +0.000 OA
ATOM     15  O   UNL     1     114.917 129.651 134.695  0.00  0.00    +0.000 OA
ATOM     16  C   UNL     1     113.355 128.891 136.460  0.00  0.00    +0.000 A 
ATOM     17  C   UNL     1     113.834 129.551 136.588  0.00  0.00    +0.000 A 
ATOM     18  C   UNL     1     113.397 128.485 135.743  0.00  0.00    +0.000 A 
ATOM     19  C   UNL     1     114.354 129.804 136.000  0.00  0.00    +0.000 A 
ATOM     20  C   UNL     1     113.917 128.738 135.154  0.00  0.00    +0.000 A 
ATOM     21  C   UNL     1     114.396 129.398 135.284  0.00  0.00    +0.000 A 
ENDBRANCH   9  16
BRANCH   5  22
ATOM     22  O   UNL     1     111.939 129.699 136.713  0.00  0.00    +0.000 OA
BRANCH  22  31
ATOM     23  O   UNL     1     110.945 129.018 135.944  0.00  0.00    +0.000 OA
ATOM     24  O   UNL     1     109.709 131.144 135.659  0.00  0.00    +0.000 OA
ATOM     25  O   UNL     1     109.128 129.755 134.987  0.00  0.00    +0.000 OA
ATOM     26  O   UNL     1     111.115 131.116 136.523  0.00  0.00    +0.000 OA
ATOM     27  C   UNL     1     110.121 130.435 135.754  0.00  0.00    +0.000 C 
ATOM     28  C   UNL     1     109.830 129.741 135.418  0.00  0.00    +0.000 C 
ATOM     29  C   UNL     1     110.824 130.422 136.186  0.00  0.00    +0.000 C 
ATOM     30  C   UNL     1     110.242 129.033 135.513  0.00  0.00    +0.000 C 
ATOM     31  C   UNL     1     111.236 129.714 136.281  0.00  0.00    +0.000 C 
BRANCH  30  33
ATOM     32  O   UNL     1     110.401 127.933 134.615  0.00  0.00    +0.000 OA
ATOM     33  C   UNL     1     109.951 128.338 135.177  0.00  0.00    +0.000 C 
ENDBRANCH  30  33
ENDBRANCH  22  31
ENDBRANCH   5  22
BRANCH   6  34
ATOM     34  O   UNL     1     113.420 126.643 138.437  0.00  0.00    +0.000 OA
BRANCH  34  42
ATOM     35  O   UNL     1     112.746 125.711 137.588  0.00  0.00    +0.000 OA
ATOM     36  O   UNL     1     114.811 124.357 137.435  0.00  0.00    +0.000 OA
ATOM     37  O   UNL     1     114.797 125.739 138.334  0.00  0.00    +0.000 OA
ATOM     38  O   UNL     1     113.449 123.877 136.637  0.00  0.00    +0.000 OA
ATOM     39  C   UNL     1     114.123 124.808 137.486  0.00  0.00    +0.000 C 
ATOM     40  C   UNL     1     114.116 125.500 137.936  0.00  0.00    +0.000 C 
ATOM     41  C   UNL     1     113.441 124.568 137.087  0.00  0.00    +0.000 C 
ATOM     42  C   UNL     1     113.427 125.951 137.987  0.00  0.00    +0.000 C 
ATOM     43  C   UNL     1     112.753 125.020 137.138  0.00  0.00    +0.000 C 
BRANCH  43  46
ATOM     44  O   UNL     1     111.878 125.123 136.013  0.00  0.00    +0.000 OA
ATOM     45  O   UNL     1     111.584 124.201 137.065  0.00  0.00    +0.000 OA
ATOM     46  C   UNL     1     112.072 124.781 136.739  0.00  0.00    +0.000 C 
ENDBRANCH  43  46
ENDBRANCH  34  42
ENDBRANCH   6  34
TORSDOF 7
ENDMDL
MODEL 4
REMARK VINA RESULT:     -10.1      1.421      5.582
REMARK  Name = 14887602
REMARK  7 active torsions:
REMARK  status: ('A' for Active; 'I' for Inactive)
REMARK    1  A    between atoms: O_3  and  C_24
REMARK    2  A    between atoms: O_3  and  C_31
REMARK    3  A    between atoms: O_7  and  C_28
REMARK    4  A    between atoms: O_7  and  C_33
REMARK    5  A    between atoms: C_23  and  C_30
REMARK    6  A    between atoms: C_29  and  C_32
REMARK    7  A    between atoms: C_36  and  C_40
REMARK                            x       y       z     vdW  Elec       q    Type
REMARK                         _______ _______ _______ _____ _____    ______ ____
ROOT
ATOM      1  O   UNL     1     112.464 128.443 138.432  0.00  0.00    +0.000 OA
ATOM      2  O   UNL     1     113.540 127.160 136.609  0.00  0.00    +0.000 OA
ATOM      3  O   UNL     1     112.184 130.746 136.672  0.00  0.00    +0.000 OA
ATOM      4  O   UNL     1     113.418 128.280 135.709  0.00  0.00    +0.000 OA
ATOM      5  C   UNL     1     113.069 127.239 137.956  0.00  0.00    +0.000 A 
ATOM      6  C   UNL     1     112.316 129.601 137.568  0.00  0.00    +0.000 A 
ATOM      7  C   UNL     1     112.577 128.792 137.692  0.00  0.00    +0.000 A 
ATOM      8  C   UNL     1     112.936 128.364 137.085  0.00  0.00    +0.000 A 
ATOM      9  C   UNL     1     112.711 127.667 138.564  0.00  0.00    +0.000 A 
ATOM     10  C   UNL     1     113.182 127.588 137.217  0.00  0.00    +0.000 A 
ATOM     11  C   UNL     1     112.431 129.969 136.801  0.00  0.00    +0.000 A 
ATOM     12  C   UNL     1     113.058 128.716 136.311  0.00  0.00    +0.000 A 
ATOM     13  C   UNL     1     112.804 129.525 136.168  0.00  0.00    +0.000 A 
ENDROOT
BRANCH   9  16
ATOM     14  O   UNL     1     110.998 126.395 140.466  0.00  0.00    +0.000 OA
ATOM     15  O   UNL     1     112.261 126.273 141.522  0.00  0.00    +0.000 OA
ATOM     16  C   UNL     1     112.598 127.319 139.303  0.00  0.00    +0.000 A 
ATOM     17  C   UNL     1     111.854 127.031 139.515  0.00  0.00    +0.000 A 
ATOM     18  C   UNL     1     113.229 127.258 139.830  0.00  0.00    +0.000 A 
ATOM     19  C   UNL     1     111.742 126.683 140.254  0.00  0.00    +0.000 A 
ATOM     20  C   UNL     1     113.117 126.909 140.570  0.00  0.00    +0.000 A 
ATOM     21  C   UNL     1     112.373 126.622 140.781  0.00  0.00    +0.000 A 
ENDBRANCH   9  16
BRANCH   5  22
ATOM     22  O   UNL     1     113.315 126.463 138.088  0.00  0.00    +0.000 OA
BRANCH  22  31
ATOM     23  O   UNL     1     112.242 125.893 137.337  0.00  0.00    +0.000 OA
ATOM     24  O   UNL     1     113.653 123.928 136.811  0.00  0.00    +0.000 OA
ATOM     25  O   UNL     1     112.110 124.013 136.236  0.00  0.00    +0.000 OA
ATOM     26  O   UNL     1     114.256 125.154 137.737  0.00  0.00    +0.000 OA
ATOM     27  C   UNL     1     113.183 124.583 136.986  0.00  0.00    +0.000 C 
ATOM     28  C   UNL     1     112.411 124.625 136.699  0.00  0.00    +0.000 C 
ATOM     29  C   UNL     1     113.485 125.196 137.450  0.00  0.00    +0.000 C 
ATOM     30  C   UNL     1     111.941 125.280 136.874  0.00  0.00    +0.000 C 
ATOM     31  C   UNL     1     113.014 125.850 137.625  0.00  0.00    +0.000 C 
BRANCH  30  33
ATOM     32  O   UNL     1     110.539 125.429 137.110  0.00  0.00    +0.000 OA
ATOM     33  C   UNL     1     111.169 125.322 136.586  0.00  0.00    +0.000 C 
ENDBRANCH  30  33
ENDBRANCH  22  31
ENDBRANCH   5  22
BRANCH   6  34
ATOM     34  O   UNL     1     111.959 130.021 138.182  0.00  0.00    +0.000 OA
BRANCH  34  42
ATOM     35  O   UNL     1     110.666 129.624 137.718  0.00  0.00    +0.000 OA
ATOM     36  O   UNL     1     109.613 131.230 139.278  0.00  0.00    +0.000 OA
ATOM     37  O   UNL     1     111.255 131.092 139.221  0.00  0.00    +0.000 OA
ATOM     38  O   UNL     1     108.672 130.297 138.295  0.00  0.00    +0.000 OA
ATOM     39  C   UNL     1     109.964 130.695 138.758  0.00  0.00    +0.000 C 
ATOM     40  C   UNL     1     110.786 130.626 138.730  0.00  0.00    +0.000 C 
ATOM     41  C   UNL     1     109.494 130.228 138.266  0.00  0.00    +0.000 C 
ATOM     42  C   UNL     1     111.137 130.090 138.209  0.00  0.00    +0.000 C 
ATOM     43  C   UNL     1     109.845 129.693 137.746  0.00  0.00    +0.000 C 
BRANCH  43  46
ATOM     44  O   UNL     1     109.184 128.455 137.478  0.00  0.00    +0.000 OA
ATOM     45  O   UNL     1     109.096 129.529 136.540  0.00  0.00    +0.000 OA
ATOM     46  C   UNL     1     109.375 129.226 137.254  0.00  0.00    +0.000 C 
ENDBRANCH  43  46
ENDBRANCH  34  42
ENDBRANCH   6  34
TORSDOF 7
ENDMDL
MODEL 5
REMARK VINA RESULT:     -10.1      1.439      5.068
REMARK  Name = 14887602
REMARK  7 active torsions:
REMARK  status: ('A' for Active; 'I' for Inactive)
REMARK    1  A    between atoms: O_3  and  C_24
REMARK    2  A    between atoms: O_3  and  C_31
REMARK    3  A    between atoms: O_7  and  C_28
REMARK    4  A    between atoms: O_7  and  C_33
REMARK    5  A    between atoms: C_23  and  C_30
REMARK    6  A    between atoms: C_29  and  C_32
REMARK    7  A    between atoms: C_36  and  C_40
REMARK                            x       y       z     vdW  Elec       q    Type
REMARK                         _______ _______ _______ _____ _____    ______ ____
ROOT
ATOM      1  O   UNL     1     110.963 128.709 135.809  0.00  0.00    +0.000 OA
ATOM      2  O   UNL     1     111.327 126.380 136.562  0.00  0.00    +0.000 OA
ATOM      3  O   UNL     1     108.084 128.267 135.769  0.00  0.00    +0.000 OA
ATOM      4  O   UNL     1     109.907 126.124 136.554  0.00  0.00    +0.000 OA
ATOM      5  C   UNL     1     111.850 127.658 136.193  0.00  0.00    +0.000 A 
ATOM      6  C   UNL     1     109.525 128.507 135.783  0.00  0.00    +0.000 A 
ATOM      7  C   UNL     1     110.317 128.208 135.926  0.00  0.00    +0.000 A 
ATOM      8  C   UNL     1     110.440 127.432 136.177  0.00  0.00    +0.000 A 
ATOM      9  C   UNL     1     111.729 128.434 135.942  0.00  0.00    +0.000 A 
ATOM     10  C   UNL     1     111.206 127.157 136.311  0.00  0.00    +0.000 A 
ATOM     11  C   UNL     1     108.849 127.989 135.904  0.00  0.00    +0.000 A 
ATOM     12  C   UNL     1     109.776 126.900 136.303  0.00  0.00    +0.000 A 
ATOM     13  C   UNL     1     108.975 127.181 136.165  0.00  0.00    +0.000 A 
ENDROOT
BRANCH   9  16
ATOM     14  O   UNL     1     113.361 130.613 136.813  0.00  0.00    +0.000 OA
ATOM     15  O   UNL     1     114.307 130.440 135.472  0.00  0.00    +0.000 OA
ATOM     16  C   UNL     1     112.373 128.935 135.825  0.00  0.00    +0.000 A 
ATOM     17  C   UNL     1     112.545 129.524 136.377  0.00  0.00    +0.000 A 
ATOM     18  C   UNL     1     112.846 128.849 135.155  0.00  0.00    +0.000 A 
ATOM     19  C   UNL     1     113.189 130.025 136.260  0.00  0.00    +0.000 A 
ATOM     20  C   UNL     1     113.491 129.350 135.037  0.00  0.00    +0.000 A 
ATOM     21  C   UNL     1     113.662 129.938 135.590  0.00  0.00    +0.000 A 
ENDBRANCH   9  16
BRANCH   5  22
ATOM     22  O   UNL     1     112.616 127.382 136.327  0.00  0.00    +0.000 OA
BRANCH  22  31
ATOM     23  O   UNL     1     112.499 127.431 137.750  0.00  0.00    +0.000 OA
ATOM     24  O   UNL     1     114.120 125.571 137.947  0.00  0.00    +0.000 OA
ATOM     25  O   UNL     1     113.463 126.240 139.304  0.00  0.00    +0.000 OA
ATOM     26  O   UNL     1     113.697 126.143 136.458  0.00  0.00    +0.000 OA
ATOM     27  C   UNL     1     113.580 126.191 137.882  0.00  0.00    +0.000 C 
ATOM     28  C   UNL     1     113.252 126.525 138.560  0.00  0.00    +0.000 C 
ATOM     29  C   UNL     1     113.368 126.477 137.137  0.00  0.00    +0.000 C 
ATOM     30  C   UNL     1     112.711 127.145 138.495  0.00  0.00    +0.000 C 
ATOM     31  C   UNL     1     112.828 127.096 137.071  0.00  0.00    +0.000 C 
BRANCH  30  33
ATOM     32  O   UNL     1     112.505 128.280 139.339  0.00  0.00    +0.000 OA
ATOM     33  C   UNL     1     112.382 127.480 139.173  0.00  0.00    +0.000 C 
ENDBRANCH  30  33
ENDBRANCH  22  31
ENDBRANCH   5  22
BRANCH   6  34
ATOM     34  O   UNL     1     109.413 129.285 135.532  0.00  0.00    +0.000 OA
BRANCH  34  42
ATOM     35  O   UNL     1     109.302 129.770 136.872  0.00  0.00    +0.000 OA
ATOM     36  O   UNL     1     108.053 131.743 136.054  0.00  0.00    +0.000 OA
ATOM     37  O   UNL     1     108.580 130.601 134.988  0.00  0.00    +0.000 OA
ATOM     38  O   UNL     1     108.359 131.571 137.666  0.00  0.00    +0.000 OA
ATOM     39  C   UNL     1     108.469 131.085 136.327  0.00  0.00    +0.000 C 
ATOM     40  C   UNL     1     108.733 130.514 135.793  0.00  0.00    +0.000 C 
ATOM     41  C   UNL     1     108.622 130.999 137.133  0.00  0.00    +0.000 C 
ATOM     42  C   UNL     1     109.149 129.856 136.066  0.00  0.00    +0.000 C 
ATOM     43  C   UNL     1     109.039 130.341 137.406  0.00  0.00    +0.000 C 
BRANCH  43  46
ATOM     44  O   UNL     1     109.919 130.492 138.520  0.00  0.00    +0.000 OA
ATOM     45  O   UNL     1     108.619 129.929 138.708  0.00  0.00    +0.000 OA
ATOM     46  C   UNL     1     109.192 130.254 138.212  0.00  0.00    +0.000 C 
ENDBRANCH  43  46
ENDBRANCH  34  42
ENDBRANCH   6  34
TORSDOF 7
ENDMDL
MODEL 6
REMARK VINA RESULT:     -10.1      2.543      4.655
REMARK  Name = 14887602
REMARK  7 active torsions:
REMARK  status: ('A' for Active; 'I' for Inactive)
REMARK    1  A    between atoms: O_3  and  C_24
REMARK    2  A    between atoms: O_3  and  C_31
REMARK    3  A    between atoms: O_7  and  C_28
REMARK    4  A    between atoms: O_7  and  C_33
REMARK    5  A    between atoms: C_23  and  C_30
REMARK    6  A    between atoms: C_29  and  C_32
REMARK    7  A    between atoms: C_36  and  C_40
REMARK                            x       y       z     vdW  Elec       q    Type
REMARK                         _______ _______ _______ _____ _____    ______ ____
ROOT
ATOM      1  O   UNL     1     113.015 127.903 138.553  0.00  0.00    +0.000 OA
ATOM      2  O   UNL     1     111.176 126.251 138.426  0.00  0.00    +0.000 OA
ATOM      3  O   UNL     1     113.350 127.341 141.390  0.00  0.00    +0.000 OA
ATOM      4  O   UNL     1     111.313 125.946 139.829  0.00  0.00    +0.000 OA
ATOM      5  C   UNL     1     112.017 127.218 137.794  0.00  0.00    +0.000 A 
ATOM      6  C   UNL     1     113.196 127.635 139.969  0.00  0.00    +0.000 A 
ATOM      7  C   UNL     1     112.787 127.486 139.228  0.00  0.00    +0.000 A 
ATOM      8  C   UNL     1     112.174 126.936 139.185  0.00  0.00    +0.000 A 
ATOM      9  C   UNL     1     112.630 127.769 137.835  0.00  0.00    +0.000 A 
ATOM     10  C   UNL     1     111.789 126.802 138.468  0.00  0.00    +0.000 A 
ATOM     11  C   UNL     1     112.963 127.204 140.675  0.00  0.00    +0.000 A 
ATOM     12  C   UNL     1     111.927 126.495 139.880  0.00  0.00    +0.000 A 
ATOM     13  C   UNL     1     112.325 126.631 140.631  0.00  0.00    +0.000 A 
ENDROOT
BRANCH   9  16
ATOM     14  O   UNL     1     114.456 128.173 135.675  0.00  0.00    +0.000 OA
ATOM     15  O   UNL     1     113.541 129.436 135.137  0.00  0.00    +0.000 OA
ATOM     16  C   UNL     1     112.857 128.185 137.161  0.00  0.00    +0.000 A 
ATOM     17  C   UNL     1     113.543 127.971 136.755  0.00  0.00    +0.000 A 
ATOM     18  C   UNL     1     112.400 128.817 136.893  0.00  0.00    +0.000 A 
ATOM     19  C   UNL     1     113.771 128.387 136.081  0.00  0.00    +0.000 A 
ATOM     20  C   UNL     1     112.628 129.234 136.218  0.00  0.00    +0.000 A 
ATOM     21  C   UNL     1     113.313 129.019 135.812  0.00  0.00    +0.000 A 
ENDBRANCH   9  16
BRANCH   5  22
ATOM     22  O   UNL     1     111.632 127.084 137.076  0.00  0.00    +0.000 OA
BRANCH  22  31
ATOM     23  O   UNL     1     112.262 125.820 136.862  0.00  0.00    +0.000 OA
ATOM     24  O   UNL     1     110.306 125.069 135.543  0.00  0.00    +0.000 OA
ATOM     25  O   UNL     1     111.588 124.056 135.768  0.00  0.00    +0.000 OA
ATOM     26  O   UNL     1     110.328 126.584 136.197  0.00  0.00    +0.000 OA
ATOM     27  C   UNL     1     110.958 125.319 135.982  0.00  0.00    +0.000 C 
ATOM     28  C   UNL     1     111.599 124.812 136.095  0.00  0.00    +0.000 C 
ATOM     29  C   UNL     1     110.968 126.077 136.309  0.00  0.00    +0.000 C 
ATOM     30  C   UNL     1     112.250 125.063 136.534  0.00  0.00    +0.000 C 
ATOM     31  C   UNL     1     111.620 126.327 136.749  0.00  0.00    +0.000 C 
BRANCH  30  33
ATOM     32  O   UNL     1     113.626 124.741 136.318  0.00  0.00    +0.000 OA
ATOM     33  C   UNL     1     112.891 124.556 136.647  0.00  0.00    +0.000 C 
ENDBRANCH  30  33
ENDBRANCH  22  31
ENDBRANCH   5  22
BRANCH   6  34
ATOM     34  O   UNL     1     113.808 128.188 140.002  0.00  0.00    +0.000 OA
BRANCH  34  42
ATOM     35  O   UNL     1     112.899 129.228 140.369  0.00  0.00    +0.000 OA
ATOM     36  O   UNL     1     114.796 130.606 141.159  0.00  0.00    +0.000 OA
ATOM     37  O   UNL     1     115.072 129.108 140.529  0.00  0.00    +0.000 OA
ATOM     38  O   UNL     1     113.255 131.187 141.262  0.00  0.00    +0.000 OA
ATOM     39  C   UNL     1     114.163 130.147 140.895  0.00  0.00    +0.000 C 
ATOM     40  C   UNL     1     114.302 129.397 140.580  0.00  0.00    +0.000 C 
ATOM     41  C   UNL     1     113.392 130.437 140.947  0.00  0.00    +0.000 C 
ATOM     42  C   UNL     1     113.669 128.938 140.317  0.00  0.00    +0.000 C 
ATOM     43  C   UNL     1     112.760 129.978 140.684  0.00  0.00    +0.000 C 
BRANCH  43  46
ATOM     44  O   UNL     1     111.658 130.670 140.096  0.00  0.00    +0.000 OA
ATOM     45  O   UNL     1     111.551 130.155 141.424  0.00  0.00    +0.000 OA
ATOM     46  C   UNL     1     111.989 130.267 140.735  0.00  0.00    +0.000 C 
ENDBRANCH  43  46
ENDBRANCH  34  42
ENDBRANCH   6  34
TORSDOF 7
ENDMDL
MODEL 7
REMARK VINA RESULT:     -10.0      1.513      5.238
REMARK  Name = 14887602
REMARK  7 active torsions:
REMARK  status: ('A' for Active; 'I' for Inactive)
REMARK    1  A    between atoms: O_3  and  C_24
REMARK    2  A    between atoms: O_3  and  C_31
REMARK    3  A    between atoms: O_7  and  C_28
REMARK    4  A    between atoms: O_7  and  C_33
REMARK    5  A    between atoms: C_23  and  C_30
REMARK    6  A    between atoms: C_29  and  C_32
REMARK    7  A    between atoms: C_36  and  C_40
REMARK                            x       y       z     vdW  Elec       q    Type
REMARK                         _______ _______ _______ _____ _____    ______ ____
ROOT
ATOM      1  O   UNL     1     111.206 128.112 138.048  0.00  0.00    +0.000 OA
ATOM      2  O   UNL     1     112.188 126.059 139.023  0.00  0.00    +0.000 OA
ATOM      3  O   UNL     1     109.099 128.082 140.059  0.00  0.00    +0.000 OA
ATOM      4  O   UNL     1     111.160 126.012 140.034  0.00  0.00    +0.000 OA
ATOM      5  C   UNL     1     112.211 127.097 138.040  0.00  0.00    +0.000 A 
ATOM      6  C   UNL     1     110.148 128.113 139.043  0.00  0.00    +0.000 A 
ATOM      7  C   UNL     1     110.854 127.758 138.706  0.00  0.00    +0.000 A 
ATOM      8  C   UNL     1     111.182 127.074 139.030  0.00  0.00    +0.000 A 
ATOM      9  C   UNL     1     111.884 127.781 137.715  0.00  0.00    +0.000 A 
ATOM     10  C   UNL     1     111.861 126.744 138.698  0.00  0.00    +0.000 A 
ATOM     11  C   UNL     1     109.778 127.749 139.728  0.00  0.00    +0.000 A 
ATOM     12  C   UNL     1     110.826 126.697 139.715  0.00  0.00    +0.000 A 
ATOM     13  C   UNL     1     110.118 127.037 140.067  0.00  0.00    +0.000 A 
ENDROOT
BRANCH   9  16
ATOM     14  O   UNL     1     111.878 128.356 134.916  0.00  0.00    +0.000 OA
ATOM     15  O   UNL     1     113.288 129.196 135.085  0.00  0.00    +0.000 OA
ATOM     16  C   UNL     1     112.235 128.135 137.058  0.00  0.00    +0.000 A 
ATOM     17  C   UNL     1     111.881 128.069 136.316  0.00  0.00    +0.000 A 
ATOM     18  C   UNL     1     112.940 128.555 137.143  0.00  0.00    +0.000 A 
ATOM     19  C   UNL     1     112.232 128.422 135.658  0.00  0.00    +0.000 A 
ATOM     20  C   UNL     1     113.291 128.909 136.485  0.00  0.00    +0.000 A 
ATOM     21  C   UNL     1     112.937 128.842 135.743  0.00  0.00    +0.000 A 
ENDBRANCH   9  16
BRANCH   5  22
ATOM     22  O   UNL     1     112.890 126.766 137.708  0.00  0.00    +0.000 OA
BRANCH  22  31
ATOM     23  O   UNL     1     112.197 125.680 137.091  0.00  0.00    +0.000 OA
ATOM     24  O   UNL     1     114.212 124.262 137.323  0.00  0.00    +0.000 OA
ATOM     25  O   UNL     1     112.848 123.649 136.629  0.00  0.00    +0.000 OA
ATOM     26  O   UNL     1     114.233 125.822 137.863  0.00  0.00    +0.000 OA
ATOM     27  C   UNL     1     113.541 124.735 137.246  0.00  0.00    +0.000 C 
ATOM     28  C   UNL     1     112.859 124.428 136.899  0.00  0.00    +0.000 C 
ATOM     29  C   UNL     1     113.552 125.514 137.516  0.00  0.00    +0.000 C 
ATOM     30  C   UNL     1     112.187 124.900 136.821  0.00  0.00    +0.000 C 
ATOM     31  C   UNL     1     112.880 125.987 137.438  0.00  0.00    +0.000 C 
BRANCH  30  33
ATOM     32  O   UNL     1     111.190 124.950 135.798  0.00  0.00    +0.000 OA
ATOM     33  C   UNL     1     111.504 124.594 136.474  0.00  0.00    +0.000 C 
ENDBRANCH  30  33
ENDBRANCH  22  31
ENDBRANCH   5  22
BRANCH   6  34
ATOM     34  O   UNL     1     109.827 128.797 138.712  0.00  0.00    +0.000 OA
BRANCH  34  42
ATOM     35  O   UNL     1     110.591 129.636 139.581  0.00  0.00    +0.000 OA
ATOM     36  O   UNL     1     109.013 131.497 139.169  0.00  0.00    +0.000 OA
ATOM     37  O   UNL     1     108.775 130.038 138.438  0.00  0.00    +0.000 OA
ATOM     38  O   UNL     1     110.302 131.716 140.176  0.00  0.00    +0.000 OA
ATOM     39  C   UNL     1     109.539 130.877 139.307  0.00  0.00    +0.000 C 
ATOM     40  C   UNL     1     109.420 130.147 138.941  0.00  0.00    +0.000 C 
ATOM     41  C   UNL     1     110.184 130.986 139.810  0.00  0.00    +0.000 C 
ATOM     42  C   UNL     1     109.946 129.526 139.078  0.00  0.00    +0.000 C 
ATOM     43  C   UNL     1     110.710 130.366 139.947  0.00  0.00    +0.000 C 
BRANCH  43  46
ATOM     44  O   UNL     1     112.089 130.682 140.138  0.00  0.00    +0.000 OA
ATOM     45  O   UNL     1     111.265 130.376 141.264  0.00  0.00    +0.000 OA
ATOM     46  C   UNL     1     111.354 130.475 140.450  0.00  0.00    +0.000 C 
ENDBRANCH  43  46
ENDBRANCH  34  42
ENDBRANCH   6  34
TORSDOF 7
ENDMDL
MODEL 8
REMARK VINA RESULT:     -10.0      1.674      5.277
REMARK  Name = 14887602
REMARK  7 active torsions:
REMARK  status: ('A' for Active; 'I' for Inactive)
REMARK    1  A    between atoms: O_3  and  C_24
REMARK    2  A    between atoms: O_3  and  C_31
REMARK    3  A    between atoms: O_7  and  C_28
REMARK    4  A    between atoms: O_7  and  C_33
REMARK    5  A    between atoms: C_23  and  C_30
REMARK    6  A    between atoms: C_29  and  C_32
REMARK    7  A    between atoms: C_36  and  C_40
REMARK                            x       y       z     vdW  Elec       q    Type
REMARK                         _______ _______ _______ _____ _____    ______ ____
ROOT
ATOM      1  O   UNL     1     110.631 130.061 135.786  0.00  0.00    +0.000 OA
ATOM      2  O   UNL     1     109.390 127.926 135.620  0.00  0.00    +0.000 OA
ATOM      3  O   UNL     1     108.124 131.521 136.042  0.00  0.00    +0.000 OA
ATOM      4  O   UNL     1     108.129 128.615 135.744  0.00  0.00    +0.000 OA
ATOM      5  C   UNL     1     110.628 128.640 135.641  0.00  0.00    +0.000 A 
ATOM      6  C   UNL     1     109.391 130.805 135.915  0.00  0.00    +0.000 A 
ATOM      7  C   UNL     1     109.806 130.059 135.821  0.00  0.00    +0.000 A 
ATOM      8  C   UNL     1     109.393 129.347 135.765  0.00  0.00    +0.000 A 
ATOM      9  C   UNL     1     111.042 129.351 135.696  0.00  0.00    +0.000 A 
ATOM     10  C   UNL     1     109.804 128.637 135.675  0.00  0.00    +0.000 A 
ATOM     11  C   UNL     1     108.532 130.809 135.952  0.00  0.00    +0.000 A 
ATOM     12  C   UNL     1     108.535 129.332 135.800  0.00  0.00    +0.000 A 
ATOM     13  C   UNL     1     108.101 130.069 135.894  0.00  0.00    +0.000 A 
ENDROOT
BRANCH   9  16
ATOM     14  O   UNL     1     113.574 129.592 136.999  0.00  0.00    +0.000 OA
ATOM     15  O   UNL     1     114.339 129.359 135.556  0.00  0.00    +0.000 OA
ATOM     16  C   UNL     1     111.865 129.353 135.661  0.00  0.00    +0.000 A 
ATOM     17  C   UNL     1     112.308 129.472 136.347  0.00  0.00    +0.000 A 
ATOM     18  C   UNL     1     112.248 129.237 134.939  0.00  0.00    +0.000 A 
ATOM     19  C   UNL     1     113.131 129.474 136.313  0.00  0.00    +0.000 A 
ATOM     20  C   UNL     1     113.073 129.239 134.904  0.00  0.00    +0.000 A 
ATOM     21  C   UNL     1     113.514 129.357 135.591  0.00  0.00    +0.000 A 
ENDBRANCH   9  16
BRANCH   5  22
ATOM     22  O   UNL     1     111.038 127.930 135.551  0.00  0.00    +0.000 OA
BRANCH  22  31
ATOM     23  O   UNL     1     110.825 127.499 136.896  0.00  0.00    +0.000 OA
ATOM     24  O   UNL     1     110.849 125.141 136.145  0.00  0.00    +0.000 OA
ATOM     25  O   UNL     1     110.628 125.497 137.741  0.00  0.00    +0.000 OA
ATOM     26  O   UNL     1     111.054 126.358 135.050  0.00  0.00    +0.000 OA
ATOM     27  C   UNL     1     110.841 125.927 136.396  0.00  0.00    +0.000 C 
ATOM     28  C   UNL     1     110.731 126.104 137.193  0.00  0.00    +0.000 C 
ATOM     29  C   UNL     1     110.943 126.535 135.847  0.00  0.00    +0.000 C 
ATOM     30  C   UNL     1     110.723 126.890 137.444  0.00  0.00    +0.000 C 
ATOM     31  C   UNL     1     110.936 127.321 136.098  0.00  0.00    +0.000 C 
BRANCH  30  33
ATOM     32  O   UNL     1     111.196 127.481 138.656  0.00  0.00    +0.000 OA
ATOM     33  C   UNL     1     110.613 127.069 138.241  0.00  0.00    +0.000 C 
ENDBRANCH  30  33
ENDBRANCH  22  31
ENDBRANCH   5  22
BRANCH   6  34
ATOM     34  O   UNL     1     109.812 131.512 135.969  0.00  0.00    +0.000 OA
BRANCH  34  42
ATOM     35  O   UNL     1     109.778 131.444 137.396  0.00  0.00    +0.000 OA
ATOM     36  O   UNL     1     110.571 133.784 137.526  0.00  0.00    +0.000 OA
ATOM     37  O   UNL     1     110.341 133.072 136.057  0.00  0.00    +0.000 OA
ATOM     38  O   UNL     1     110.272 132.937 138.910  0.00  0.00    +0.000 OA
ATOM     39  C   UNL     1     110.306 133.004 137.483  0.00  0.00    +0.000 C 
ATOM     40  C   UNL     1     110.192 132.649 136.748  0.00  0.00    +0.000 C 
ATOM     41  C   UNL     1     110.157 132.580 138.175  0.00  0.00    +0.000 C 
ATOM     42  C   UNL     1     109.927 131.868 136.705  0.00  0.00    +0.000 C 
ATOM     43  C   UNL     1     109.892 131.800 138.132  0.00  0.00    +0.000 C 
BRANCH  43  46
ATOM     44  O   UNL     1     110.307 130.849 139.113  0.00  0.00    +0.000 OA
ATOM     45  O   UNL     1     109.029 131.477 139.224  0.00  0.00    +0.000 OA
ATOM     46  C   UNL     1     109.742 131.376 138.823  0.00  0.00    +0.000 C 
ENDBRANCH  43  46
ENDBRANCH  34  42
ENDBRANCH   6  34
TORSDOF 7
ENDMDL
MODEL 9
REMARK VINA RESULT:      -9.9      2.416      4.529
REMARK  Name = 14887602
REMARK  7 active torsions:
REMARK  status: ('A' for Active; 'I' for Inactive)
REMARK    1  A    between atoms: O_3  and  C_24
REMARK    2  A    between atoms: O_3  and  C_31
REMARK    3  A    between atoms: O_7  and  C_28
REMARK    4  A    between atoms: O_7  and  C_33
REMARK    5  A    between atoms: C_23  and  C_30
REMARK    6  A    between atoms: C_29  and  C_32
REMARK    7  A    between atoms: C_36  and  C_40
REMARK                            x       y       z     vdW  Elec       q    Type
REMARK                         _______ _______ _______ _____ _____    ______ ____
ROOT
ATOM      1  O   UNL     1     111.467 127.430 138.475  0.00  0.00    +0.000 OA
ATOM      2  O   UNL     1     112.386 129.726 138.574  0.00  0.00    +0.000 OA
ATOM      3  O   UNL     1     112.169 127.251 135.654  0.00  0.00    +0.000 OA
ATOM      4  O   UNL     1     112.748 129.673 137.179  0.00  0.00    +0.000 OA
ATOM      5  C   UNL     1     111.753 128.618 139.216  0.00  0.00    +0.000 A 
ATOM      6  C   UNL     1     111.810 127.323 137.067  0.00  0.00    +0.000 A 
ATOM      7  C   UNL     1     111.795 127.773 137.799  0.00  0.00    +0.000 A 
ATOM      8  C   UNL     1     112.101 128.538 137.833  0.00  0.00    +0.000 A 
ATOM      9  C   UNL     1     111.447 127.852 139.183  0.00  0.00    +0.000 A 
ATOM     10  C   UNL     1     112.080 128.961 138.541  0.00  0.00    +0.000 A 
ATOM     11  C   UNL     1     112.149 127.675 136.361  0.00  0.00    +0.000 A 
ATOM     12  C   UNL     1     112.444 128.907 137.136  0.00  0.00    +0.000 A 
ATOM     13  C   UNL     1     112.468 128.472 136.395  0.00  0.00    +0.000 A 
ENDROOT
BRANCH   9  16
ATOM     14  O   UNL     1     111.635 126.018 141.367  0.00  0.00    +0.000 OA
ATOM     15  O   UNL     1     110.138 126.479 141.884  0.00  0.00    +0.000 OA
ATOM     16  C   UNL     1     111.120 127.509 139.858  0.00  0.00    +0.000 A 
ATOM     17  C   UNL     1     111.541 126.935 140.275  0.00  0.00    +0.000 A 
ATOM     18  C   UNL     1     110.371 127.740 140.116  0.00  0.00    +0.000 A 
ATOM     19  C   UNL     1     111.214 126.592 140.950  0.00  0.00    +0.000 A 
ATOM     20  C   UNL     1     110.043 127.396 140.792  0.00  0.00    +0.000 A 
ATOM     21  C   UNL     1     110.465 126.823 141.208  0.00  0.00    +0.000 A 
ENDBRANCH   9  16
BRANCH   5  22
ATOM     22  O   UNL     1     111.732 129.040 139.924  0.00  0.00    +0.000 OA
BRANCH  22  31
ATOM     23  O   UNL     1     113.122 128.880 140.216  0.00  0.00    +0.000 OA
ATOM     24  O   UNL     1     113.148 131.101 141.309  0.00  0.00    +0.000 OA
ATOM     25  O   UNL     1     114.528 130.201 141.236  0.00  0.00    +0.000 OA
ATOM     26  O   UNL     1     111.749 130.520 140.653  0.00  0.00    +0.000 OA
ATOM     27  C   UNL     1     113.139 130.361 140.944  0.00  0.00    +0.000 C 
ATOM     28  C   UNL     1     113.830 129.911 140.908  0.00  0.00    +0.000 C 
ATOM     29  C   UNL     1     112.440 130.071 140.617  0.00  0.00    +0.000 C 
ATOM     30  C   UNL     1     113.821 129.171 140.544  0.00  0.00    +0.000 C 
ATOM     31  C   UNL     1     112.431 129.331 140.252  0.00  0.00    +0.000 C 
BRANCH  30  33
ATOM     32  O   UNL     1     114.537 127.977 140.863  0.00  0.00    +0.000 OA
ATOM     33  C   UNL     1     114.511 128.721 140.507  0.00  0.00    +0.000 C 
ENDBRANCH  30  33
ENDBRANCH  22  31
ENDBRANCH   5  22
BRANCH   6  34
ATOM     34  O   UNL     1     111.501 126.558 137.043  0.00  0.00    +0.000 OA
BRANCH  34  42
ATOM     35  O   UNL     1     112.803 126.011 137.262  0.00  0.00    +0.000 OA
ATOM     36  O   UNL     1     111.942 123.752 136.735  0.00  0.00    +0.000 OA
ATOM     37  O   UNL     1     110.928 125.052 136.692  0.00  0.00    +0.000 OA
ATOM     38  O   UNL     1     113.531 123.957 137.129  0.00  0.00    +0.000 OA
ATOM     39  C   UNL     1     112.229 124.505 136.910  0.00  0.00    +0.000 C 
ATOM     40  C   UNL     1     111.721 125.155 136.889  0.00  0.00    +0.000 C 
ATOM     41  C   UNL     1     113.024 124.608 137.108  0.00  0.00    +0.000 C 
ATOM     42  C   UNL     1     112.009 125.908 137.065  0.00  0.00    +0.000 C 
ATOM     43  C   UNL     1     113.311 125.361 137.284  0.00  0.00    +0.000 C 
BRANCH  43  46
ATOM     44  O   UNL     1     114.326 125.536 138.272  0.00  0.00    +0.000 OA
ATOM     45  O   UNL     1     114.677 125.496 136.888  0.00  0.00    +0.000 OA
ATOM     46  C   UNL     1     114.105 125.464 137.481  0.00  0.00    +0.000 C 
ENDBRANCH  43  46
ENDBRANCH  34  42
ENDBRANCH   6  34
TORSDOF 7
ENDMDL
MODEL 10
REMARK VINA RESULT:      -9.9      2.677      5.670
REMARK  Name = 14887602
REMARK  7 active torsions:
REMARK  status: ('A' for Active; 'I' for Inactive)
REMARK    1  A    between atoms: O_3  and  C_24
REMARK    2  A    between atoms: O_3  and  C_31
REMARK    3  A    between atoms: O_7  and  C_28
REMARK    4  A    between atoms: O_7  and  C_33
REMARK    5  A    between atoms: C_23  and  C_30
REMARK    6  A    between atoms: C_29  and  C_32
REMARK    7  A    between atoms: C_36  and  C_40
REMARK                            x       y       z     vdW  Elec       q    Type
REMARK                         _______ _______ _______ _____ _____    ______ ____
ROOT
ATOM      1  O   UNL     1     111.328 130.800 137.336  0.00  0.00    +0.000 OA
ATOM      2  O   UNL     1     111.239 129.372 139.356  0.00  0.00    +0.000 OA
ATOM      3  O   UNL     1     109.066 132.354 138.313  0.00  0.00    +0.000 OA
ATOM      4  O   UNL     1     110.118 130.118 139.871  0.00  0.00    +0.000 OA
ATOM      5  C   UNL     1     111.838 129.708 138.103  0.00  0.00    +0.000 A 
ATOM      6  C   UNL     1     110.201 131.586 137.808  0.00  0.00    +0.000 A 
ATOM      7  C   UNL     1     110.757 130.941 137.917  0.00  0.00    +0.000 A 
ATOM      8  C   UNL     1     110.729 130.464 138.590  0.00  0.00    +0.000 A 
ATOM      9  C   UNL     1     111.868 130.184 137.429  0.00  0.00    +0.000 A 
ATOM     10  C   UNL     1     111.269 129.848 138.683  0.00  0.00    +0.000 A 
ATOM     11  C   UNL     1     109.605 131.737 138.409  0.00  0.00    +0.000 A 
ATOM     12  C   UNL     1     110.140 130.600 139.201  0.00  0.00    +0.000 A 
ATOM     13  C   UNL     1     109.574 131.241 139.109  0.00  0.00    +0.000 A 
ENDROOT
BRANCH   9  16
ATOM     14  O   UNL     1     114.318 130.898 136.142  0.00  0.00    +0.000 OA
ATOM     15  O   UNL     1     114.146 129.624 135.109  0.00  0.00    +0.000 OA
ATOM     16  C   UNL     1     112.437 130.044 136.850  0.00  0.00    +0.000 A 
ATOM     17  C   UNL     1     113.093 130.541 136.786  0.00  0.00    +0.000 A 
ATOM     18  C   UNL     1     112.352 129.407 136.333  0.00  0.00    +0.000 A 
ATOM     19  C   UNL     1     113.662 130.401 136.206  0.00  0.00    +0.000 A 
ATOM     20  C   UNL     1     112.922 129.266 135.752  0.00  0.00    +0.000 A 
ATOM     21  C   UNL     1     113.576 129.764 135.689  0.00  0.00    +0.000 A 
ENDBRANCH   9  16
BRANCH   5  22
ATOM     22  O   UNL     1     112.379 129.092 138.196  0.00  0.00    +0.000 OA
BRANCH  22  31
ATOM     23  O   UNL     1     113.164 129.766 139.181  0.00  0.00    +0.000 OA
ATOM     24  O   UNL     1     113.728 127.592 140.220  0.00  0.00    +0.000 OA
ATOM     25  O   UNL     1     114.325 128.990 140.858  0.00  0.00    +0.000 OA
ATOM     26  O   UNL     1     112.755 127.642 138.888  0.00  0.00    +0.000 OA
ATOM     27  C   UNL     1     113.540 128.316 139.873  0.00  0.00    +0.000 C 
ATOM     28  C   UNL     1     113.838 129.015 140.193  0.00  0.00    +0.000 C 
ATOM     29  C   UNL     1     113.053 128.341 139.208  0.00  0.00    +0.000 C 
ATOM     30  C   UNL     1     113.650 129.740 139.847  0.00  0.00    +0.000 C 
ATOM     31  C   UNL     1     112.865 129.066 138.861  0.00  0.00    +0.000 C 
BRANCH  30  33
ATOM     32  O   UNL     1     114.403 130.946 139.697  0.00  0.00    +0.000 OA
ATOM     33  C   UNL     1     113.948 130.440 140.166  0.00  0.00    +0.000 C 
ENDBRANCH  30  33
ENDBRANCH  22  31
ENDBRANCH   5  22
BRANCH   6  34
ATOM     34  O   UNL     1     110.238 132.057 137.132  0.00  0.00    +0.000 OA
BRANCH  34  42
ATOM     35  O   UNL     1     109.288 131.217 136.471  0.00  0.00    +0.000 OA
ATOM     36  O   UNL     1     109.018 132.919 134.696  0.00  0.00    +0.000 OA
ATOM     37  O   UNL     1     110.057 133.192 135.948  0.00  0.00    +0.000 OA
ATOM     38  O   UNL     1     108.159 131.512 134.627  0.00  0.00    +0.000 OA
ATOM     39  C   UNL     1     109.108 132.352 135.288  0.00  0.00    +0.000 C 
ATOM     40  C   UNL     1     109.628 132.489 135.914  0.00  0.00    +0.000 C 
ATOM     41  C   UNL     1     108.679 131.648 135.253  0.00  0.00    +0.000 C 
ATOM     42  C   UNL     1     109.718 131.920 136.506  0.00  0.00    +0.000 C 
ATOM     43  C   UNL     1     108.769 131.081 135.845  0.00  0.00    +0.000 C 
BRANCH  43  46
ATOM     44  O   UNL     1     108.687 129.698 135.495  0.00  0.00    +0.000 OA
ATOM     45  O   UNL     1     107.565 130.351 136.094  0.00  0.00    +0.000 OA
ATOM     46  C   UNL     1     108.340 130.377 135.811  0.00  0.00    +0.000 C 
ENDBRANCH  43  46
ENDBRANCH  34  42
ENDBRANCH   6  34
TORSDOF 7
ENDMDL
