MODEL 1
REMARK VINA RESULT:     -11.3      0.000      0.000
REMARK  Name = 44259114
REMARK  9 active torsions:
REMARK  status: ('A' for Active; 'I' for Inactive)
REMARK    1  A    between atoms: O_1  and  C_22
REMARK    2  A    between atoms: O_1  and  C_25
REMARK    3  A    between atoms: O_4  and  C_26
REMARK    4  A    between atoms: O_4  and  C_39
REMARK    5  A    between atoms: O_12  and  C_38
REMARK    6  A    between atoms: O_12  and  C_43
REMARK    7  A    between atoms: C_28  and  C_32
REMARK    8  A    between atoms: C_37  and  C_40
REMARK    9  A    between atoms: C_48  and  C_49
REMARK                            x       y       z     vdW  Elec       q    Type
REMARK                         _______ _______ _______ _____ _____    ______ ____
ROOT
ATOM      1  O   UNL     1     112.340 128.222 138.352  0.00  0.00    +0.000 OA
ATOM      2  O   UNL     1     112.823 127.792 135.536  0.00  0.00    +0.000 OA
ATOM      3  O   UNL     1     113.410 126.929 136.532  0.00  0.00    +0.000 OA
ATOM      4  C   UNL     1     111.598 129.353 136.574  0.00  0.00    +0.000 A 
ATOM      5  C   UNL     1     111.725 129.120 137.391  0.00  0.00    +0.000 A 
ATOM      6  C   UNL     1     111.969 128.905 135.942  0.00  0.00    +0.000 A 
ATOM      7  C   UNL     1     113.172 127.141 137.925  0.00  0.00    +0.000 A 
ATOM      8  C   UNL     1     112.222 128.441 137.565  0.00  0.00    +0.000 A 
ATOM      9  C   UNL     1     112.579 128.010 136.959  0.00  0.00    +0.000 A 
ATOM     10  C   UNL     1     112.462 128.229 136.136  0.00  0.00    +0.000 A 
ATOM     11  C   UNL     1     113.053 127.360 137.139  0.00  0.00    +0.000 A 
ATOM     12  C   UNL     1     112.815 127.571 138.532  0.00  0.00    +0.000 A 
ENDROOT
BRANCH  12  15
ATOM     13  O   UNL     1     111.854 126.360 140.935  0.00  0.00    +0.000 OA
ATOM     14  O   UNL     1     113.289 126.693 141.677  0.00  0.00    +0.000 OA
ATOM     15  C   UNL     1     112.934 127.352 139.318  0.00  0.00    +0.000 A 
ATOM     16  C   UNL     1     112.335 126.966 139.733  0.00  0.00    +0.000 A 
ATOM     17  C   UNL     1     113.652 127.518 139.689  0.00  0.00    +0.000 A 
ATOM     18  C   UNL     1     112.453 126.746 140.519  0.00  0.00    +0.000 A 
ATOM     19  C   UNL     1     113.770 127.299 140.475  0.00  0.00    +0.000 A 
ATOM     20  C   UNL     1     113.171 126.913 140.890  0.00  0.00    +0.000 A 
ENDBRANCH  12  15
BRANCH   4  21
ATOM     21  O   UNL     1     111.122 130.005 136.397  0.00  0.00    +0.000 OA
BRANCH  21  28
ATOM     22  O   UNL     1     109.992 129.141 136.256  0.00  0.00    +0.000 OA
ATOM     23  O   UNL     1     108.579 131.085 135.669  0.00  0.00    +0.000 OA
ATOM     24  O   UNL     1     107.921 129.575 135.723  0.00  0.00    +0.000 OA
ATOM     25  C   UNL     1     109.851 130.545 136.033  0.00  0.00    +0.000 C 
ATOM     26  C   UNL     1     109.050 130.438 135.864  0.00  0.00    +0.000 C 
ATOM     27  C   UNL     1     108.721 129.682 135.891  0.00  0.00    +0.000 C 
ATOM     28  C   UNL     1     110.322 129.897 136.228  0.00  0.00    +0.000 C 
ATOM     29  C   UNL     1     109.193 129.033 136.087  0.00  0.00    +0.000 C 
BRANCH  29  31
ATOM     30  O   UNL     1     108.798 127.881 136.835  0.00  0.00    +0.000 OA
ATOM     31  C   UNL     1     108.863 128.278 136.114  0.00  0.00    +0.000 C 
ENDBRANCH  29  31
BRANCH  25  32
ATOM     32  O   UNL     1     110.180 131.301 136.005  0.00  0.00    +0.000 OA
BRANCH  32  37
ATOM     33  O   UNL     1     109.861 131.497 137.385  0.00  0.00    +0.000 OA
ATOM     34  O   UNL     1     110.632 132.883 135.886  0.00  0.00    +0.000 OA
ATOM     35  O   UNL     1     110.539 133.871 137.204  0.00  0.00    +0.000 OA
ATOM     36  O   UNL     1     109.995 133.275 138.643  0.00  0.00    +0.000 OA
ATOM     37  C   UNL     1     110.133 131.795 136.665  0.00  0.00    +0.000 C 
ATOM     38  C   UNL     1     110.360 132.586 136.605  0.00  0.00    +0.000 C 
ATOM     39  C   UNL     1     110.313 133.080 137.265  0.00  0.00    +0.000 C 
ATOM     40  C   UNL     1     110.041 132.782 137.984  0.00  0.00    +0.000 C 
ATOM     41  C   UNL     1     109.815 131.991 138.044  0.00  0.00    +0.000 C 
ATOM     42  C   UNL     1     109.542 131.693 138.764  0.00  0.00    +0.000 C 
ENDBRANCH  32  37
ENDBRANCH  25  32
ENDBRANCH  21  28
ENDBRANCH   4  21
BRANCH   7  43
ATOM     43  O   UNL     1     113.647 126.491 138.104  0.00  0.00    +0.000 OA
BRANCH  43  52
ATOM     44  O   UNL     1     112.675 125.520 137.715  0.00  0.00    +0.000 OA
ATOM     45  O   UNL     1     114.487 123.974 137.043  0.00  0.00    +0.000 OA
ATOM     46  O   UNL     1     112.909 123.518 136.877  0.00  0.00    +0.000 OA
ATOM     47  O   UNL     1     114.855 125.461 137.657  0.00  0.00    +0.000 OA
ATOM     48  C   UNL     1     113.883 124.489 137.267  0.00  0.00    +0.000 C 
ATOM     49  C   UNL     1     113.094 124.261 137.184  0.00  0.00    +0.000 C 
ATOM     50  C   UNL     1     114.067 125.232 137.574  0.00  0.00    +0.000 C 
ATOM     51  C   UNL     1     112.490 124.776 137.408  0.00  0.00    +0.000 C 
ATOM     52  C   UNL     1     113.463 125.747 137.798  0.00  0.00    +0.000 C 
BRANCH  51  54
ATOM     53  O   UNL     1     111.223 124.468 137.993  0.00  0.00    +0.000 OA
ATOM     54  C   UNL     1     111.701 124.549 137.325  0.00  0.00    +0.000 C 
ENDBRANCH  51  54
ENDBRANCH  43  52
ENDBRANCH   7  43
TORSDOF 9
ENDMDL
MODEL 2
REMARK VINA RESULT:     -10.8      4.600      7.325
REMARK  Name = 44259114
REMARK  9 active torsions:
REMARK  status: ('A' for Active; 'I' for Inactive)
REMARK    1  A    between atoms: O_1  and  C_22
REMARK    2  A    between atoms: O_1  and  C_25
REMARK    3  A    between atoms: O_4  and  C_26
REMARK    4  A    between atoms: O_4  and  C_39
REMARK    5  A    between atoms: O_12  and  C_38
REMARK    6  A    between atoms: O_12  and  C_43
REMARK    7  A    between atoms: C_28  and  C_32
REMARK    8  A    between atoms: C_37  and  C_40
REMARK    9  A    between atoms: C_48  and  C_49
REMARK                            x       y       z     vdW  Elec       q    Type
REMARK                         _______ _______ _______ _____ _____    ______ ____
ROOT
ATOM      1  O   UNL     1     107.717 125.231 140.194  0.00  0.00    +0.000 OA
ATOM      2  O   UNL     1     109.094 126.862 142.140  0.00  0.00    +0.000 OA
ATOM      3  O   UNL     1     107.806 126.283 142.433  0.00  0.00    +0.000 OA
ATOM      4  C   UNL     1     109.694 126.264 140.067  0.00  0.00    +0.000 A 
ATOM      5  C   UNL     1     109.012 125.790 139.848  0.00  0.00    +0.000 A 
ATOM      6  C   UNL     1     109.725 126.629 140.844  0.00  0.00    +0.000 A 
ATOM      7  C   UNL     1     107.124 125.476 141.471  0.00  0.00    +0.000 A 
ATOM      8  C   UNL     1     108.369 125.688 140.409  0.00  0.00    +0.000 A 
ATOM      9  C   UNL     1     108.399 126.038 141.156  0.00  0.00    +0.000 A 
ATOM     10  C   UNL     1     109.073 126.516 141.392  0.00  0.00    +0.000 A 
ATOM     11  C   UNL     1     107.776 125.933 141.687  0.00  0.00    +0.000 A 
ATOM     12  C   UNL     1     107.094 125.126 140.725  0.00  0.00    +0.000 A 
ENDROOT
BRANCH  12  15
ATOM     13  O   UNL     1     104.691 124.803 139.211  0.00  0.00    +0.000 OA
ATOM     14  O   UNL     1     104.483 123.301 139.863  0.00  0.00    +0.000 OA
ATOM     15  C   UNL     1     106.441 124.669 140.509  0.00  0.00    +0.000 A 
ATOM     16  C   UNL     1     105.893 124.964 139.968  0.00  0.00    +0.000 A 
ATOM     17  C   UNL     1     106.337 123.919 140.835  0.00  0.00    +0.000 A 
ATOM     18  C   UNL     1     105.240 124.508 139.752  0.00  0.00    +0.000 A 
ATOM     19  C   UNL     1     105.684 123.463 140.620  0.00  0.00    +0.000 A 
ATOM     20  C   UNL     1     105.136 123.758 140.078  0.00  0.00    +0.000 A 
ENDBRANCH  12  15
BRANCH   4  21
ATOM     21  O   UNL     1     110.316 126.368 139.534  0.00  0.00    +0.000 OA
BRANCH  21  28
ATOM     22  O   UNL     1     110.016 127.715 139.160  0.00  0.00    +0.000 OA
ATOM     23  O   UNL     1     110.643 127.205 136.822  0.00  0.00    +0.000 OA
ATOM     24  O   UNL     1     110.135 128.720 137.227  0.00  0.00    +0.000 OA
ATOM     25  C   UNL     1     110.480 126.786 138.178  0.00  0.00    +0.000 C 
ATOM     26  C   UNL     1     110.434 127.375 137.600  0.00  0.00    +0.000 C 
ATOM     27  C   UNL     1     110.180 128.132 137.804  0.00  0.00    +0.000 C 
ATOM     28  C   UNL     1     110.271 126.956 138.958  0.00  0.00    +0.000 C 
ATOM     29  C   UNL     1     109.971 128.303 138.584  0.00  0.00    +0.000 C 
BRANCH  29  31
ATOM     30  O   UNL     1     108.939 129.183 139.032  0.00  0.00    +0.000 OA
ATOM     31  C   UNL     1     109.717 129.060 138.786  0.00  0.00    +0.000 C 
ENDBRANCH  29  31
BRANCH  25  32
ATOM     32  O   UNL     1     110.734 126.028 137.974  0.00  0.00    +0.000 OA
BRANCH  32  37
ATOM     33  O   UNL     1     112.085 126.356 138.308  0.00  0.00    +0.000 OA
ATOM     34  O   UNL     1     111.262 124.708 137.139  0.00  0.00    +0.000 OA
ATOM     35  O   UNL     1     112.876 124.374 137.055  0.00  0.00    +0.000 OA
ATOM     36  O   UNL     1     113.962 125.363 137.807  0.00  0.00    +0.000 OA
ATOM     37  C   UNL     1     111.542 125.862 137.932  0.00  0.00    +0.000 C 
ATOM     38  C   UNL     1     111.805 125.201 137.515  0.00  0.00    +0.000 C 
ATOM     39  C   UNL     1     112.613 125.035 137.473  0.00  0.00    +0.000 C 
ATOM     40  C   UNL     1     113.156 125.529 137.849  0.00  0.00    +0.000 C 
ATOM     41  C   UNL     1     112.891 126.190 138.266  0.00  0.00    +0.000 C 
ATOM     42  C   UNL     1     113.435 126.685 138.643  0.00  0.00    +0.000 C 
ENDBRANCH  32  37
ENDBRANCH  25  32
ENDBRANCH  21  28
ENDBRANCH   4  21
BRANCH   7  43
ATOM     43  O   UNL     1     106.501 125.371 142.002  0.00  0.00    +0.000 OA
BRANCH  43  52
ATOM     44  O   UNL     1     105.945 126.678 141.860  0.00  0.00    +0.000 OA
ATOM     45  O   UNL     1     105.348 126.687 144.262  0.00  0.00    +0.000 OA
ATOM     46  O   UNL     1     104.991 127.992 143.318  0.00  0.00    +0.000 OA
ATOM     47  O   UNL     1     106.104 125.376 143.603  0.00  0.00    +0.000 OA
ATOM     48  C   UNL     1     105.547 126.684 143.461  0.00  0.00    +0.000 C 
ATOM     49  C   UNL     1     105.368 127.337 142.989  0.00  0.00    +0.000 C 
ATOM     50  C   UNL     1     105.925 126.028 143.132  0.00  0.00    +0.000 C 
ATOM     51  C   UNL     1     105.567 127.334 142.189  0.00  0.00    +0.000 C 
ATOM     52  C   UNL     1     106.124 126.026 142.332  0.00  0.00    +0.000 C 
BRANCH  51  54
ATOM     53  O   UNL     1     104.879 127.903 141.072  0.00  0.00    +0.000 OA
ATOM     54  C   UNL     1     105.389 127.987 141.717  0.00  0.00    +0.000 C 
ENDBRANCH  51  54
ENDBRANCH  43  52
ENDBRANCH   7  43
TORSDOF 9
ENDMDL
MODEL 3
REMARK VINA RESULT:     -10.8      1.027      2.205
REMARK  Name = 44259114
REMARK  9 active torsions:
REMARK  status: ('A' for Active; 'I' for Inactive)
REMARK    1  A    between atoms: O_1  and  C_22
REMARK    2  A    between atoms: O_1  and  C_25
REMARK    3  A    between atoms: O_4  and  C_26
REMARK    4  A    between atoms: O_4  and  C_39
REMARK    5  A    between atoms: O_12  and  C_38
REMARK    6  A    between atoms: O_12  and  C_43
REMARK    7  A    between atoms: C_28  and  C_32
REMARK    8  A    between atoms: C_37  and  C_40
REMARK    9  A    between atoms: C_48  and  C_49
REMARK                            x       y       z     vdW  Elec       q    Type
REMARK                         _______ _______ _______ _____ _____    ______ ____
ROOT
ATOM      1  O   UNL     1     112.183 128.184 138.537  0.00  0.00    +0.000 OA
ATOM      2  O   UNL     1     112.432 127.790 135.686  0.00  0.00    +0.000 OA
ATOM      3  O   UNL     1     113.121 126.932 136.618  0.00  0.00    +0.000 OA
ATOM      4  C   UNL     1     111.267 129.314 136.841  0.00  0.00    +0.000 A 
ATOM      5  C   UNL     1     111.469 129.077 137.642  0.00  0.00    +0.000 A 
ATOM      6  C   UNL     1     111.592 128.880 136.176  0.00  0.00    +0.000 A 
ATOM      7  C   UNL     1     112.998 127.126 138.029  0.00  0.00    +0.000 A 
ATOM      8  C   UNL     1     111.993 128.408 137.766  0.00  0.00    +0.000 A 
ATOM      9  C   UNL     1     112.306 127.990 137.127  0.00  0.00    +0.000 A 
ATOM     10  C   UNL     1     112.115 128.214 136.319  0.00  0.00    +0.000 A 
ATOM     11  C   UNL     1     112.809 127.349 137.258  0.00  0.00    +0.000 A 
ATOM     12  C   UNL     1     112.686 127.543 138.668  0.00  0.00    +0.000 A 
ENDROOT
BRANCH  12  15
ATOM     13  O   UNL     1     111.962 126.285 141.130  0.00  0.00    +0.000 OA
ATOM     14  O   UNL     1     113.447 126.647 141.752  0.00  0.00    +0.000 OA
ATOM     15  C   UNL     1     112.876 127.319 139.439  0.00  0.00    +0.000 A 
ATOM     16  C   UNL     1     112.324 126.914 139.899  0.00  0.00    +0.000 A 
ATOM     17  C   UNL     1     113.619 127.500 139.750  0.00  0.00    +0.000 A 
ATOM     18  C   UNL     1     112.514 126.690 140.670  0.00  0.00    +0.000 A 
ATOM     19  C   UNL     1     113.809 127.276 140.521  0.00  0.00    +0.000 A 
ATOM     20  C   UNL     1     113.256 126.871 140.981  0.00  0.00    +0.000 A 
ENDBRANCH  12  15
BRANCH   4  21
ATOM     21  O   UNL     1     110.764 129.956 136.713  0.00  0.00    +0.000 OA
BRANCH  21  28
ATOM     22  O   UNL     1     111.825 130.911 136.649  0.00  0.00    +0.000 OA
ATOM     23  O   UNL     1     110.300 132.662 137.502  0.00  0.00    +0.000 OA
ATOM     24  O   UNL     1     111.868 133.033 137.154  0.00  0.00    +0.000 OA
ATOM     25  C   UNL     1     110.531 131.309 137.108  0.00  0.00    +0.000 C 
ATOM     26  C   UNL     1     110.808 132.079 137.218  0.00  0.00    +0.000 C 
ATOM     27  C   UNL     1     111.593 132.264 137.044  0.00  0.00    +0.000 C 
ATOM     28  C   UNL     1     111.040 130.725 136.823  0.00  0.00    +0.000 C 
ATOM     29  C   UNL     1     112.101 131.680 136.759  0.00  0.00    +0.000 C 
BRANCH  29  31
ATOM     30  O   UNL     1     113.496 131.538 137.033  0.00  0.00    +0.000 OA
ATOM     31  C   UNL     1     112.885 131.865 136.585  0.00  0.00    +0.000 C 
ENDBRANCH  29  31
BRANCH  25  32
ATOM     32  O   UNL     1     109.747 131.124 137.282  0.00  0.00    +0.000 OA
BRANCH  32  37
ATOM     33  O   UNL     1     109.324 131.412 135.947  0.00  0.00    +0.000 OA
ATOM     34  O   UNL     1     108.200 131.335 137.816  0.00  0.00    +0.000 OA
ATOM     35  O   UNL     1     107.004 131.728 136.749  0.00  0.00    +0.000 OA
ATOM     36  O   UNL     1     107.356 131.911 135.148  0.00  0.00    +0.000 OA
ATOM     37  C   UNL     1     109.149 131.321 136.748  0.00  0.00    +0.000 C 
ATOM     38  C   UNL     1     108.376 131.426 137.016  0.00  0.00    +0.000 C 
ATOM     39  C   UNL     1     107.777 131.623 136.482  0.00  0.00    +0.000 C 
ATOM     40  C   UNL     1     107.953 131.714 135.681  0.00  0.00    +0.000 C 
ATOM     41  C   UNL     1     108.727 131.609 135.414  0.00  0.00    +0.000 C 
ATOM     42  C   UNL     1     108.903 131.700 134.612  0.00  0.00    +0.000 C 
ENDBRANCH  32  37
ENDBRANCH  25  32
ENDBRANCH  21  28
ENDBRANCH   4  21
BRANCH   7  43
ATOM     43  O   UNL     1     113.501 126.485 138.160  0.00  0.00    +0.000 OA
BRANCH  43  52
ATOM     44  O   UNL     1     112.542 125.489 137.802  0.00  0.00    +0.000 OA
ATOM     45  O   UNL     1     114.357 124.053 136.926  0.00  0.00    +0.000 OA
ATOM     46  O   UNL     1     112.791 123.536 136.861  0.00  0.00    +0.000 OA
ATOM     47  O   UNL     1     114.712 125.528 137.575  0.00  0.00    +0.000 OA
ATOM     48  C   UNL     1     113.752 124.532 137.218  0.00  0.00    +0.000 C 
ATOM     49  C   UNL     1     112.969 124.273 137.185  0.00  0.00    +0.000 C 
ATOM     50  C   UNL     1     113.930 125.269 137.543  0.00  0.00    +0.000 C 
ATOM     51  C   UNL     1     112.364 124.752 137.478  0.00  0.00    +0.000 C 
ATOM     52  C   UNL     1     113.325 125.748 137.835  0.00  0.00    +0.000 C 
BRANCH  51  54
ATOM     53  O   UNL     1     111.153 124.386 138.143  0.00  0.00    +0.000 OA
ATOM     54  C   UNL     1     111.581 124.494 137.445  0.00  0.00    +0.000 C 
ENDBRANCH  51  54
ENDBRANCH  43  52
ENDBRANCH   7  43
TORSDOF 9
ENDMDL
MODEL 4
REMARK VINA RESULT:     -10.8      2.508      4.339
REMARK  Name = 44259114
REMARK  9 active torsions:
REMARK  status: ('A' for Active; 'I' for Inactive)
REMARK    1  A    between atoms: O_1  and  C_22
REMARK    2  A    between atoms: O_1  and  C_25
REMARK    3  A    between atoms: O_4  and  C_26
REMARK    4  A    between atoms: O_4  and  C_39
REMARK    5  A    between atoms: O_12  and  C_38
REMARK    6  A    between atoms: O_12  and  C_43
REMARK    7  A    between atoms: C_28  and  C_32
REMARK    8  A    between atoms: C_37  and  C_40
REMARK    9  A    between atoms: C_48  and  C_49
REMARK                            x       y       z     vdW  Elec       q    Type
REMARK                         _______ _______ _______ _____ _____    ______ ____
ROOT
ATOM      1  O   UNL     1     112.003 128.496 137.981  0.00  0.00    +0.000 OA
ATOM      2  O   UNL     1     111.732 126.381 139.930  0.00  0.00    +0.000 OA
ATOM      3  O   UNL     1     112.472 126.177 138.709  0.00  0.00    +0.000 OA
ATOM      4  C   UNL     1     110.941 128.476 139.946  0.00  0.00    +0.000 A 
ATOM      5  C   UNL     1     111.247 128.755 139.193  0.00  0.00    +0.000 A 
ATOM      6  C   UNL     1     111.103 127.672 140.199  0.00  0.00    +0.000 A 
ATOM      7  C   UNL     1     112.607 127.223 137.744  0.00  0.00    +0.000 A 
ATOM      8  C   UNL     1     111.711 128.224 138.703  0.00  0.00    +0.000 A 
ATOM      9  C   UNL     1     111.868 127.451 138.945  0.00  0.00    +0.000 A 
ATOM     10  C   UNL     1     111.570 127.156 139.695  0.00  0.00    +0.000 A 
ATOM     11  C   UNL     1     112.316 126.950 138.466  0.00  0.00    +0.000 A 
ATOM     12  C   UNL     1     112.451 127.996 137.501  0.00  0.00    +0.000 A 
ENDROOT
BRANCH  12  15
ATOM     13  O   UNL     1     112.009 128.748 134.780  0.00  0.00    +0.000 OA
ATOM     14  O   UNL     1     113.615 129.085 134.612  0.00  0.00    +0.000 OA
ATOM     15  C   UNL     1     112.742 128.268 136.779  0.00  0.00    +0.000 A 
ATOM     16  C   UNL     1     112.230 128.372 136.140  0.00  0.00    +0.000 A 
ATOM     17  C   UNL     1     113.545 128.436 136.695  0.00  0.00    +0.000 A 
ATOM     18  C   UNL     1     112.520 128.644 135.418  0.00  0.00    +0.000 A 
ATOM     19  C   UNL     1     113.836 128.708 135.973  0.00  0.00    +0.000 A 
ATOM     20  C   UNL     1     113.324 128.812 135.334  0.00  0.00    +0.000 A 
ENDBRANCH  12  15
BRANCH   4  21
ATOM     21  O   UNL     1     110.493 128.980 140.424  0.00  0.00    +0.000 OA
BRANCH  21  28
ATOM     22  O   UNL     1     111.600 129.474 141.180  0.00  0.00    +0.000 OA
ATOM     23  O   UNL     1     110.483 131.673 141.377  0.00  0.00    +0.000 OA
ATOM     24  O   UNL     1     111.962 131.435 142.066  0.00  0.00    +0.000 OA
ATOM     25  C   UNL     1     110.488 130.326 140.901  0.00  0.00    +0.000 C 
ATOM     26  C   UNL     1     110.855 130.941 141.311  0.00  0.00    +0.000 C 
ATOM     27  C   UNL     1     111.595 130.821 141.656  0.00  0.00    +0.000 C 
ATOM     28  C   UNL     1     110.860 129.593 140.835  0.00  0.00    +0.000 C 
ATOM     29  C   UNL     1     111.968 130.088 141.590  0.00  0.00    +0.000 C 
BRANCH  29  31
ATOM     30  O   UNL     1     113.374 129.872 141.458  0.00  0.00    +0.000 OA
ATOM     31  C   UNL     1     112.707 129.969 141.934  0.00  0.00    +0.000 C 
ENDBRANCH  29  31
BRANCH  25  32
ATOM     32  O   UNL     1     109.748 130.446 140.556  0.00  0.00    +0.000 OA
BRANCH  32  37
ATOM     33  O   UNL     1     109.096 130.030 141.759  0.00  0.00    +0.000 OA
ATOM     34  O   UNL     1     108.320 131.049 139.992  0.00  0.00    +0.000 OA
ATOM     35  O   UNL     1     106.954 130.935 140.911  0.00  0.00    +0.000 OA
ATOM     36  O   UNL     1     107.017 130.217 142.396  0.00  0.00    +0.000 OA
ATOM     37  C   UNL     1     109.065 130.389 141.016  0.00  0.00    +0.000 C 
ATOM     38  C   UNL     1     108.351 130.690 140.734  0.00  0.00    +0.000 C 
ATOM     39  C   UNL     1     107.668 130.633 141.194  0.00  0.00    +0.000 C 
ATOM     40  C   UNL     1     107.700 130.274 141.936  0.00  0.00    +0.000 C 
ATOM     41  C   UNL     1     108.414 129.973 142.218  0.00  0.00    +0.000 C 
ATOM     42  C   UNL     1     108.446 129.613 142.961  0.00  0.00    +0.000 C 
ENDBRANCH  32  37
ENDBRANCH  25  32
ENDBRANCH  21  28
ENDBRANCH   4  21
BRANCH   7  43
ATOM     43  O   UNL     1     113.054 126.723 137.265  0.00  0.00    +0.000 OA
BRANCH  43  52
ATOM     44  O   UNL     1     111.943 125.951 136.807  0.00  0.00    +0.000 OA
ATOM     45  O   UNL     1     113.391 123.949 136.662  0.00  0.00    +0.000 OA
ATOM     46  O   UNL     1     111.796 123.845 136.252  0.00  0.00    +0.000 OA
ATOM     47  O   UNL     1     114.020 125.388 137.168  0.00  0.00    +0.000 OA
ATOM     48  C   UNL     1     112.909 124.616 136.710  0.00  0.00    +0.000 C 
ATOM     49  C   UNL     1     112.111 124.565 136.505  0.00  0.00    +0.000 C 
ATOM     50  C   UNL     1     113.223 125.336 136.963  0.00  0.00    +0.000 C 
ATOM     51  C   UNL     1     111.628 125.232 136.554  0.00  0.00    +0.000 C 
ATOM     52  C   UNL     1     112.741 126.003 137.012  0.00  0.00    +0.000 C 
BRANCH  51  54
ATOM     53  O   UNL     1     110.545 125.599 135.698  0.00  0.00    +0.000 OA
ATOM     54  C   UNL     1     110.831 125.180 136.349  0.00  0.00    +0.000 C 
ENDBRANCH  51  54
ENDBRANCH  43  52
ENDBRANCH   7  43
TORSDOF 9
ENDMDL
MODEL 5
REMARK VINA RESULT:     -10.7      7.864     11.193
REMARK  Name = 44259114
REMARK  9 active torsions:
REMARK  status: ('A' for Active; 'I' for Inactive)
REMARK    1  A    between atoms: O_1  and  C_22
REMARK    2  A    between atoms: O_1  and  C_25
REMARK    3  A    between atoms: O_4  and  C_26
REMARK    4  A    between atoms: O_4  and  C_39
REMARK    5  A    between atoms: O_12  and  C_38
REMARK    6  A    between atoms: O_12  and  C_43
REMARK    7  A    between atoms: C_28  and  C_32
REMARK    8  A    between atoms: C_37  and  C_40
REMARK    9  A    between atoms: C_48  and  C_49
REMARK                            x       y       z     vdW  Elec       q    Type
REMARK                         _______ _______ _______ _____ _____    ______ ____
ROOT
ATOM      1  O   UNL     1     104.816 128.081 143.668  0.00  0.00    +0.000 OA
ATOM      2  O   UNL     1     107.451 127.038 143.105  0.00  0.00    +0.000 OA
ATOM      3  O   UNL     1     106.984 128.255 142.486  0.00  0.00    +0.000 OA
ATOM      4  C   UNL     1     105.837 126.251 144.443  0.00  0.00    +0.000 A 
ATOM      5  C   UNL     1     105.236 126.852 144.318  0.00  0.00    +0.000 A 
ATOM      6  C   UNL     1     106.589 126.311 144.033  0.00  0.00    +0.000 A 
ATOM      7  C   UNL     1     105.681 128.771 142.764  0.00  0.00    +0.000 A 
ATOM      8  C   UNL     1     105.396 127.506 143.785  0.00  0.00    +0.000 A 
ATOM      9  C   UNL     1     106.119 127.565 143.390  0.00  0.00    +0.000 A 
ATOM     10  C   UNL     1     106.731 126.972 143.503  0.00  0.00    +0.000 A 
ATOM     11  C   UNL     1     106.262 128.197 142.880  0.00  0.00    +0.000 A 
ATOM     12  C   UNL     1     104.959 128.714 143.158  0.00  0.00    +0.000 A 
ENDROOT
BRANCH  12  15
ATOM     13  O   UNL     1     103.473 130.959 144.117  0.00  0.00    +0.000 OA
ATOM     14  O   UNL     1     102.639 131.014 142.694  0.00  0.00    +0.000 OA
ATOM     15  C   UNL     1     104.379 129.289 143.042  0.00  0.00    +0.000 A 
ATOM     16  C   UNL     1     104.216 129.837 143.637  0.00  0.00    +0.000 A 
ATOM     17  C   UNL     1     103.962 129.316 142.331  0.00  0.00    +0.000 A 
ATOM     18  C   UNL     1     103.636 130.412 143.522  0.00  0.00    +0.000 A 
ATOM     19  C   UNL     1     103.382 129.891 142.215  0.00  0.00    +0.000 A 
ATOM     20  C   UNL     1     103.219 130.439 142.810  0.00  0.00    +0.000 A 
ENDBRANCH  12  15
BRANCH   4  21
ATOM     21  O   UNL     1     105.692 125.618 144.954  0.00  0.00    +0.000 OA
BRANCH  21  28
ATOM     22  O   UNL     1     106.395 126.296 145.997  0.00  0.00    +0.000 OA
ATOM     23  O   UNL     1     106.153 124.308 147.451  0.00  0.00    +0.000 OA
ATOM     24  O   UNL     1     106.937 125.647 148.009  0.00  0.00    +0.000 OA
ATOM     25  C   UNL     1     105.922 124.963 146.202  0.00  0.00    +0.000 C 
ATOM     26  C   UNL     1     106.234 124.970 146.967  0.00  0.00    +0.000 C 
ATOM     27  C   UNL     1     106.626 125.640 147.245  0.00  0.00    +0.000 C 
ATOM     28  C   UNL     1     106.003 125.626 145.717  0.00  0.00    +0.000 C 
ATOM     29  C   UNL     1     106.706 126.303 146.761  0.00  0.00    +0.000 C 
BRANCH  29  31
ATOM     30  O   UNL     1     107.843 127.170 146.743  0.00  0.00    +0.000 OA
ATOM     31  C   UNL     1     107.098 126.972 147.040  0.00  0.00    +0.000 C 
ENDBRANCH  29  31
BRANCH  25  32
ATOM     32  O   UNL     1     105.530 124.293 145.923  0.00  0.00    +0.000 OA
BRANCH  32  37
ATOM     33  O   UNL     1     104.340 124.708 146.598  0.00  0.00    +0.000 OA
ATOM     34  O   UNL     1     104.714 123.017 145.270  0.00  0.00    +0.000 OA
ATOM     35  O   UNL     1     103.117 122.792 145.616  0.00  0.00    +0.000 OA
ATOM     36  O   UNL     1     102.335 123.845 146.617  0.00  0.00    +0.000 OA
ATOM     37  C   UNL     1     104.731 124.181 146.097  0.00  0.00    +0.000 C 
ATOM     38  C   UNL     1     104.324 123.543 145.770  0.00  0.00    +0.000 C 
ATOM     39  C   UNL     1     103.524 123.431 145.943  0.00  0.00    +0.000 C 
ATOM     40  C   UNL     1     103.133 123.957 146.444  0.00  0.00    +0.000 C 
ATOM     41  C   UNL     1     103.541 124.596 146.771  0.00  0.00    +0.000 C 
ATOM     42  C   UNL     1     103.150 125.123 147.272  0.00  0.00    +0.000 C 
ENDBRANCH  32  37
ENDBRANCH  25  32
ENDBRANCH  21  28
ENDBRANCH   4  21
BRANCH   7  43
ATOM     43  O   UNL     1     105.824 129.404 142.254  0.00  0.00    +0.000 OA
BRANCH  43  52
ATOM     44  O   UNL     1     106.677 130.090 143.171  0.00  0.00    +0.000 OA
ATOM     45  O   UNL     1     107.908 131.097 141.274  0.00  0.00    +0.000 OA
ATOM     46  O   UNL     1     108.351 131.448 142.824  0.00  0.00    +0.000 OA
ATOM     47  O   UNL     1     106.644 130.074 140.989  0.00  0.00    +0.000 OA
ATOM     48  C   UNL     1     107.498 130.761 141.906  0.00  0.00    +0.000 C 
ATOM     49  C   UNL     1     107.719 130.937 142.681  0.00  0.00    +0.000 C 
ATOM     50  C   UNL     1     106.866 130.250 141.763  0.00  0.00    +0.000 C 
ATOM     51  C   UNL     1     107.309 130.601 143.314  0.00  0.00    +0.000 C 
ATOM     52  C   UNL     1     106.456 129.915 142.396  0.00  0.00    +0.000 C 
BRANCH  51  54
ATOM     53  O   UNL     1     107.009 131.182 144.584  0.00  0.00    +0.000 OA
ATOM     54  C   UNL     1     107.530 130.777 144.089  0.00  0.00    +0.000 C 
ENDBRANCH  51  54
ENDBRANCH  43  52
ENDBRANCH   7  43
TORSDOF 9
ENDMDL
MODEL 6
REMARK VINA RESULT:     -10.7      2.655      6.225
REMARK  Name = 44259114
REMARK  9 active torsions:
REMARK  status: ('A' for Active; 'I' for Inactive)
REMARK    1  A    between atoms: O_1  and  C_22
REMARK    2  A    between atoms: O_1  and  C_25
REMARK    3  A    between atoms: O_4  and  C_26
REMARK    4  A    between atoms: O_4  and  C_39
REMARK    5  A    between atoms: O_12  and  C_38
REMARK    6  A    between atoms: O_12  and  C_43
REMARK    7  A    between atoms: C_28  and  C_32
REMARK    8  A    between atoms: C_37  and  C_40
REMARK    9  A    between atoms: C_48  and  C_49
REMARK                            x       y       z     vdW  Elec       q    Type
REMARK                         _______ _______ _______ _____ _____    ______ ____
ROOT
ATOM      1  O   UNL     1     110.845 129.421 139.501  0.00  0.00    +0.000 OA
ATOM      2  O   UNL     1     113.638 129.710 140.180  0.00  0.00    +0.000 OA
ATOM      3  O   UNL     1     112.618 130.436 140.898  0.00  0.00    +0.000 OA
ATOM      4  C   UNL     1     112.652 128.459 138.606  0.00  0.00    +0.000 A 
ATOM      5  C   UNL     1     111.830 128.667 138.747  0.00  0.00    +0.000 A 
ATOM      6  C   UNL     1     113.268 128.811 139.091  0.00  0.00    +0.000 A 
ATOM      7  C   UNL     1     111.237 130.294 140.562  0.00  0.00    +0.000 A 
ATOM      8  C   UNL     1     111.635 129.225 139.370  0.00  0.00    +0.000 A 
ATOM      9  C   UNL     1     112.226 129.564 139.836  0.00  0.00    +0.000 A 
ATOM     10  C   UNL     1     113.053 129.367 139.710  0.00  0.00    +0.000 A 
ATOM     11  C   UNL     1     112.027 130.098 140.432  0.00  0.00    +0.000 A 
ATOM     12  C   UNL     1     110.645 129.955 140.097  0.00  0.00    +0.000 A 
ENDROOT
BRANCH  12  15
ATOM     13  O   UNL     1     108.046 129.251 141.054  0.00  0.00    +0.000 OA
ATOM     14  O   UNL     1     107.483 130.740 140.619  0.00  0.00    +0.000 OA
ATOM     15  C   UNL     1     109.855 130.152 140.227  0.00  0.00    +0.000 A 
ATOM     16  C   UNL     1     109.346 129.604 140.575  0.00  0.00    +0.000 A 
ATOM     17  C   UNL     1     109.573 130.896 140.010  0.00  0.00    +0.000 A 
ATOM     18  C   UNL     1     108.555 129.799 140.706  0.00  0.00    +0.000 A 
ATOM     19  C   UNL     1     108.783 131.092 140.141  0.00  0.00    +0.000 A 
ATOM     20  C   UNL     1     108.274 130.543 140.489  0.00  0.00    +0.000 A 
ENDBRANCH  12  15
BRANCH   4  21
ATOM     21  O   UNL     1     112.849 127.924 138.009  0.00  0.00    +0.000 OA
BRANCH  21  28
ATOM     22  O   UNL     1     113.240 128.871 137.013  0.00  0.00    +0.000 OA
ATOM     23  O   UNL     1     112.126 127.505 135.277  0.00  0.00    +0.000 OA
ATOM     24  O   UNL     1     112.887 128.906 134.860  0.00  0.00    +0.000 OA
ATOM     25  C   UNL     1     112.487 127.714 136.643  0.00  0.00    +0.000 C 
ATOM     26  C   UNL     1     112.497 127.960 135.855  0.00  0.00    +0.000 C 
ATOM     27  C   UNL     1     112.878 128.661 135.647  0.00  0.00    +0.000 C 
ATOM     28  C   UNL     1     112.859 128.169 137.222  0.00  0.00    +0.000 C 
ATOM     29  C   UNL     1     113.250 129.117 136.226  0.00  0.00    +0.000 C 
BRANCH  29  31
ATOM     30  O   UNL     1     114.418 129.939 136.231  0.00  0.00    +0.000 OA
ATOM     31  C   UNL     1     113.630 129.817 136.018  0.00  0.00    +0.000 C 
ENDBRANCH  29  31
BRANCH  25  32
ATOM     32  O   UNL     1     112.106 127.013 136.851  0.00  0.00    +0.000 OA
BRANCH  32  37
ATOM     33  O   UNL     1     113.310 126.263 136.674  0.00  0.00    +0.000 OA
ATOM     34  O   UNL     1     111.229 125.617 136.784  0.00  0.00    +0.000 OA
ATOM     35  O   UNL     1     111.992 124.170 136.573  0.00  0.00    +0.000 OA
ATOM     36  O   UNL     1     113.635 124.119 136.430  0.00  0.00    +0.000 OA
ATOM     37  C   UNL     1     112.489 126.289 136.746  0.00  0.00    +0.000 C 
ATOM     38  C   UNL     1     112.049 125.592 136.712  0.00  0.00    +0.000 C 
ATOM     39  C   UNL     1     112.432 124.868 136.607  0.00  0.00    +0.000 C 
ATOM     40  C   UNL     1     113.253 124.842 136.535  0.00  0.00    +0.000 C 
ATOM     41  C   UNL     1     113.692 125.540 136.569  0.00  0.00    +0.000 C 
ATOM     42  C   UNL     1     114.514 125.514 136.497  0.00  0.00    +0.000 C 
ENDBRANCH  32  37
ENDBRANCH  25  32
ENDBRANCH  21  28
ENDBRANCH   4  21
BRANCH   7  43
ATOM     43  O   UNL     1     111.037 130.828 141.158  0.00  0.00    +0.000 OA
BRANCH  43  52
ATOM     44  O   UNL     1     111.269 129.898 142.216  0.00  0.00    +0.000 OA
ATOM     45  O   UNL     1     111.859 131.765 143.730  0.00  0.00    +0.000 OA
ATOM     46  O   UNL     1     111.895 130.211 144.284  0.00  0.00    +0.000 OA
ATOM     47  O   UNL     1     111.430 132.074 142.166  0.00  0.00    +0.000 OA
ATOM     48  C   UNL     1     111.663 131.143 143.225  0.00  0.00    +0.000 C 
ATOM     49  C   UNL     1     111.680 130.366 143.502  0.00  0.00    +0.000 C 
ATOM     50  C   UNL     1     111.448 131.297 142.444  0.00  0.00    +0.000 C 
ATOM     51  C   UNL     1     111.484 129.743 142.998  0.00  0.00    +0.000 C 
ATOM     52  C   UNL     1     111.252 130.675 141.939  0.00  0.00    +0.000 C 
BRANCH  51  54
ATOM     53  O   UNL     1     110.811 128.513 143.275  0.00  0.00    +0.000 OA
ATOM     54  C   UNL     1     111.502 128.966 143.275  0.00  0.00    +0.000 C 
ENDBRANCH  51  54
ENDBRANCH  43  52
ENDBRANCH   7  43
TORSDOF 9
ENDMDL
MODEL 7
REMARK VINA RESULT:     -10.6      2.623      4.418
REMARK  Name = 44259114
REMARK  9 active torsions:
REMARK  status: ('A' for Active; 'I' for Inactive)
REMARK    1  A    between atoms: O_1  and  C_22
REMARK    2  A    between atoms: O_1  and  C_25
REMARK    3  A    between atoms: O_4  and  C_26
REMARK    4  A    between atoms: O_4  and  C_39
REMARK    5  A    between atoms: O_12  and  C_38
REMARK    6  A    between atoms: O_12  and  C_43
REMARK    7  A    between atoms: C_28  and  C_32
REMARK    8  A    between atoms: C_37  and  C_40
REMARK    9  A    between atoms: C_48  and  C_49
REMARK                            x       y       z     vdW  Elec       q    Type
REMARK                         _______ _______ _______ _____ _____    ______ ____
ROOT
ATOM      1  O   UNL     1     112.433 128.429 138.303  0.00  0.00    +0.000 OA
ATOM      2  O   UNL     1     113.097 126.318 140.160  0.00  0.00    +0.000 OA
ATOM      3  O   UNL     1     113.413 126.201 138.758  0.00  0.00    +0.000 OA
ATOM      4  C   UNL     1     112.091 128.288 140.507  0.00  0.00    +0.000 A 
ATOM      5  C   UNL     1     112.092 128.597 139.705  0.00  0.00    +0.000 A 
ATOM      6  C   UNL     1     112.430 127.515 140.665  0.00  0.00    +0.000 A 
ATOM      7  C   UNL     1     113.085 127.245 137.839  0.00  0.00    +0.000 A 
ATOM      8  C   UNL     1     112.434 128.128 139.072  0.00  0.00    +0.000 A 
ATOM      9  C   UNL     1     112.761 127.385 139.223  0.00  0.00    +0.000 A 
ATOM     10  C   UNL     1     112.768 127.061 140.019  0.00  0.00    +0.000 A 
ATOM     11  C   UNL     1     113.086 126.944 138.606  0.00  0.00    +0.000 A 
ATOM     12  C   UNL     1     112.758 127.987 137.687  0.00  0.00    +0.000 A 
ENDROOT
BRANCH  12  15
ATOM     13  O   UNL     1     111.349 128.647 135.289  0.00  0.00    +0.000 OA
ATOM     14  O   UNL     1     112.753 129.191 134.614  0.00  0.00    +0.000 OA
ATOM     15  C   UNL     1     112.757 128.288 136.919  0.00  0.00    +0.000 A 
ATOM     16  C   UNL     1     112.054 128.317 136.488  0.00  0.00    +0.000 A 
ATOM     17  C   UNL     1     113.459 128.560 136.581  0.00  0.00    +0.000 A 
ATOM     18  C   UNL     1     112.052 128.618 135.720  0.00  0.00    +0.000 A 
ATOM     19  C   UNL     1     113.457 128.861 135.813  0.00  0.00    +0.000 A 
ATOM     20  C   UNL     1     112.754 128.890 135.383  0.00  0.00    +0.000 A 
ENDBRANCH  12  15
BRANCH   4  21
ATOM     21  O   UNL     1     111.764 128.732 141.122  0.00  0.00    +0.000 OA
BRANCH  21  28
ATOM     22  O   UNL     1     110.553 127.983 141.242  0.00  0.00    +0.000 OA
ATOM     23  O   UNL     1     109.314 130.066 141.738  0.00  0.00    +0.000 OA
ATOM     24  O   UNL     1     108.516 128.624 141.692  0.00  0.00    +0.000 OA
ATOM     25  C   UNL     1     110.539 129.399 141.430  0.00  0.00    +0.000 C 
ATOM     26  C   UNL     1     109.727 129.372 141.572  0.00  0.00    +0.000 C 
ATOM     27  C   UNL     1     109.328 128.650 141.549  0.00  0.00    +0.000 C 
ATOM     28  C   UNL     1     110.953 128.705 141.265  0.00  0.00    +0.000 C 
ATOM     29  C   UNL     1     109.742 127.956 141.384  0.00  0.00    +0.000 C 
BRANCH  29  31
ATOM     30  O   UNL     1     109.593 126.608 141.837  0.00  0.00    +0.000 OA
ATOM     31  C   UNL     1     109.343 127.234 141.361  0.00  0.00    +0.000 C 
ENDBRANCH  29  31
BRANCH  25  32
ATOM     32  O   UNL     1     110.938 130.121 141.453  0.00  0.00    +0.000 OA
BRANCH  32  37
ATOM     33  O   UNL     1     111.261 129.952 142.835  0.00  0.00    +0.000 OA
ATOM     34  O   UNL     1     111.210 131.742 141.589  0.00  0.00    +0.000 OA
ATOM     35  O   UNL     1     111.669 132.384 143.037  0.00  0.00    +0.000 OA
ATOM     36  O   UNL     1     111.857 131.404 144.351  0.00  0.00    +0.000 OA
ATOM     37  C   UNL     1     111.168 130.442 142.178  0.00  0.00    +0.000 C 
ATOM     38  C   UNL     1     111.304 131.253 142.245  0.00  0.00    +0.000 C 
ATOM     39  C   UNL     1     111.534 131.574 142.970  0.00  0.00    +0.000 C 
ATOM     40  C   UNL     1     111.627 131.083 143.627  0.00  0.00    +0.000 C 
ATOM     41  C   UNL     1     111.491 130.272 143.559  0.00  0.00    +0.000 C 
ATOM     42  C   UNL     1     111.585 129.782 144.217  0.00  0.00    +0.000 C 
ENDBRANCH  32  37
ENDBRANCH  25  32
ENDBRANCH  21  28
ENDBRANCH   4  21
BRANCH   7  43
ATOM     43  O   UNL     1     113.410 126.804 137.222  0.00  0.00    +0.000 OA
BRANCH  43  52
ATOM     44  O   UNL     1     112.311 125.896 137.140  0.00  0.00    +0.000 OA
ATOM     45  O   UNL     1     113.840 124.112 136.363  0.00  0.00    +0.000 OA
ATOM     46  O   UNL     1     112.229 123.799 136.540  0.00  0.00    +0.000 OA
ATOM     47  O   UNL     1     114.430 125.615 136.704  0.00  0.00    +0.000 OA
ATOM     48  C   UNL     1     113.330 124.707 136.622  0.00  0.00    +0.000 C 
ATOM     49  C   UNL     1     112.525 124.550 136.711  0.00  0.00    +0.000 C 
ATOM     50  C   UNL     1     113.626 125.458 136.792  0.00  0.00    +0.000 C 
ATOM     51  C   UNL     1     112.015 125.145 136.970  0.00  0.00    +0.000 C 
ATOM     52  C   UNL     1     113.116 126.053 137.051  0.00  0.00    +0.000 C 
BRANCH  51  54
ATOM     53  O   UNL     1     110.658 125.400 136.603  0.00  0.00    +0.000 OA
ATOM     54  C   UNL     1     111.210 124.989 137.058  0.00  0.00    +0.000 C 
ENDBRANCH  51  54
ENDBRANCH  43  52
ENDBRANCH   7  43
TORSDOF 9
ENDMDL
MODEL 8
REMARK VINA RESULT:     -10.6      3.831      6.954
REMARK  Name = 44259114
REMARK  9 active torsions:
REMARK  status: ('A' for Active; 'I' for Inactive)
REMARK    1  A    between atoms: O_1  and  C_22
REMARK    2  A    between atoms: O_1  and  C_25
REMARK    3  A    between atoms: O_4  and  C_26
REMARK    4  A    between atoms: O_4  and  C_39
REMARK    5  A    between atoms: O_12  and  C_38
REMARK    6  A    between atoms: O_12  and  C_43
REMARK    7  A    between atoms: C_28  and  C_32
REMARK    8  A    between atoms: C_37  and  C_40
REMARK    9  A    between atoms: C_48  and  C_49
REMARK                            x       y       z     vdW  Elec       q    Type
REMARK                         _______ _______ _______ _____ _____    ______ ____
ROOT
ATOM      1  O   UNL     1     109.026 128.369 140.800  0.00  0.00    +0.000 OA
ATOM      2  O   UNL     1     109.151 125.561 141.468  0.00  0.00    +0.000 OA
ATOM      3  O   UNL     1     108.462 126.498 142.320  0.00  0.00    +0.000 OA
ATOM      4  C   UNL     1     109.996 126.672 139.717  0.00  0.00    +0.000 A 
ATOM      5  C   UNL     1     109.732 127.468 139.907  0.00  0.00    +0.000 A 
ATOM      6  C   UNL     1     109.800 126.023 140.244  0.00  0.00    +0.000 A 
ATOM      7  C   UNL     1     108.400 127.887 141.991  0.00  0.00    +0.000 A 
ATOM      8  C   UNL     1     109.277 127.603 140.622  0.00  0.00    +0.000 A 
ATOM      9  C   UNL     1     109.088 126.979 141.129  0.00  0.00    +0.000 A 
ATOM     10  C   UNL     1     109.344 126.178 140.955  0.00  0.00    +0.000 A 
ATOM     11  C   UNL     1     108.650 127.122 141.814  0.00  0.00    +0.000 A 
ATOM     12  C   UNL     1     108.588 128.511 141.484  0.00  0.00    +0.000 A 
ENDROOT
BRANCH  12  15
ATOM     13  O   UNL     1     106.825 130.710 141.011  0.00  0.00    +0.000 OA
ATOM     14  O   UNL     1     107.585 131.573 142.195  0.00  0.00    +0.000 OA
ATOM     15  C   UNL     1     108.337 129.277 141.662  0.00  0.00    +0.000 A 
ATOM     16  C   UNL     1     107.707 129.611 141.248  0.00  0.00    +0.000 A 
ATOM     17  C   UNL     1     108.717 129.708 142.253  0.00  0.00    +0.000 A 
ATOM     18  C   UNL     1     107.456 130.376 141.425  0.00  0.00    +0.000 A 
ATOM     19  C   UNL     1     108.466 130.473 142.431  0.00  0.00    +0.000 A 
ATOM     20  C   UNL     1     107.836 130.808 142.017  0.00  0.00    +0.000 A 
ENDBRANCH  12  15
BRANCH   4  21
ATOM     21  O   UNL     1     110.435 126.532 139.031  0.00  0.00    +0.000 OA
BRANCH  21  28
ATOM     22  O   UNL     1     111.677 126.770 139.696  0.00  0.00    +0.000 OA
ATOM     23  O   UNL     1     112.734 127.315 137.526  0.00  0.00    +0.000 OA
ATOM     24  O   UNL     1     113.623 127.371 138.913  0.00  0.00    +0.000 OA
ATOM     25  C   UNL     1     111.584 126.924 138.278  0.00  0.00    +0.000 C 
ATOM     26  C   UNL     1     112.382 127.134 138.249  0.00  0.00    +0.000 C 
ATOM     27  C   UNL     1     112.826 127.161 138.943  0.00  0.00    +0.000 C 
ATOM     28  C   UNL     1     111.231 126.742 139.002  0.00  0.00    +0.000 C 
ATOM     29  C   UNL     1     112.474 126.980 139.667  0.00  0.00    +0.000 C 
BRANCH  29  31
ATOM     30  O   UNL     1     112.915 126.367 140.880  0.00  0.00    +0.000 OA
ATOM     31  C   UNL     1     112.919 127.008 140.360  0.00  0.00    +0.000 C 
ENDBRANCH  29  31
BRANCH  25  32
ATOM     32  O   UNL     1     111.139 126.896 137.584  0.00  0.00    +0.000 OA
BRANCH  32  37
ATOM     33  O   UNL     1     111.543 125.541 137.374  0.00  0.00    +0.000 OA
ATOM     34  O   UNL     1     110.414 126.908 136.103  0.00  0.00    +0.000 OA
ATOM     35  O   UNL     1     110.454 125.561 135.151  0.00  0.00    +0.000 OA
ATOM     36  O   UNL     1     111.221 124.200 135.682  0.00  0.00    +0.000 OA
ATOM     37  C   UNL     1     111.160 126.221 137.108  0.00  0.00    +0.000 C 
ATOM     38  C   UNL     1     110.797 126.228 136.368  0.00  0.00    +0.000 C 
ATOM     39  C   UNL     1     110.818 125.554 135.892  0.00  0.00    +0.000 C 
ATOM     40  C   UNL     1     111.201 124.873 136.157  0.00  0.00    +0.000 C 
ATOM     41  C   UNL     1     111.564 124.867 136.899  0.00  0.00    +0.000 C 
ATOM     42  C   UNL     1     111.948 124.186 137.164  0.00  0.00    +0.000 C 
ENDBRANCH  32  37
ENDBRANCH  25  32
ENDBRANCH  21  28
ENDBRANCH   4  21
BRANCH   7  43
ATOM     43  O   UNL     1     107.962 128.030 142.675  0.00  0.00    +0.000 OA
BRANCH  43  52
ATOM     44  O   UNL     1     106.758 127.434 142.188  0.00  0.00    +0.000 OA
ATOM     45  O   UNL     1     106.190 126.703 144.483  0.00  0.00    +0.000 OA
ATOM     46  O   UNL     1     105.175 126.351 143.230  0.00  0.00    +0.000 OA
ATOM     47  O   UNL     1     107.583 127.542 144.205  0.00  0.00    +0.000 OA
ATOM     48  C   UNL     1     106.379 126.947 143.718  0.00  0.00    +0.000 C 
ATOM     49  C   UNL     1     105.872 126.771 143.091  0.00  0.00    +0.000 C 
ATOM     50  C   UNL     1     107.076 127.366 143.580  0.00  0.00    +0.000 C 
ATOM     51  C   UNL     1     106.061 127.015 142.326  0.00  0.00    +0.000 C 
ATOM     52  C   UNL     1     107.265 127.610 142.815  0.00  0.00    +0.000 C 
BRANCH  51  54
ATOM     53  O   UNL     1     105.213 127.451 141.262  0.00  0.00    +0.000 OA
ATOM     54  C   UNL     1     105.554 126.839 141.700  0.00  0.00    +0.000 C 
ENDBRANCH  51  54
ENDBRANCH  43  52
ENDBRANCH   7  43
TORSDOF 9
ENDMDL
MODEL 9
REMARK VINA RESULT:     -10.5      5.833      8.205
REMARK  Name = 44259114
REMARK  9 active torsions:
REMARK  status: ('A' for Active; 'I' for Inactive)
REMARK    1  A    between atoms: O_1  and  C_22
REMARK    2  A    between atoms: O_1  and  C_25
REMARK    3  A    between atoms: O_4  and  C_26
REMARK    4  A    between atoms: O_4  and  C_39
REMARK    5  A    between atoms: O_12  and  C_38
REMARK    6  A    between atoms: O_12  and  C_43
REMARK    7  A    between atoms: C_28  and  C_32
REMARK    8  A    between atoms: C_37  and  C_40
REMARK    9  A    between atoms: C_48  and  C_49
REMARK                            x       y       z     vdW  Elec       q    Type
REMARK                         _______ _______ _______ _____ _____    ______ ____
ROOT
ATOM      1  O   UNL     1     110.106 130.440 143.160  0.00  0.00    +0.000 OA
ATOM      2  O   UNL     1     111.877 128.919 144.861  0.00  0.00    +0.000 OA
ATOM      3  O   UNL     1     111.366 128.363 143.632  0.00  0.00    +0.000 OA
ATOM      4  C   UNL     1     111.064 130.992 145.102  0.00  0.00    +0.000 A 
ATOM      5  C   UNL     1     110.591 131.048 144.387  0.00  0.00    +0.000 A 
ATOM      6  C   UNL     1     111.501 130.271 145.266  0.00  0.00    +0.000 A 
ATOM      7  C   UNL     1     110.490 129.115 142.790  0.00  0.00    +0.000 A 
ATOM      8  C   UNL     1     110.562 130.382 143.845  0.00  0.00    +0.000 A 
ATOM      9  C   UNL     1     110.982 129.688 144.002  0.00  0.00    +0.000 A 
ATOM     10  C   UNL     1     111.460 129.615 144.712  0.00  0.00    +0.000 A 
ATOM     11  C   UNL     1     110.946 129.055 143.474  0.00  0.00    +0.000 A 
ATOM     12  C   UNL     1     110.070 129.807 142.632  0.00  0.00    +0.000 A 
ENDROOT
BRANCH  12  15
ATOM     13  O   UNL     1     109.665 130.879 140.014  0.00  0.00    +0.000 OA
ATOM     14  O   UNL     1     108.248 130.044 139.892  0.00  0.00    +0.000 OA
ATOM     15  C   UNL     1     109.614 129.866 141.947  0.00  0.00    +0.000 A 
ATOM     16  C   UNL     1     109.867 130.343 141.323  0.00  0.00    +0.000 A 
ATOM     17  C   UNL     1     108.906 129.448 141.886  0.00  0.00    +0.000 A 
ATOM     18  C   UNL     1     109.412 130.402 140.638  0.00  0.00    +0.000 A 
ATOM     19  C   UNL     1     108.451 129.508 141.201  0.00  0.00    +0.000 A 
ATOM     20  C   UNL     1     108.703 129.985 140.577  0.00  0.00    +0.000 A 
ENDBRANCH  12  15
BRANCH   4  21
ATOM     21  O   UNL     1     111.098 131.627 145.628  0.00  0.00    +0.000 OA
BRANCH  21  28
ATOM     22  O   UNL     1     112.178 132.331 145.011  0.00  0.00    +0.000 OA
ATOM     23  O   UNL     1     111.039 134.479 145.466  0.00  0.00    +0.000 OA
ATOM     24  O   UNL     1     112.498 134.467 144.698  0.00  0.00    +0.000 OA
ATOM     25  C   UNL     1     111.068 133.053 145.547  0.00  0.00    +0.000 C 
ATOM     26  C   UNL     1     111.418 133.763 145.315  0.00  0.00    +0.000 C 
ATOM     27  C   UNL     1     112.148 133.756 144.930  0.00  0.00    +0.000 C 
ATOM     28  C   UNL     1     111.448 132.336 145.396  0.00  0.00    +0.000 C 
ATOM     29  C   UNL     1     112.528 133.040 144.779  0.00  0.00    +0.000 C 
BRANCH  29  31
ATOM     30  O   UNL     1     113.948 132.882 144.821  0.00  0.00    +0.000 OA
ATOM     31  C   UNL     1     113.257 133.034 144.395  0.00  0.00    +0.000 C 
ENDBRANCH  29  31
BRANCH  25  32
ATOM     32  O   UNL     1     110.338 133.060 145.932  0.00  0.00    +0.000 OA
BRANCH  32  37
ATOM     33  O   UNL     1     110.981 133.190 147.202  0.00  0.00    +0.000 OA
ATOM     34  O   UNL     1     108.897 133.473 146.619  0.00  0.00    +0.000 OA
ATOM     35  O   UNL     1     108.818 133.810 148.232  0.00  0.00    +0.000 OA
ATOM     36  O   UNL     1     110.181 133.734 149.158  0.00  0.00    +0.000 OA
ATOM     37  C   UNL     1     110.299 133.229 146.739  0.00  0.00    +0.000 C 
ATOM     38  C   UNL     1     109.578 133.435 147.082  0.00  0.00    +0.000 C 
ATOM     39  C   UNL     1     109.539 133.604 147.889  0.00  0.00    +0.000 C 
ATOM     40  C   UNL     1     110.221 133.566 148.352  0.00  0.00    +0.000 C 
ATOM     41  C   UNL     1     110.942 133.359 148.008  0.00  0.00    +0.000 C 
ATOM     42  C   UNL     1     111.624 133.321 148.471  0.00  0.00    +0.000 C 
ENDBRANCH  32  37
ENDBRANCH  25  32
ENDBRANCH  21  28
ENDBRANCH   4  21
BRANCH   7  43
ATOM     43  O   UNL     1     110.455 128.482 142.262  0.00  0.00    +0.000 OA
BRANCH  43  52
ATOM     44  O   UNL     1     111.767 128.702 141.744  0.00  0.00    +0.000 OA
ATOM     45  O   UNL     1     111.979 126.286 141.250  0.00  0.00    +0.000 OA
ATOM     46  O   UNL     1     113.221 127.313 140.896  0.00  0.00    +0.000 OA
ATOM     47  O   UNL     1     110.595 126.871 141.934  0.00  0.00    +0.000 OA
ATOM     48  C   UNL     1     111.908 127.091 141.415  0.00  0.00    +0.000 C 
ATOM     49  C   UNL     1     112.529 127.605 141.238  0.00  0.00    +0.000 C 
ATOM     50  C   UNL     1     111.216 127.383 141.756  0.00  0.00    +0.000 C 
ATOM     51  C   UNL     1     112.459 128.410 141.402  0.00  0.00    +0.000 C 
ATOM     52  C   UNL     1     111.146 128.189 141.921  0.00  0.00    +0.000 C 
BRANCH  51  54
ATOM     53  O   UNL     1     112.968 129.531 140.677  0.00  0.00    +0.000 OA
ATOM     54  C   UNL     1     113.080 128.923 141.225  0.00  0.00    +0.000 C 
ENDBRANCH  51  54
ENDBRANCH  43  52
ENDBRANCH   7  43
TORSDOF 9
ENDMDL
MODEL 10
REMARK VINA RESULT:     -10.5      4.463      6.871
REMARK  Name = 44259114
REMARK  9 active torsions:
REMARK  status: ('A' for Active; 'I' for Inactive)
REMARK    1  A    between atoms: O_1  and  C_22
REMARK    2  A    between atoms: O_1  and  C_25
REMARK    3  A    between atoms: O_4  and  C_26
REMARK    4  A    between atoms: O_4  and  C_39
REMARK    5  A    between atoms: O_12  and  C_38
REMARK    6  A    between atoms: O_12  and  C_43
REMARK    7  A    between atoms: C_28  and  C_32
REMARK    8  A    between atoms: C_37  and  C_40
REMARK    9  A    between atoms: C_48  and  C_49
REMARK                            x       y       z     vdW  Elec       q    Type
REMARK                         _______ _______ _______ _____ _____    ______ ____
ROOT
ATOM      1  O   UNL     1     109.211 127.725 140.502  0.00  0.00    +0.000 OA
ATOM      2  O   UNL     1     110.088 125.099 141.328  0.00  0.00    +0.000 OA
ATOM      3  O   UNL     1     111.016 126.199 141.239  0.00  0.00    +0.000 OA
ATOM      4  C   UNL     1     108.053 125.829 140.743  0.00  0.00    +0.000 A 
ATOM      5  C   UNL     1     108.235 126.652 140.575  0.00  0.00    +0.000 A 
ATOM      6  C   UNL     1     108.679 125.300 140.998  0.00  0.00    +0.000 A 
ATOM      7  C   UNL     1     110.583 127.498 140.831  0.00  0.00    +0.000 A 
ATOM      8  C   UNL     1     109.042 126.934 140.665  0.00  0.00    +0.000 A 
ATOM      9  C   UNL     1     109.644 126.426 140.911  0.00  0.00    +0.000 A 
ATOM     10  C   UNL     1     109.480 125.600 141.083  0.00  0.00    +0.000 A 
ATOM     11  C   UNL     1     110.415 126.708 140.994  0.00  0.00    +0.000 A 
ATOM     12  C   UNL     1     109.982 128.007 140.585  0.00  0.00    +0.000 A 
ENDROOT
BRANCH  12  15
ATOM     13  O   UNL     1     110.566 130.651 141.499  0.00  0.00    +0.000 OA
ATOM     14  O   UNL     1     110.660 131.171 139.936  0.00  0.00    +0.000 OA
ATOM     15  C   UNL     1     110.152 128.798 140.423  0.00  0.00    +0.000 A 
ATOM     16  C   UNL     1     110.274 129.329 141.042  0.00  0.00    +0.000 A 
ATOM     17  C   UNL     1     110.199 129.058 139.641  0.00  0.00    +0.000 A 
ATOM     18  C   UNL     1     110.443 130.120 140.880  0.00  0.00    +0.000 A 
ATOM     19  C   UNL     1     110.368 129.848 139.480  0.00  0.00    +0.000 A 
ATOM     20  C   UNL     1     110.490 130.380 140.099  0.00  0.00    +0.000 A 
ENDBRANCH  12  15
BRANCH   4  21
ATOM     21  O   UNL     1     107.281 125.549 140.659  0.00  0.00    +0.000 OA
BRANCH  21  28
ATOM     22  O   UNL     1     106.831 125.973 141.947  0.00  0.00    +0.000 OA
ATOM     23  O   UNL     1     105.358 123.990 142.085  0.00  0.00    +0.000 OA
ATOM     24  O   UNL     1     105.399 125.074 143.327  0.00  0.00    +0.000 OA
ATOM     25  C   UNL     1     106.320 124.769 141.372  0.00  0.00    +0.000 C 
ATOM     26  C   UNL     1     105.849 124.650 142.039  0.00  0.00    +0.000 C 
ATOM     27  C   UNL     1     105.870 125.193 142.660  0.00  0.00    +0.000 C 
ATOM     28  C   UNL     1     106.811 125.431 141.326  0.00  0.00    +0.000 C 
ATOM     29  C   UNL     1     106.361 125.854 142.614  0.00  0.00    +0.000 C 
BRANCH  29  31
ATOM     30  O   UNL     1     107.057 126.461 143.705  0.00  0.00    +0.000 OA
ATOM     31  C   UNL     1     106.382 126.396 143.235  0.00  0.00    +0.000 C 
ENDBRANCH  29  31
BRANCH  25  32
ATOM     32  O   UNL     1     106.298 124.227 140.751  0.00  0.00    +0.000 OA
BRANCH  32  37
ATOM     33  O   UNL     1     105.259 124.957 140.094  0.00  0.00    +0.000 OA
ATOM     34  O   UNL     1     105.936 122.897 139.844  0.00  0.00    +0.000 OA
ATOM     35  O   UNL     1     104.717 122.961 138.735  0.00  0.00    +0.000 OA
ATOM     36  O   UNL     1     103.859 124.356 138.532  0.00  0.00    +0.000 OA
ATOM     37  C   UNL     1     105.688 124.259 140.196  0.00  0.00    +0.000 C 
ATOM     38  C   UNL     1     105.508 123.594 139.743  0.00  0.00    +0.000 C 
ATOM     39  C   UNL     1     104.897 123.626 139.188  0.00  0.00    +0.000 C 
ATOM     40  C   UNL     1     104.469 124.324 139.086  0.00  0.00    +0.000 C 
ATOM     41  C   UNL     1     104.650 124.989 139.540  0.00  0.00    +0.000 C 
ATOM     42  C   UNL     1     104.221 125.687 139.438  0.00  0.00    +0.000 C 
ENDBRANCH  32  37
ENDBRANCH  25  32
ENDBRANCH  21  28
ENDBRANCH   4  21
BRANCH   7  43
ATOM     43  O   UNL     1     111.354 127.781 140.914  0.00  0.00    +0.000 OA
BRANCH  43  52
ATOM     44  O   UNL     1     111.838 127.124 139.742  0.00  0.00    +0.000 OA
ATOM     45  O   UNL     1     114.088 126.962 140.761  0.00  0.00    +0.000 OA
ATOM     46  O   UNL     1     113.822 126.359 139.248  0.00  0.00    +0.000 OA
ATOM     47  O   UNL     1     112.854 127.673 141.594  0.00  0.00    +0.000 OA
ATOM     48  C   UNL     1     113.338 127.016 140.421  0.00  0.00    +0.000 C 
ATOM     49  C   UNL     1     113.205 126.714 139.665  0.00  0.00    +0.000 C 
ATOM     50  C   UNL     1     112.721 127.372 140.838  0.00  0.00    +0.000 C 
ATOM     51  C   UNL     1     112.455 126.768 139.325  0.00  0.00    +0.000 C 
ATOM     52  C   UNL     1     111.971 127.426 140.498  0.00  0.00    +0.000 C 
BRANCH  51  54
ATOM     53  O   UNL     1     111.992 126.949 137.985  0.00  0.00    +0.000 OA
ATOM     54  C   UNL     1     112.322 126.467 138.569  0.00  0.00    +0.000 C 
ENDBRANCH  51  54
ENDBRANCH  43  52
ENDBRANCH   7  43
TORSDOF 9
ENDMDL
