MODEL 1
REMARK VINA RESULT:     -11.3      0.000      0.000
REMARK  Name = 45360168
REMARK  8 active torsions:
REMARK  status: ('A' for Active; 'I' for Inactive)
REMARK    1  A    between atoms: O_1  and  C_20
REMARK    2  A    between atoms: O_1  and  C_25
REMARK    3  A    between atoms: O_10  and  C_36
REMARK    4  A    between atoms: O_10  and  C_41
REMARK    5  A    between atoms: C_22  and  C_28
REMARK    6  A    between atoms: C_24  and  C_31
REMARK    7  A    between atoms: C_40  and  C_43
REMARK    8  A    between atoms: C_45  and  C_47
REMARK                            x       y       z     vdW  Elec       q    Type
REMARK                         _______ _______ _______ _____ _____    ______ ____
ROOT
ATOM      1  O   UNL     1     113.199 129.199 139.011  0.00  0.00    +0.000 OA
ATOM      2  O   UNL     1     112.091 128.307 136.505  0.00  0.00    +0.000 OA
ATOM      3  O   UNL     1     113.076 126.821 139.872  0.00  0.00    +0.000 OA
ATOM      4  C   UNL     1     112.640 128.736 137.753  0.00  0.00    +0.000 A 
ATOM      5  C   UNL     1     112.895 128.564 138.518  0.00  0.00    +0.000 A 
ATOM      6  C   UNL     1     112.346 128.134 137.271  0.00  0.00    +0.000 A 
ATOM      7  C   UNL     1     112.856 127.789 138.802  0.00  0.00    +0.000 A 
ATOM      8  C   UNL     1     112.562 127.188 138.319  0.00  0.00    +0.000 A 
ATOM      9  C   UNL     1     112.307 127.361 137.554  0.00  0.00    +0.000 A 
ATOM     10  C   UNL     1     113.118 127.597 139.596  0.00  0.00    +0.000 A 
ATOM     11  C   UNL     1     113.467 129.026 139.809  0.00  0.00    +0.000 A 
ATOM     12  C   UNL     1     113.426 128.220 140.104  0.00  0.00    +0.000 A 
ENDROOT
BRANCH   4  18
ATOM     13  O   UNL     1     113.339 129.761 137.043  0.00  0.00    +0.000 OA
ATOM     14  O   UNL     1     111.474 131.330 137.473  0.00  0.00    +0.000 OA
ATOM     15  O   UNL     1     112.795 131.832 136.621  0.00  0.00    +0.000 OA
ATOM     16  C   UNL     1     112.057 130.033 137.613  0.00  0.00    +0.000 C 
ATOM     17  C   UNL     1     112.096 130.808 137.330  0.00  0.00    +0.000 C 
ATOM     18  C   UNL     1     112.679 129.510 137.470  0.00  0.00    +0.000 C 
ATOM     19  C   UNL     1     112.756 131.058 136.904  0.00  0.00    +0.000 C 
ATOM     20  C   UNL     1     113.378 130.534 136.761  0.00  0.00    +0.000 C 
BRANCH  20  22
ATOM     21  O   UNL     1     114.781 130.464 136.498  0.00  0.00    +0.000 OA
ATOM     22  C   UNL     1     114.038 130.785 136.334  0.00  0.00    +0.000 C 
ENDBRANCH  20  22
BRANCH  16  23
ATOM     23  O   UNL     1     111.397 129.782 138.039  0.00  0.00    +0.000 OA
BRANCH  23  28
ATOM     24  O   UNL     1     110.494 129.928 136.941  0.00  0.00    +0.000 OA
ATOM     25  O   UNL     1     110.168 130.106 139.092  0.00  0.00    +0.000 OA
ATOM     26  O   UNL     1     108.651 130.414 138.520  0.00  0.00    +0.000 OA
ATOM     27  O   UNL     1     108.363 130.398 136.895  0.00  0.00    +0.000 OA
ATOM     28  C   UNL     1     110.638 129.936 137.753  0.00  0.00    +0.000 C 
ATOM     29  C   UNL     1     110.024 130.098 138.279  0.00  0.00    +0.000 C 
ATOM     30  C   UNL     1     109.266 130.252 137.993  0.00  0.00    +0.000 C 
ATOM     31  C   UNL     1     109.122 130.244 137.181  0.00  0.00    +0.000 C 
ATOM     32  C   UNL     1     109.737 130.082 136.655  0.00  0.00    +0.000 C 
ATOM     33  C   UNL     1     109.592 130.074 135.842  0.00  0.00    +0.000 C 
ENDBRANCH  23  28
ENDBRANCH  16  23
ENDBRANCH   4  18
BRANCH  11  35
ATOM     34  O   UNL     1     114.639 131.439 141.729  0.00  0.00    +0.000 OA
ATOM     35  C   UNL     1     113.760 129.629 140.289  0.00  0.00    +0.000 A 
ATOM     36  C   UNL     1     114.535 129.895 140.191  0.00  0.00    +0.000 A 
ATOM     37  C   UNL     1     113.278 129.967 140.867  0.00  0.00    +0.000 A 
ATOM     38  C   UNL     1     114.828 130.498 140.671  0.00  0.00    +0.000 A 
ATOM     39  C   UNL     1     113.571 130.570 141.348  0.00  0.00    +0.000 A 
ATOM     40  C   UNL     1     114.346 130.835 141.249  0.00  0.00    +0.000 A 
ENDBRANCH  11  35
BRANCH   8  41
ATOM     41  O   UNL     1     112.523 126.415 138.603  0.00  0.00    +0.000 OA
BRANCH  41  48
ATOM     42  O   UNL     1     113.489 125.718 137.811  0.00  0.00    +0.000 OA
ATOM     43  O   UNL     1     111.386 125.285 138.210  0.00  0.00    +0.000 OA
ATOM     44  O   UNL     1     111.782 124.025 137.222  0.00  0.00    +0.000 OA
ATOM     45  O   UNL     1     113.316 123.893 136.627  0.00  0.00    +0.000 OA
ATOM     46  C   UNL     1     112.153 125.219 137.912  0.00  0.00    +0.000 C 
ATOM     47  C   UNL     1     112.351 124.589 137.418  0.00  0.00    +0.000 C 
ATOM     48  C   UNL     1     112.721 125.784 138.109  0.00  0.00    +0.000 C 
ATOM     49  C   UNL     1     113.118 124.523 137.121  0.00  0.00    +0.000 C 
ATOM     50  C   UNL     1     113.687 125.088 137.317  0.00  0.00    +0.000 C 
BRANCH  50  52
ATOM     51  O   UNL     1     115.100 125.089 137.527  0.00  0.00    +0.000 OA
ATOM     52  C   UNL     1     114.453 125.022 137.019  0.00  0.00    +0.000 C 
ENDBRANCH  50  52
ENDBRANCH  41  48
ENDBRANCH   8  41
TORSDOF 8
ENDMDL
MODEL 2
REMARK VINA RESULT:     -11.2      1.266      4.288
REMARK  Name = 45360168
REMARK  8 active torsions:
REMARK  status: ('A' for Active; 'I' for Inactive)
REMARK    1  A    between atoms: O_1  and  C_20
REMARK    2  A    between atoms: O_1  and  C_25
REMARK    3  A    between atoms: O_10  and  C_36
REMARK    4  A    between atoms: O_10  and  C_41
REMARK    5  A    between atoms: C_22  and  C_28
REMARK    6  A    between atoms: C_24  and  C_31
REMARK    7  A    between atoms: C_40  and  C_43
REMARK    8  A    between atoms: C_45  and  C_47
REMARK                            x       y       z     vdW  Elec       q    Type
REMARK                         _______ _______ _______ _____ _____    ______ ____
ROOT
ATOM      1  O   UNL     1     113.137 127.484 137.938  0.00  0.00    +0.000 OA
ATOM      2  O   UNL     1     112.553 130.304 137.848  0.00  0.00    +0.000 OA
ATOM      3  O   UNL     1     113.206 127.613 140.465  0.00  0.00    +0.000 OA
ATOM      4  C   UNL     1     112.843 128.906 137.907  0.00  0.00    +0.000 A 
ATOM      5  C   UNL     1     113.000 128.226 138.348  0.00  0.00    +0.000 A 
ATOM      6  C   UNL     1     112.709 129.624 138.290  0.00  0.00    +0.000 A 
ATOM      7  C   UNL     1     113.023 128.266 139.172  0.00  0.00    +0.000 A 
ATOM      8  C   UNL     1     112.889 128.984 139.555  0.00  0.00    +0.000 A 
ATOM      9  C   UNL     1     112.732 129.663 139.113  0.00  0.00    +0.000 A 
ATOM     10  C   UNL     1     113.184 127.566 139.642  0.00  0.00    +0.000 A 
ATOM     11  C   UNL     1     113.301 126.772 138.391  0.00  0.00    +0.000 A 
ATOM     12  C   UNL     1     113.324 126.813 139.249  0.00  0.00    +0.000 A 
ENDROOT
BRANCH   4  18
ATOM     13  O   UNL     1     113.501 129.020 136.643  0.00  0.00    +0.000 OA
ATOM     14  O   UNL     1     111.388 128.440 135.491  0.00  0.00    +0.000 OA
ATOM     15  O   UNL     1     112.750 128.748 134.612  0.00  0.00    +0.000 OA
ATOM     16  C   UNL     1     112.116 128.673 136.699  0.00  0.00    +0.000 C 
ATOM     17  C   UNL     1     112.093 128.634 135.875  0.00  0.00    +0.000 C 
ATOM     18  C   UNL     1     112.820 128.866 137.083  0.00  0.00    +0.000 C 
ATOM     19  C   UNL     1     112.774 128.788 135.435  0.00  0.00    +0.000 C 
ATOM     20  C   UNL     1     113.477 128.981 135.820  0.00  0.00    +0.000 C 
BRANCH  20  22
ATOM     21  O   UNL     1     114.739 129.639 135.681  0.00  0.00    +0.000 OA
ATOM     22  C   UNL     1     114.158 129.135 135.380  0.00  0.00    +0.000 C 
ENDBRANCH  20  22
BRANCH  16  23
ATOM     23  O   UNL     1     111.435 128.519 137.139  0.00  0.00    +0.000 OA
BRANCH  23  28
ATOM     24  O   UNL     1     110.665 129.617 136.645  0.00  0.00    +0.000 OA
ATOM     25  O   UNL     1     110.077 127.583 137.175  0.00  0.00    +0.000 OA
ATOM     26  O   UNL     1     108.628 128.213 136.699  0.00  0.00    +0.000 OA
ATOM     27  O   UNL     1     108.537 129.779 136.187  0.00  0.00    +0.000 OA
ATOM     28  C   UNL     1     110.710 128.835 136.901  0.00  0.00    +0.000 C 
ATOM     29  C   UNL     1     110.031 128.367 136.919  0.00  0.00    +0.000 C 
ATOM     30  C   UNL     1     109.307 128.681 136.681  0.00  0.00    +0.000 C 
ATOM     31  C   UNL     1     109.262 129.464 136.425  0.00  0.00    +0.000 C 
ATOM     32  C   UNL     1     109.941 129.932 136.407  0.00  0.00    +0.000 C 
ATOM     33  C   UNL     1     109.895 130.715 136.151  0.00  0.00    +0.000 C 
ENDBRANCH  23  28
ENDBRANCH  16  23
ENDBRANCH   4  18
BRANCH  11  35
ATOM     34  O   UNL     1     113.832 123.904 136.851  0.00  0.00    +0.000 OA
ATOM     35  C   UNL     1     113.434 126.056 138.006  0.00  0.00    +0.000 A 
ATOM     36  C   UNL     1     114.202 125.832 137.803  0.00  0.00    +0.000 A 
ATOM     37  C   UNL     1     112.799 125.561 137.824  0.00  0.00    +0.000 A 
ATOM     38  C   UNL     1     114.334 125.115 137.418  0.00  0.00    +0.000 A 
ATOM     39  C   UNL     1     112.931 124.844 137.439  0.00  0.00    +0.000 A 
ATOM     40  C   UNL     1     113.699 124.621 137.236  0.00  0.00    +0.000 A 
ENDBRANCH  11  35
BRANCH   8  41
ATOM     41  O   UNL     1     112.912 129.023 140.378  0.00  0.00    +0.000 OA
BRANCH  41  48
ATOM     42  O   UNL     1     114.024 129.900 140.570  0.00  0.00    +0.000 OA
ATOM     43  O   UNL     1     112.041 129.885 141.483  0.00  0.00    +0.000 OA
ATOM     44  O   UNL     1     112.717 131.193 142.228  0.00  0.00    +0.000 OA
ATOM     45  O   UNL     1     114.264 131.639 141.868  0.00  0.00    +0.000 OA
ATOM     46  C   UNL     1     112.815 130.108 141.303  0.00  0.00    +0.000 C 
ATOM     47  C   UNL     1     113.153 130.762 141.675  0.00  0.00    +0.000 C 
ATOM     48  C   UNL     1     113.250 129.677 140.750  0.00  0.00    +0.000 C 
ATOM     49  C   UNL     1     113.926 130.985 141.495  0.00  0.00    +0.000 C 
ATOM     50  C   UNL     1     114.362 130.554 140.943  0.00  0.00    +0.000 C 
BRANCH  50  52
ATOM     51  O   UNL     1     115.708 130.201 140.617  0.00  0.00    +0.000 OA
ATOM     52  C   UNL     1     115.135 130.777 140.763  0.00  0.00    +0.000 C 
ENDBRANCH  50  52
ENDBRANCH  41  48
ENDBRANCH   8  41
TORSDOF 8
ENDMDL
MODEL 3
REMARK VINA RESULT:     -11.2      1.334      4.460
REMARK  Name = 45360168
REMARK  8 active torsions:
REMARK  status: ('A' for Active; 'I' for Inactive)
REMARK    1  A    between atoms: O_1  and  C_20
REMARK    2  A    between atoms: O_1  and  C_25
REMARK    3  A    between atoms: O_10  and  C_36
REMARK    4  A    between atoms: O_10  and  C_41
REMARK    5  A    between atoms: C_22  and  C_28
REMARK    6  A    between atoms: C_24  and  C_31
REMARK    7  A    between atoms: C_40  and  C_43
REMARK    8  A    between atoms: C_45  and  C_47
REMARK                            x       y       z     vdW  Elec       q    Type
REMARK                         _______ _______ _______ _____ _____    ______ ____
ROOT
ATOM      1  O   UNL     1     112.298 127.845 138.033  0.00  0.00    +0.000 OA
ATOM      2  O   UNL     1     112.405 130.719 137.866  0.00  0.00    +0.000 OA
ATOM      3  O   UNL     1     113.917 127.931 139.977  0.00  0.00    +0.000 OA
ATOM      4  C   UNL     1     112.361 129.294 137.960  0.00  0.00    +0.000 A 
ATOM      5  C   UNL     1     112.602 128.594 138.323  0.00  0.00    +0.000 A 
ATOM      6  C   UNL     1     112.647 130.019 138.230  0.00  0.00    +0.000 A 
ATOM      7  C   UNL     1     113.130 128.619 138.958  0.00  0.00    +0.000 A 
ATOM      8  C   UNL     1     113.416 129.344 139.228  0.00  0.00    +0.000 A 
ATOM      9  C   UNL     1     113.174 130.044 138.864  0.00  0.00    +0.000 A 
ATOM     10  C   UNL     1     113.389 127.898 139.344  0.00  0.00    +0.000 A 
ATOM     11  C   UNL     1     112.545 127.112 138.407  0.00  0.00    +0.000 A 
ATOM     12  C   UNL     1     113.095 127.138 139.067  0.00  0.00    +0.000 A 
ENDROOT
BRANCH   4  18
ATOM     13  O   UNL     1     112.119 129.251 136.552  0.00  0.00    +0.000 OA
ATOM     14  O   UNL     1     109.680 129.229 136.973  0.00  0.00    +0.000 OA
ATOM     15  O   UNL     1     110.251 129.193 135.425  0.00  0.00    +0.000 OA
ATOM     16  C   UNL     1     111.020 129.262 137.466  0.00  0.00    +0.000 C 
ATOM     17  C   UNL     1     110.493 129.236 136.832  0.00  0.00    +0.000 C 
ATOM     18  C   UNL     1     111.833 129.269 137.326  0.00  0.00    +0.000 C 
ATOM     19  C   UNL     1     110.778 129.218 136.058  0.00  0.00    +0.000 C 
ATOM     20  C   UNL     1     111.591 129.226 135.919  0.00  0.00    +0.000 C 
BRANCH  20  22
ATOM     21  O   UNL     1     112.651 128.964 134.996  0.00  0.00    +0.000 OA
ATOM     22  C   UNL     1     111.877 129.208 135.145  0.00  0.00    +0.000 C 
ENDBRANCH  20  22
BRANCH  16  23
ATOM     23  O   UNL     1     110.735 129.280 138.240  0.00  0.00    +0.000 OA
BRANCH  23  28
ATOM     24  O   UNL     1     110.133 130.570 138.118  0.00  0.00    +0.000 OA
ATOM     25  O   UNL     1     109.568 128.838 139.320  0.00  0.00    +0.000 OA
ATOM     26  O   UNL     1     108.383 129.907 139.737  0.00  0.00    +0.000 OA
ATOM     27  O   UNL     1     108.364 131.418 139.075  0.00  0.00    +0.000 OA
ATOM     28  C   UNL     1     110.143 129.815 138.449  0.00  0.00    +0.000 C 
ATOM     29  C   UNL     1     109.559 129.594 138.988  0.00  0.00    +0.000 C 
ATOM     30  C   UNL     1     108.966 130.128 139.197  0.00  0.00    +0.000 C 
ATOM     31  C   UNL     1     108.958 130.883 138.866  0.00  0.00    +0.000 C 
ATOM     32  C   UNL     1     109.541 131.104 138.326  0.00  0.00    +0.000 C 
ATOM     33  C   UNL     1     109.532 131.860 137.996  0.00  0.00    +0.000 C 
ENDBRANCH  23  28
ENDBRANCH  16  23
ENDBRANCH   4  18
BRANCH  11  35
ATOM     34  O   UNL     1     111.395 124.218 137.319  0.00  0.00    +0.000 OA
ATOM     35  C   UNL     1     112.258 126.389 138.135  0.00  0.00    +0.000 A 
ATOM     36  C   UNL     1     112.628 126.009 137.503  0.00  0.00    +0.000 A 
ATOM     37  C   UNL     1     111.600 126.045 138.495  0.00  0.00    +0.000 A 
ATOM     38  C   UNL     1     112.340 125.285 137.231  0.00  0.00    +0.000 A 
ATOM     39  C   UNL     1     111.312 125.321 138.223  0.00  0.00    +0.000 A 
ATOM     40  C   UNL     1     111.682 124.942 137.591  0.00  0.00    +0.000 A 
ENDBRANCH  11  35
BRANCH   8  41
ATOM     41  O   UNL     1     113.943 129.369 139.861  0.00  0.00    +0.000 OA
BRANCH  41  48
ATOM     42  O   UNL     1     113.112 129.926 140.883  0.00  0.00    +0.000 OA
ATOM     43  O   UNL     1     115.145 130.426 140.263  0.00  0.00    +0.000 OA
ATOM     44  O   UNL     1     114.915 131.511 141.485  0.00  0.00    +0.000 OA
ATOM     45  O   UNL     1     113.483 131.539 142.305  0.00  0.00    +0.000 OA
ATOM     46  C   UNL     1     114.428 130.440 140.674  0.00  0.00    +0.000 C 
ATOM     47  C   UNL     1     114.313 130.983 141.285  0.00  0.00    +0.000 C 
ATOM     48  C   UNL     1     113.828 129.912 140.472  0.00  0.00    +0.000 C 
ATOM     49  C   UNL     1     113.598 130.996 141.694  0.00  0.00    +0.000 C 
ATOM     50  C   UNL     1     112.997 130.468 141.494  0.00  0.00    +0.000 C 
BRANCH  50  52
ATOM     51  O   UNL     1     111.867 129.780 142.035  0.00  0.00    +0.000 OA
ATOM     52  C   UNL     1     112.282 130.482 141.903  0.00  0.00    +0.000 C 
ENDBRANCH  50  52
ENDBRANCH  41  48
ENDBRANCH   8  41
TORSDOF 8
ENDMDL
MODEL 4
REMARK VINA RESULT:     -11.1      1.440      4.863
REMARK  Name = 45360168
REMARK  8 active torsions:
REMARK  status: ('A' for Active; 'I' for Inactive)
REMARK    1  A    between atoms: O_1  and  C_20
REMARK    2  A    between atoms: O_1  and  C_25
REMARK    3  A    between atoms: O_10  and  C_36
REMARK    4  A    between atoms: O_10  and  C_41
REMARK    5  A    between atoms: C_22  and  C_28
REMARK    6  A    between atoms: C_24  and  C_31
REMARK    7  A    between atoms: C_40  and  C_43
REMARK    8  A    between atoms: C_45  and  C_47
REMARK                            x       y       z     vdW  Elec       q    Type
REMARK                         _______ _______ _______ _____ _____    ______ ____
ROOT
ATOM      1  O   UNL     1     112.661 127.215 137.913  0.00  0.00    +0.000 OA
ATOM      2  O   UNL     1     111.280 129.705 138.357  0.00  0.00    +0.000 OA
ATOM      3  O   UNL     1     113.489 127.287 140.304  0.00  0.00    +0.000 OA
ATOM      4  C   UNL     1     111.970 128.470 138.151  0.00  0.00    +0.000 A 
ATOM      5  C   UNL     1     112.450 127.863 138.436  0.00  0.00    +0.000 A 
ATOM      6  C   UNL     1     111.761 129.098 138.644  0.00  0.00    +0.000 A 
ATOM      7  C   UNL     1     112.721 127.884 139.215  0.00  0.00    +0.000 A 
ATOM      8  C   UNL     1     112.512 128.512 139.708  0.00  0.00    +0.000 A 
ATOM      9  C   UNL     1     112.032 129.118 139.422  0.00  0.00    +0.000 A 
ATOM     10  C   UNL     1     113.222 127.259 139.524  0.00  0.00    +0.000 A 
ATOM     11  C   UNL     1     113.161 126.580 138.204  0.00  0.00    +0.000 A 
ATOM     12  C   UNL     1     113.444 126.602 139.016  0.00  0.00    +0.000 A 
ENDROOT
BRANCH   4  18
ATOM     13  O   UNL     1     111.124 127.900 137.149  0.00  0.00    +0.000 OA
ATOM     14  O   UNL     1     112.034 129.485 135.480  0.00  0.00    +0.000 OA
ATOM     15  O   UNL     1     110.886 128.387 135.035  0.00  0.00    +0.000 OA
ATOM     16  C   UNL     1     112.002 128.978 136.815  0.00  0.00    +0.000 C 
ATOM     17  C   UNL     1     111.731 128.957 136.035  0.00  0.00    +0.000 C 
ATOM     18  C   UNL     1     111.698 128.449 137.371  0.00  0.00    +0.000 C 
ATOM     19  C   UNL     1     111.156 128.408 135.813  0.00  0.00    +0.000 C 
ATOM     20  C   UNL     1     110.853 127.880 136.370  0.00  0.00    +0.000 C 
BRANCH  20  22
ATOM     21  O   UNL     1     109.657 127.153 136.661  0.00  0.00    +0.000 OA
ATOM     22  C   UNL     1     110.279 127.331 136.148  0.00  0.00    +0.000 C 
ENDBRANCH  20  22
BRANCH  16  23
ATOM     23  O   UNL     1     112.576 129.527 137.037  0.00  0.00    +0.000 OA
BRANCH  23  28
ATOM     24  O   UNL     1     113.577 128.998 136.165  0.00  0.00    +0.000 OA
ATOM     25  O   UNL     1     113.248 131.027 136.900  0.00  0.00    +0.000 OA
ATOM     26  O   UNL     1     114.585 131.249 135.959  0.00  0.00    +0.000 OA
ATOM     27  O   UNL     1     115.250 129.971 135.155  0.00  0.00    +0.000 OA
ATOM     28  C   UNL     1     113.245 129.637 136.567  0.00  0.00    +0.000 C 
ATOM     29  C   UNL     1     113.581 130.387 136.498  0.00  0.00    +0.000 C 
ATOM     30  C   UNL     1     114.249 130.499 136.028  0.00  0.00    +0.000 C 
ATOM     31  C   UNL     1     114.581 129.859 135.626  0.00  0.00    +0.000 C 
ATOM     32  C   UNL     1     114.245 129.109 135.695  0.00  0.00    +0.000 C 
ATOM     33  C   UNL     1     114.579 128.470 135.293  0.00  0.00    +0.000 C 
ENDBRANCH  23  28
ENDBRANCH  16  23
ENDBRANCH   4  18
BRANCH  11  35
ATOM     34  O   UNL     1     113.990 124.075 136.224  0.00  0.00    +0.000 OA
ATOM     35  C   UNL     1     113.369 125.954 137.710  0.00  0.00    +0.000 A 
ATOM     36  C   UNL     1     114.116 125.934 137.360  0.00  0.00    +0.000 A 
ATOM     37  C   UNL     1     112.829 125.348 137.563  0.00  0.00    +0.000 A 
ATOM     38  C   UNL     1     114.323 125.307 136.865  0.00  0.00    +0.000 A 
ATOM     39  C   UNL     1     113.036 124.721 137.068  0.00  0.00    +0.000 A 
ATOM     40  C   UNL     1     113.783 124.701 136.719  0.00  0.00    +0.000 A 
ENDBRANCH  11  35
BRANCH   8  41
ATOM     41  O   UNL     1     112.783 128.532 140.487  0.00  0.00    +0.000 OA
BRANCH  41  48
ATOM     42  O   UNL     1     113.727 129.605 140.436  0.00  0.00    +0.000 OA
ATOM     43  O   UNL     1     112.106 129.191 141.839  0.00  0.00    +0.000 OA
ATOM     44  O   UNL     1     112.711 130.593 142.465  0.00  0.00    +0.000 OA
ATOM     45  O   UNL     1     113.992 131.336 141.738  0.00  0.00    +0.000 OA
ATOM     46  C   UNL     1     112.748 129.563 141.476  0.00  0.00    +0.000 C 
ATOM     47  C   UNL     1     113.050 130.264 141.789  0.00  0.00    +0.000 C 
ATOM     48  C   UNL     1     113.086 129.233 140.799  0.00  0.00    +0.000 C 
ATOM     49  C   UNL     1     113.690 130.635 141.425  0.00  0.00    +0.000 C 
ATOM     50  C   UNL     1     114.029 130.306 140.749  0.00  0.00    +0.000 C 
BRANCH  50  52
ATOM     51  O   UNL     1     115.324 130.234 140.148  0.00  0.00    +0.000 OA
ATOM     52  C   UNL     1     114.669 130.677 140.385  0.00  0.00    +0.000 C 
ENDBRANCH  50  52
ENDBRANCH  41  48
ENDBRANCH   8  41
TORSDOF 8
ENDMDL
MODEL 5
REMARK VINA RESULT:     -11.1      1.012      2.599
REMARK  Name = 45360168
REMARK  8 active torsions:
REMARK  status: ('A' for Active; 'I' for Inactive)
REMARK    1  A    between atoms: O_1  and  C_20
REMARK    2  A    between atoms: O_1  and  C_25
REMARK    3  A    between atoms: O_10  and  C_36
REMARK    4  A    between atoms: O_10  and  C_41
REMARK    5  A    between atoms: C_22  and  C_28
REMARK    6  A    between atoms: C_24  and  C_31
REMARK    7  A    between atoms: C_40  and  C_43
REMARK    8  A    between atoms: C_45  and  C_47
REMARK                            x       y       z     vdW  Elec       q    Type
REMARK                         _______ _______ _______ _____ _____    ______ ____
ROOT
ATOM      1  O   UNL     1     112.683 129.119 139.141  0.00  0.00    +0.000 OA
ATOM      2  O   UNL     1     110.833 128.254 137.109  0.00  0.00    +0.000 OA
ATOM      3  O   UNL     1     113.110 126.695 139.735  0.00  0.00    +0.000 OA
ATOM      4  C   UNL     1     111.753 128.669 138.121  0.00  0.00    +0.000 A 
ATOM      5  C   UNL     1     112.283 128.483 138.724  0.00  0.00    +0.000 A 
ATOM      6  C   UNL     1     111.363 128.067 137.713  0.00  0.00    +0.000 A 
ATOM      7  C   UNL     1     112.425 127.694 138.920  0.00  0.00    +0.000 A 
ATOM      8  C   UNL     1     112.035 127.091 138.512  0.00  0.00    +0.000 A 
ATOM      9  C   UNL     1     111.505 127.279 137.908  0.00  0.00    +0.000 A 
ATOM     10  C   UNL     1     112.975 127.487 139.546  0.00  0.00    +0.000 A 
ATOM     11  C   UNL     1     113.237 128.931 139.771  0.00  0.00    +0.000 A 
ATOM     12  C   UNL     1     113.384 128.110 139.975  0.00  0.00    +0.000 A 
ENDROOT
BRANCH   4  18
ATOM     13  O   UNL     1     111.185 129.942 138.440  0.00  0.00    +0.000 OA
ATOM     14  O   UNL     1     112.042 130.859 136.307  0.00  0.00    +0.000 OA
ATOM     15  O   UNL     1     111.189 131.825 137.338  0.00  0.00    +0.000 OA
ATOM     16  C   UNL     1     111.898 129.764 137.214  0.00  0.00    +0.000 C 
ATOM     17  C   UNL     1     111.756 130.554 137.018  0.00  0.00    +0.000 C 
ATOM     18  C   UNL     1     111.612 129.459 137.925  0.00  0.00    +0.000 C 
ATOM     19  C   UNL     1     111.330 131.037 137.533  0.00  0.00    +0.000 C 
ATOM     20  C   UNL     1     111.044 130.730 138.244  0.00  0.00    +0.000 C 
BRANCH  20  22
ATOM     21  O   UNL     1     109.961 130.912 139.159  0.00  0.00    +0.000 OA
ATOM     22  C   UNL     1     110.617 131.213 138.759  0.00  0.00    +0.000 C 
ENDBRANCH  20  22
BRANCH  16  23
ATOM     23  O   UNL     1     112.324 129.281 136.699  0.00  0.00    +0.000 OA
BRANCH  23  28
ATOM     24  O   UNL     1     113.497 130.092 136.801  0.00  0.00    +0.000 OA
ATOM     25  O   UNL     1     112.844 128.713 135.240  0.00  0.00    +0.000 OA
ATOM     26  O   UNL     1     114.277 129.239 134.612  0.00  0.00    +0.000 OA
ATOM     27  O   UNL     1     115.190 130.333 135.444  0.00  0.00    +0.000 OA
ATOM     28  C   UNL     1     113.041 129.545 136.386  0.00  0.00    +0.000 C 
ATOM     29  C   UNL     1     113.301 129.260 135.656  0.00  0.00    +0.000 C 
ATOM     30  C   UNL     1     114.017 129.523 135.342  0.00  0.00    +0.000 C 
ATOM     31  C   UNL     1     114.473 130.070 135.758  0.00  0.00    +0.000 C 
ATOM     32  C   UNL     1     114.213 130.354 136.488  0.00  0.00    +0.000 C 
ATOM     33  C   UNL     1     114.669 130.902 136.903  0.00  0.00    +0.000 C 
ENDBRANCH  23  28
ENDBRANCH  16  23
ENDBRANCH   4  18
BRANCH  11  35
ATOM     34  O   UNL     1     114.788 131.348 141.396  0.00  0.00    +0.000 OA
ATOM     35  C   UNL     1     113.624 129.535 140.177  0.00  0.00    +0.000 A 
ATOM     36  C   UNL     1     114.374 129.781 139.935  0.00  0.00    +0.000 A 
ATOM     37  C   UNL     1     113.263 129.894 140.826  0.00  0.00    +0.000 A 
ATOM     38  C   UNL     1     114.761 130.385 140.342  0.00  0.00    +0.000 A 
ATOM     39  C   UNL     1     113.650 130.498 141.233  0.00  0.00    +0.000 A 
ATOM     40  C   UNL     1     114.400 130.744 140.990  0.00  0.00    +0.000 A 
ENDBRANCH  11  35
BRANCH   8  41
ATOM     41  O   UNL     1     112.177 126.303 138.708  0.00  0.00    +0.000 OA
BRANCH  41  48
ATOM     42  O   UNL     1     112.960 125.865 137.595  0.00  0.00    +0.000 OA
ATOM     43  O   UNL     1     111.214 124.972 138.554  0.00  0.00    +0.000 OA
ATOM     44  O   UNL     1     111.515 123.868 137.365  0.00  0.00    +0.000 OA
ATOM     45  O   UNL     1     112.779 124.096 136.330  0.00  0.00    +0.000 OA
ATOM     46  C   UNL     1     111.846 125.086 138.036  0.00  0.00    +0.000 C 
ATOM     47  C   UNL     1     111.997 124.534 137.441  0.00  0.00    +0.000 C 
ATOM     48  C   UNL     1     112.327 125.751 138.113  0.00  0.00    +0.000 C 
ATOM     49  C   UNL     1     112.628 124.648 136.924  0.00  0.00    +0.000 C 
ATOM     50  C   UNL     1     113.110 125.313 137.000  0.00  0.00    +0.000 C 
BRANCH  50  52
ATOM     51  O   UNL     1     114.429 125.801 136.745  0.00  0.00    +0.000 OA
ATOM     52  C   UNL     1     113.742 125.427 136.483  0.00  0.00    +0.000 C 
ENDBRANCH  50  52
ENDBRANCH  41  48
ENDBRANCH   8  41
TORSDOF 8
ENDMDL
MODEL 6
REMARK VINA RESULT:     -11.0      9.389     10.987
REMARK  Name = 45360168
REMARK  8 active torsions:
REMARK  status: ('A' for Active; 'I' for Inactive)
REMARK    1  A    between atoms: O_1  and  C_20
REMARK    2  A    between atoms: O_1  and  C_25
REMARK    3  A    between atoms: O_10  and  C_36
REMARK    4  A    between atoms: O_10  and  C_41
REMARK    5  A    between atoms: C_22  and  C_28
REMARK    6  A    between atoms: C_24  and  C_31
REMARK    7  A    between atoms: C_40  and  C_43
REMARK    8  A    between atoms: C_45  and  C_47
REMARK                            x       y       z     vdW  Elec       q    Type
REMARK                         _______ _______ _______ _____ _____    ______ ____
ROOT
ATOM      1  O   UNL     1     105.689 126.906 145.948  0.00  0.00    +0.000 OA
ATOM      2  O   UNL     1     106.484 124.386 144.799  0.00  0.00    +0.000 OA
ATOM      3  O   UNL     1     105.204 127.776 143.621  0.00  0.00    +0.000 OA
ATOM      4  C   UNL     1     106.087 125.641 145.355  0.00  0.00    +0.000 A 
ATOM      5  C   UNL     1     105.809 126.411 145.256  0.00  0.00    +0.000 A 
ATOM      6  C   UNL     1     106.206 125.157 144.698  0.00  0.00    +0.000 A 
ATOM      7  C   UNL     1     105.650 126.698 144.498  0.00  0.00    +0.000 A 
ATOM      8  C   UNL     1     105.769 126.214 143.841  0.00  0.00    +0.000 A 
ATOM      9  C   UNL     1     106.047 125.443 143.941  0.00  0.00    +0.000 A 
ATOM     10  C   UNL     1     105.361 127.497 144.381  0.00  0.00    +0.000 A 
ATOM     11  C   UNL     1     105.400 127.710 145.851  0.00  0.00    +0.000 A 
ATOM     12  C   UNL     1     105.234 128.007 145.062  0.00  0.00    +0.000 A 
ENDROOT
BRANCH   4  18
ATOM     13  O   UNL     1     106.900 125.634 146.531  0.00  0.00    +0.000 OA
ATOM     14  O   UNL     1     105.412 123.938 147.549  0.00  0.00    +0.000 OA
ATOM     15  O   UNL     1     106.721 124.496 148.385  0.00  0.00    +0.000 OA
ATOM     16  C   UNL     1     105.749 124.790 146.452  0.00  0.00    +0.000 C 
ATOM     17  C   UNL     1     105.908 124.503 147.210  0.00  0.00    +0.000 C 
ATOM     18  C   UNL     1     106.245 125.355 146.113  0.00  0.00    +0.000 C 
ATOM     19  C   UNL     1     106.562 124.782 147.628  0.00  0.00    +0.000 C 
ATOM     20  C   UNL     1     107.058 125.348 147.288  0.00  0.00    +0.000 C 
BRANCH  20  22
ATOM     21  O   UNL     1     108.421 125.780 147.310  0.00  0.00    +0.000 OA
ATOM     22  C   UNL     1     107.712 125.627 147.706  0.00  0.00    +0.000 C 
ENDBRANCH  20  22
BRANCH  16  23
ATOM     23  O   UNL     1     105.095 124.511 146.035  0.00  0.00    +0.000 OA
BRANCH  23  28
ATOM     24  O   UNL     1     104.105 125.000 146.941  0.00  0.00    +0.000 OA
ATOM     25  O   UNL     1     104.172 123.173 145.750  0.00  0.00    +0.000 OA
ATOM     26  O   UNL     1     102.721 122.994 146.514  0.00  0.00    +0.000 OA
ATOM     27  O   UNL     1     102.192 124.152 147.563  0.00  0.00    +0.000 OA
ATOM     28  C   UNL     1     104.369 124.422 146.417  0.00  0.00    +0.000 C 
ATOM     29  C   UNL     1     103.908 123.753 146.275  0.00  0.00    +0.000 C 
ATOM     30  C   UNL     1     103.182 123.663 146.656  0.00  0.00    +0.000 C 
ATOM     31  C   UNL     1     102.918 124.242 147.181  0.00  0.00    +0.000 C 
ATOM     32  C   UNL     1     103.380 124.911 147.323  0.00  0.00    +0.000 C 
ATOM     33  C   UNL     1     103.115 125.490 147.848  0.00  0.00    +0.000 C 
ENDBRANCH  23  28
ENDBRANCH  16  23
ENDBRANCH   4  18
BRANCH  11  35
ATOM     34  O   UNL     1     104.928 129.637 148.487  0.00  0.00    +0.000 OA
ATOM     35  C   UNL     1     105.281 128.191 146.509  0.00  0.00    +0.000 A 
ATOM     36  C   UNL     1     104.538 128.229 146.866  0.00  0.00    +0.000 A 
ATOM     37  C   UNL     1     105.907 128.635 146.813  0.00  0.00    +0.000 A 
ATOM     38  C   UNL     1     104.421 128.711 147.525  0.00  0.00    +0.000 A 
ATOM     39  C   UNL     1     105.789 129.118 147.472  0.00  0.00    +0.000 A 
ATOM     40  C   UNL     1     105.046 129.155 147.828  0.00  0.00    +0.000 A 
ENDBRANCH  11  35
BRANCH   8  41
ATOM     41  O   UNL     1     105.611 126.500 143.084  0.00  0.00    +0.000 OA
BRANCH  41  48
ATOM     42  O   UNL     1     106.926 126.651 142.545  0.00  0.00    +0.000 OA
ATOM     43  O   UNL     1     105.145 125.694 141.722  0.00  0.00    +0.000 OA
ATOM     44  O   UNL     1     106.226 125.442 140.501  0.00  0.00    +0.000 OA
ATOM     45  O   UNL     1     107.774 125.997 140.643  0.00  0.00    +0.000 OA
ATOM     46  C   UNL     1     105.919 125.971 141.793  0.00  0.00    +0.000 C 
ATOM     47  C   UNL     1     106.460 125.845 141.182  0.00  0.00    +0.000 C 
ATOM     48  C   UNL     1     106.152 126.374 142.474  0.00  0.00    +0.000 C 
ATOM     49  C   UNL     1     107.233 126.122 141.254  0.00  0.00    +0.000 C 
ATOM     50  C   UNL     1     107.467 126.525 141.935  0.00  0.00    +0.000 C 
BRANCH  50  52
ATOM     51  O   UNL     1     108.402 127.458 142.480  0.00  0.00    +0.000 OA
ATOM     52  C   UNL     1     108.240 126.802 142.006  0.00  0.00    +0.000 C 
ENDBRANCH  50  52
ENDBRANCH  41  48
ENDBRANCH   8  41
TORSDOF 8
ENDMDL
MODEL 7
REMARK VINA RESULT:     -10.9      1.435      4.752
REMARK  Name = 45360168
REMARK  8 active torsions:
REMARK  status: ('A' for Active; 'I' for Inactive)
REMARK    1  A    between atoms: O_1  and  C_20
REMARK    2  A    between atoms: O_1  and  C_25
REMARK    3  A    between atoms: O_10  and  C_36
REMARK    4  A    between atoms: O_10  and  C_41
REMARK    5  A    between atoms: C_22  and  C_28
REMARK    6  A    between atoms: C_24  and  C_31
REMARK    7  A    between atoms: C_40  and  C_43
REMARK    8  A    between atoms: C_45  and  C_47
REMARK                            x       y       z     vdW  Elec       q    Type
REMARK                         _______ _______ _______ _____ _____    ______ ____
ROOT
ATOM      1  O   UNL     1     112.519 129.658 137.953  0.00  0.00    +0.000 OA
ATOM      2  O   UNL     1     111.126 128.742 135.604  0.00  0.00    +0.000 OA
ATOM      3  O   UNL     1     110.436 130.913 138.658  0.00  0.00    +0.000 OA
ATOM      4  C   UNL     1     111.805 129.203 136.773  0.00  0.00    +0.000 A 
ATOM      5  C   UNL     1     111.807 129.639 137.474  0.00  0.00    +0.000 A 
ATOM      6  C   UNL     1     111.126 129.178 136.305  0.00  0.00    +0.000 A 
ATOM      7  C   UNL     1     111.129 130.049 137.706  0.00  0.00    +0.000 A 
ATOM      8  C   UNL     1     110.450 130.023 137.237  0.00  0.00    +0.000 A 
ATOM      9  C   UNL     1     110.450 129.587 136.537  0.00  0.00    +0.000 A 
ATOM     10  C   UNL     1     111.118 130.506 138.433  0.00  0.00    +0.000 A 
ATOM     11  C   UNL     1     112.527 130.110 138.685  0.00  0.00    +0.000 A 
ATOM     12  C   UNL     1     111.822 130.537 138.926  0.00  0.00    +0.000 A 
ENDROOT
BRANCH   4  18
ATOM     13  O   UNL     1     113.017 129.141 136.018  0.00  0.00    +0.000 OA
ATOM     14  O   UNL     1     113.445 126.866 136.893  0.00  0.00    +0.000 OA
ATOM     15  O   UNL     1     114.514 127.562 135.847  0.00  0.00    +0.000 OA
ATOM     16  C   UNL     1     112.625 128.035 136.833  0.00  0.00    +0.000 C 
ATOM     17  C   UNL     1     113.303 127.624 136.601  0.00  0.00    +0.000 C 
ATOM     18  C   UNL     1     112.483 128.793 136.541  0.00  0.00    +0.000 C 
ATOM     19  C   UNL     1     113.837 127.972 136.078  0.00  0.00    +0.000 C 
ATOM     20  C   UNL     1     113.694 128.731 135.787  0.00  0.00    +0.000 C 
BRANCH  20  22
ATOM     21  O   UNL     1     114.362 129.894 135.291  0.00  0.00    +0.000 OA
ATOM     22  C   UNL     1     114.228 129.079 135.264  0.00  0.00    +0.000 C 
ENDBRANCH  20  22
BRANCH  16  23
ATOM     23  O   UNL     1     112.090 127.686 137.356  0.00  0.00    +0.000 OA
BRANCH  23  28
ATOM     24  O   UNL     1     111.687 126.634 136.478  0.00  0.00    +0.000 OA
ATOM     25  O   UNL     1     111.927 126.671 138.647  0.00  0.00    +0.000 OA
ATOM     26  O   UNL     1     111.441 125.111 138.413  0.00  0.00    +0.000 OA
ATOM     27  O   UNL     1     111.119 124.567 136.889  0.00  0.00    +0.000 OA
ATOM     28  C   UNL     1     111.848 126.906 137.239  0.00  0.00    +0.000 C 
ATOM     29  C   UNL     1     111.766 126.399 137.884  0.00  0.00    +0.000 C 
ATOM     30  C   UNL     1     111.523 125.619 137.768  0.00  0.00    +0.000 C 
ATOM     31  C   UNL     1     111.362 125.348 137.006  0.00  0.00    +0.000 C 
ATOM     32  C   UNL     1     111.444 125.855 136.361  0.00  0.00    +0.000 C 
ATOM     33  C   UNL     1     111.283 125.583 135.599  0.00  0.00    +0.000 C 
ENDBRANCH  23  28
ENDBRANCH  16  23
ENDBRANCH   4  18
BRANCH  11  35
ATOM     34  O   UNL     1     115.246 130.205 140.551  0.00  0.00    +0.000 OA
ATOM     35  C   UNL     1     113.206 130.134 139.151  0.00  0.00    +0.000 A 
ATOM     36  C   UNL     1     113.837 130.622 138.937  0.00  0.00    +0.000 A 
ATOM     37  C   UNL     1     113.256 129.670 139.831  0.00  0.00    +0.000 A 
ATOM     38  C   UNL     1     114.517 130.645 139.404  0.00  0.00    +0.000 A 
ATOM     39  C   UNL     1     113.936 129.693 140.298  0.00  0.00    +0.000 A 
ATOM     40  C   UNL     1     114.566 130.181 140.084  0.00  0.00    +0.000 A 
ENDBRANCH  11  35
BRANCH   8  41
ATOM     41  O   UNL     1     109.774 130.433 137.469  0.00  0.00    +0.000 OA
BRANCH  41  48
ATOM     42  O   UNL     1     109.694 131.523 136.548  0.00  0.00    +0.000 OA
ATOM     43  O   UNL     1     108.225 130.004 137.096  0.00  0.00    +0.000 OA
ATOM     44  O   UNL     1     107.370 130.879 135.989  0.00  0.00    +0.000 OA
ATOM     45  O   UNL     1     108.064 132.183 135.254  0.00  0.00    +0.000 OA
ATOM     46  C   UNL     1     108.572 130.657 136.729  0.00  0.00    +0.000 C 
ATOM     47  C   UNL     1     108.145 131.094 136.175  0.00  0.00    +0.000 C 
ATOM     48  C   UNL     1     109.346 130.871 136.915  0.00  0.00    +0.000 C 
ATOM     49  C   UNL     1     108.492 131.745 135.808  0.00  0.00    +0.000 C 
ATOM     50  C   UNL     1     109.266 131.961 135.994  0.00  0.00    +0.000 C 
BRANCH  50  52
ATOM     51  O   UNL     1     110.057 133.149 136.070  0.00  0.00    +0.000 OA
ATOM     52  C   UNL     1     109.613 132.612 135.627  0.00  0.00    +0.000 C 
ENDBRANCH  50  52
ENDBRANCH  41  48
ENDBRANCH   8  41
TORSDOF 8
ENDMDL
MODEL 8
REMARK VINA RESULT:     -10.9      1.593      4.425
REMARK  Name = 45360168
REMARK  8 active torsions:
REMARK  status: ('A' for Active; 'I' for Inactive)
REMARK    1  A    between atoms: O_1  and  C_20
REMARK    2  A    between atoms: O_1  and  C_25
REMARK    3  A    between atoms: O_10  and  C_36
REMARK    4  A    between atoms: O_10  and  C_41
REMARK    5  A    between atoms: C_22  and  C_28
REMARK    6  A    between atoms: C_24  and  C_31
REMARK    7  A    between atoms: C_40  and  C_43
REMARK    8  A    between atoms: C_45  and  C_47
REMARK                            x       y       z     vdW  Elec       q    Type
REMARK                         _______ _______ _______ _____ _____    ______ ____
ROOT
ATOM      1  O   UNL     1     112.566 127.990 138.010  0.00  0.00    +0.000 OA
ATOM      2  O   UNL     1     111.866 130.764 137.667  0.00  0.00    +0.000 OA
ATOM      3  O   UNL     1     112.132 128.223 140.493  0.00  0.00    +0.000 OA
ATOM      4  C   UNL     1     112.211 129.389 137.852  0.00  0.00    +0.000 A 
ATOM      5  C   UNL     1     112.313 128.738 138.348  0.00  0.00    +0.000 A 
ATOM      6  C   UNL     1     111.968 130.113 138.164  0.00  0.00    +0.000 A 
ATOM      7  C   UNL     1     112.172 128.812 139.158  0.00  0.00    +0.000 A 
ATOM      8  C   UNL     1     111.929 129.535 139.471  0.00  0.00    +0.000 A 
ATOM      9  C   UNL     1     111.827 130.186 138.974  0.00  0.00    +0.000 A 
ATOM     10  C   UNL     1     112.274 128.142 139.685  0.00  0.00    +0.000 A 
ATOM     11  C   UNL     1     112.674 127.308 138.522  0.00  0.00    +0.000 A 
ATOM     12  C   UNL     1     112.527 127.384 139.365  0.00  0.00    +0.000 A 
ENDROOT
BRANCH   4  18
ATOM     13  O   UNL     1     113.093 129.504 136.733  0.00  0.00    +0.000 OA
ATOM     14  O   UNL     1     111.289 128.720 135.230  0.00  0.00    +0.000 OA
ATOM     15  O   UNL     1     112.773 129.097 134.613  0.00  0.00    +0.000 OA
ATOM     16  C   UNL     1     111.750 129.055 136.541  0.00  0.00    +0.000 C 
ATOM     17  C   UNL     1     111.891 128.982 135.730  0.00  0.00    +0.000 C 
ATOM     18  C   UNL     1     112.351 129.316 137.041  0.00  0.00    +0.000 C 
ATOM     19  C   UNL     1     112.632 129.170 135.422  0.00  0.00    +0.000 C 
ATOM     20  C   UNL     1     113.233 129.431 135.924  0.00  0.00    +0.000 C 
BRANCH  20  22
ATOM     21  O   UNL     1     114.585 129.853 136.120  0.00  0.00    +0.000 OA
ATOM     22  C   UNL     1     113.975 129.619 135.615  0.00  0.00    +0.000 C 
ENDBRANCH  20  22
BRANCH  16  23
ATOM     23  O   UNL     1     111.008 128.867 136.849  0.00  0.00    +0.000 OA
BRANCH  23  28
ATOM     24  O   UNL     1     110.325 129.912 136.154  0.00  0.00    +0.000 OA
ATOM     25  O   UNL     1     109.645 127.939 136.796  0.00  0.00    +0.000 OA
ATOM     26  O   UNL     1     108.280 128.520 136.074  0.00  0.00    +0.000 OA
ATOM     27  O   UNL     1     108.278 130.029 135.405  0.00  0.00    +0.000 OA
ATOM     28  C   UNL     1     110.326 129.158 136.488  0.00  0.00    +0.000 C 
ATOM     29  C   UNL     1     109.644 128.694 136.461  0.00  0.00    +0.000 C 
ATOM     30  C   UNL     1     108.961 128.984 136.101  0.00  0.00    +0.000 C 
ATOM     31  C   UNL     1     108.961 129.738 135.767  0.00  0.00    +0.000 C 
ATOM     32  C   UNL     1     109.643 130.202 135.793  0.00  0.00    +0.000 C 
ATOM     33  C   UNL     1     109.641 130.956 135.459  0.00  0.00    +0.000 C 
ENDBRANCH  23  28
ENDBRANCH  16  23
ENDBRANCH   4  18
BRANCH  11  35
ATOM     34  O   UNL     1     113.645 124.419 137.260  0.00  0.00    +0.000 OA
ATOM     35  C   UNL     1     112.916 126.586 138.207  0.00  0.00    +0.000 A 
ATOM     36  C   UNL     1     112.355 126.027 137.975  0.00  0.00    +0.000 A 
ATOM     37  C   UNL     1     113.720 126.422 138.122  0.00  0.00    +0.000 A 
ATOM     38  C   UNL     1     112.598 125.305 137.659  0.00  0.00    +0.000 A 
ATOM     39  C   UNL     1     113.964 125.700 137.807  0.00  0.00    +0.000 A 
ATOM     40  C   UNL     1     113.402 125.141 137.575  0.00  0.00    +0.000 A 
ENDBRANCH  11  35
BRANCH   8  41
ATOM     41  O   UNL     1     111.789 129.608 140.280  0.00  0.00    +0.000 OA
BRANCH  41  48
ATOM     42  O   UNL     1     110.367 129.763 140.277  0.00  0.00    +0.000 OA
ATOM     43  O   UNL     1     111.922 130.851 141.357  0.00  0.00    +0.000 OA
ATOM     44  O   UNL     1     110.568 131.628 141.892  0.00  0.00    +0.000 OA
ATOM     45  O   UNL     1     109.081 131.161 141.351  0.00  0.00    +0.000 OA
ATOM     46  C   UNL     1     111.178 130.618 141.086  0.00  0.00    +0.000 C 
ATOM     47  C   UNL     1     110.501 131.006 141.354  0.00  0.00    +0.000 C 
ATOM     48  C   UNL     1     111.112 129.996 140.548  0.00  0.00    +0.000 C 
ATOM     49  C   UNL     1     109.758 130.773 141.083  0.00  0.00    +0.000 C 
ATOM     50  C   UNL     1     109.691 130.151 140.544  0.00  0.00    +0.000 C 
BRANCH  50  52
ATOM     51  O   UNL     1     108.793 129.121 140.126  0.00  0.00    +0.000 OA
ATOM     52  C   UNL     1     108.948 129.918 140.274  0.00  0.00    +0.000 C 
ENDBRANCH  50  52
ENDBRANCH  41  48
ENDBRANCH   8  41
TORSDOF 8
ENDMDL
MODEL 9
REMARK VINA RESULT:     -10.8      1.704      5.574
REMARK  Name = 45360168
REMARK  8 active torsions:
REMARK  status: ('A' for Active; 'I' for Inactive)
REMARK    1  A    between atoms: O_1  and  C_20
REMARK    2  A    between atoms: O_1  and  C_25
REMARK    3  A    between atoms: O_10  and  C_36
REMARK    4  A    between atoms: O_10  and  C_41
REMARK    5  A    between atoms: C_22  and  C_28
REMARK    6  A    between atoms: C_24  and  C_31
REMARK    7  A    between atoms: C_40  and  C_43
REMARK    8  A    between atoms: C_45  and  C_47
REMARK                            x       y       z     vdW  Elec       q    Type
REMARK                         _______ _______ _______ _____ _____    ______ ____
ROOT
ATOM      1  O   UNL     1     111.046 126.469 137.691  0.00  0.00    +0.000 OA
ATOM      2  O   UNL     1     109.614 128.516 139.127  0.00  0.00    +0.000 OA
ATOM      3  O   UNL     1     110.070 127.352 135.528  0.00  0.00    +0.000 OA
ATOM      4  C   UNL     1     110.319 127.506 138.402  0.00  0.00    +0.000 A 
ATOM      5  C   UNL     1     110.513 127.143 137.687  0.00  0.00    +0.000 A 
ATOM      6  C   UNL     1     109.808 128.154 138.411  0.00  0.00    +0.000 A 
ATOM      7  C   UNL     1     110.196 127.429 136.980  0.00  0.00    +0.000 A 
ATOM      8  C   UNL     1     109.686 128.077 136.989  0.00  0.00    +0.000 A 
ATOM      9  C   UNL     1     109.492 128.439 137.705  0.00  0.00    +0.000 A 
ATOM     10  C   UNL     1     110.391 127.060 136.230  0.00  0.00    +0.000 A 
ATOM     11  C   UNL     1     111.252 126.087 136.949  0.00  0.00    +0.000 A 
ATOM     12  C   UNL     1     110.922 126.384 136.214  0.00  0.00    +0.000 A 
ENDROOT
BRANCH   4  18
ATOM     13  O   UNL     1     110.207 126.683 139.565  0.00  0.00    +0.000 OA
ATOM     14  O   UNL     1     112.441 127.439 140.315  0.00  0.00    +0.000 OA
ATOM     15  O   UNL     1     111.585 126.364 141.227  0.00  0.00    +0.000 OA
ATOM     16  C   UNL     1     111.380 127.473 139.358  0.00  0.00    +0.000 C 
ATOM     17  C   UNL     1     111.697 127.187 140.065  0.00  0.00    +0.000 C 
ATOM     18  C   UNL     1     110.635 127.220 139.109  0.00  0.00    +0.000 C 
ATOM     19  C   UNL     1     111.269 126.649 140.522  0.00  0.00    +0.000 C 
ATOM     20  C   UNL     1     110.524 126.397 140.271  0.00  0.00    +0.000 C 
BRANCH  20  22
ATOM     21  O   UNL     1     109.686 125.242 140.363  0.00  0.00    +0.000 OA
ATOM     22  C   UNL     1     110.096 125.860 140.728  0.00  0.00    +0.000 C 
ENDBRANCH  20  22
BRANCH  16  23
ATOM     23  O   UNL     1     111.808 128.010 138.902  0.00  0.00    +0.000 OA
BRANCH  23  28
ATOM     24  O   UNL     1     111.742 129.056 139.874  0.00  0.00    +0.000 OA
ATOM     25  O   UNL     1     113.253 128.599 138.366  0.00  0.00    +0.000 OA
ATOM     26  O   UNL     1     113.910 129.939 139.070  0.00  0.00    +0.000 OA
ATOM     27  O   UNL     1     113.122 130.691 140.309  0.00  0.00    +0.000 OA
ATOM     28  C   UNL     1     112.136 128.681 139.254  0.00  0.00    +0.000 C 
ATOM     29  C   UNL     1     112.859 128.975 138.986  0.00  0.00    +0.000 C 
ATOM     30  C   UNL     1     113.188 129.645 139.338  0.00  0.00    +0.000 C 
ATOM     31  C   UNL     1     112.793 130.020 139.957  0.00  0.00    +0.000 C 
ATOM     32  C   UNL     1     112.070 129.726 140.225  0.00  0.00    +0.000 C 
ATOM     33  C   UNL     1     111.676 130.102 140.845  0.00  0.00    +0.000 C 
ENDBRANCH  23  28
ENDBRANCH  16  23
ENDBRANCH   4  18
BRANCH  11  35
ATOM     34  O   UNL     1     113.294 123.496 136.926  0.00  0.00    +0.000 OA
ATOM     35  C   UNL     1     111.762 125.440 136.943  0.00  0.00    +0.000 A 
ATOM     36  C   UNL     1     112.565 125.548 136.785  0.00  0.00    +0.000 A 
ATOM     37  C   UNL     1     111.471 124.683 137.096  0.00  0.00    +0.000 A 
ATOM     38  C   UNL     1     113.075 124.899 136.779  0.00  0.00    +0.000 A 
ATOM     39  C   UNL     1     111.981 124.035 137.091  0.00  0.00    +0.000 A 
ATOM     40  C   UNL     1     112.783 124.143 136.932  0.00  0.00    +0.000 A 
ENDBRANCH  11  35
BRANCH   8  41
ATOM     41  O   UNL     1     109.370 128.362 136.283  0.00  0.00    +0.000 OA
BRANCH  41  48
ATOM     42  O   UNL     1     110.035 129.626 136.218  0.00  0.00    +0.000 OA
ATOM     43  O   UNL     1     107.954 129.084 135.838  0.00  0.00    +0.000 OA
ATOM     44  O   UNL     1     107.912 130.708 135.550  0.00  0.00    +0.000 OA
ATOM     45  O   UNL     1     109.284 131.610 135.707  0.00  0.00    +0.000 OA
ATOM     46  C   UNL     1     108.641 129.536 135.917  0.00  0.00    +0.000 C 
ATOM     47  C   UNL     1     108.620 130.348 135.773  0.00  0.00    +0.000 C 
ATOM     48  C   UNL     1     109.348 129.174 136.139  0.00  0.00    +0.000 C 
ATOM     49  C   UNL     1     109.306 130.798 135.851  0.00  0.00    +0.000 C 
ATOM     50  C   UNL     1     110.014 130.438 136.074  0.00  0.00    +0.000 C 
BRANCH  50  52
ATOM     51  O   UNL     1     111.440 130.525 136.113  0.00  0.00    +0.000 OA
ATOM     52  C   UNL     1     110.700 130.888 136.153  0.00  0.00    +0.000 C 
ENDBRANCH  50  52
ENDBRANCH  41  48
ENDBRANCH   8  41
TORSDOF 8
ENDMDL
MODEL 10
REMARK VINA RESULT:     -10.7      2.233      4.250
REMARK  Name = 45360168
REMARK  8 active torsions:
REMARK  status: ('A' for Active; 'I' for Inactive)
REMARK    1  A    between atoms: O_1  and  C_20
REMARK    2  A    between atoms: O_1  and  C_25
REMARK    3  A    between atoms: O_10  and  C_36
REMARK    4  A    between atoms: O_10  and  C_41
REMARK    5  A    between atoms: C_22  and  C_28
REMARK    6  A    between atoms: C_24  and  C_31
REMARK    7  A    between atoms: C_40  and  C_43
REMARK    8  A    between atoms: C_45  and  C_47
REMARK                            x       y       z     vdW  Elec       q    Type
REMARK                         _______ _______ _______ _____ _____    ______ ____
ROOT
ATOM      1  O   UNL     1     112.722 127.013 137.768  0.00  0.00    +0.000 OA
ATOM      2  O   UNL     1     111.275 129.410 138.447  0.00  0.00    +0.000 OA
ATOM      3  O   UNL     1     112.411 126.194 140.143  0.00  0.00    +0.000 OA
ATOM      4  C   UNL     1     111.991 128.217 138.124  0.00  0.00    +0.000 A 
ATOM      5  C   UNL     1     112.299 127.485 138.348  0.00  0.00    +0.000 A 
ATOM      6  C   UNL     1     111.582 128.678 138.672  0.00  0.00    +0.000 A 
ATOM      7  C   UNL     1     112.199 127.215 139.122  0.00  0.00    +0.000 A 
ATOM      8  C   UNL     1     111.791 127.677 139.670  0.00  0.00    +0.000 A 
ATOM      9  C   UNL     1     111.483 128.409 139.445  0.00  0.00    +0.000 A 
ATOM     10  C   UNL     1     112.515 126.456 139.368  0.00  0.00    +0.000 A 
ATOM     11  C   UNL     1     113.045 126.250 137.996  0.00  0.00    +0.000 A 
ATOM     12  C   UNL     1     112.941 125.969 138.801  0.00  0.00    +0.000 A 
ENDROOT
BRANCH   4  18
ATOM     13  O   UNL     1     112.832 128.743 137.095  0.00  0.00    +0.000 OA
ATOM     14  O   UNL     1     110.907 128.781 135.540  0.00  0.00    +0.000 OA
ATOM     15  O   UNL     1     112.390 129.294 135.030  0.00  0.00    +0.000 OA
ATOM     16  C   UNL     1     111.449 128.499 136.832  0.00  0.00    +0.000 C 
ATOM     17  C   UNL     1     111.549 128.769 136.058  0.00  0.00    +0.000 C 
ATOM     18  C   UNL     1     112.091 128.486 137.350  0.00  0.00    +0.000 C 
ATOM     19  C   UNL     1     112.290 129.025 135.803  0.00  0.00    +0.000 C 
ATOM     20  C   UNL     1     112.932 129.012 136.322  0.00  0.00    +0.000 C 
BRANCH  20  22
ATOM     21  O   UNL     1     114.117 129.781 136.538  0.00  0.00    +0.000 OA
ATOM     22  C   UNL     1     113.673 129.269 136.067  0.00  0.00    +0.000 C 
ENDBRANCH  20  22
BRANCH  16  23
ATOM     23  O   UNL     1     110.707 128.242 137.087  0.00  0.00    +0.000 OA
BRANCH  23  28
ATOM     24  O   UNL     1     110.625 127.160 136.157  0.00  0.00    +0.000 OA
ATOM     25  O   UNL     1     109.067 128.414 137.032  0.00  0.00    +0.000 OA
ATOM     26  O   UNL     1     108.165 127.418 136.074  0.00  0.00    +0.000 OA
ATOM     27  O   UNL     1     108.903 126.250 135.172  0.00  0.00    +0.000 OA
ATOM     28  C   UNL     1     110.257 127.744 136.608  0.00  0.00    +0.000 C 
ATOM     29  C   UNL     1     109.437 127.830 136.580  0.00  0.00    +0.000 C 
ATOM     30  C   UNL     1     108.985 127.332 136.102  0.00  0.00    +0.000 C 
ATOM     31  C   UNL     1     109.355 126.749 135.651  0.00  0.00    +0.000 C 
ATOM     32  C   UNL     1     110.175 126.663 135.679  0.00  0.00    +0.000 C 
ATOM     33  C   UNL     1     110.543 126.078 135.227  0.00  0.00    +0.000 C 
ENDBRANCH  23  28
ENDBRANCH  16  23
ENDBRANCH   4  18
BRANCH  11  35
ATOM     34  O   UNL     1     114.675 124.411 135.794  0.00  0.00    +0.000 OA
ATOM     35  C   UNL     1     113.453 125.791 137.446  0.00  0.00    +0.000 A 
ATOM     36  C   UNL     1     114.239 125.963 137.265  0.00  0.00    +0.000 A 
ATOM     37  C   UNL     1     113.074 125.158 137.076  0.00  0.00    +0.000 A 
ATOM     38  C   UNL     1     114.646 125.503 136.714  0.00  0.00    +0.000 A 
ATOM     39  C   UNL     1     113.481 124.698 136.525  0.00  0.00    +0.000 A 
ATOM     40  C   UNL     1     114.267 124.871 136.345  0.00  0.00    +0.000 A 
ENDBRANCH  11  35
BRANCH   8  41
ATOM     41  O   UNL     1     111.691 127.408 140.443  0.00  0.00    +0.000 OA
BRANCH  41  48
ATOM     42  O   UNL     1     110.282 127.166 140.406  0.00  0.00    +0.000 OA
ATOM     43  O   UNL     1     111.539 128.057 141.952  0.00  0.00    +0.000 OA
ATOM     44  O   UNL     1     110.056 128.140 142.670  0.00  0.00    +0.000 OA
ATOM     45  O   UNL     1     108.724 127.573 141.878  0.00  0.00    +0.000 OA
ATOM     46  C   UNL     1     110.873 127.774 141.556  0.00  0.00    +0.000 C 
ATOM     47  C   UNL     1     110.131 127.815 141.915  0.00  0.00    +0.000 C 
ATOM     48  C   UNL     1     110.949 127.449 140.802  0.00  0.00    +0.000 C 
ATOM     49  C   UNL     1     109.466 127.532 141.519  0.00  0.00    +0.000 C 
ATOM     50  C   UNL     1     109.541 127.207 140.764  0.00  0.00    +0.000 C 
BRANCH  50  52
ATOM     51  O   UNL     1     108.946 126.296 139.838  0.00  0.00    +0.000 OA
ATOM     52  C   UNL     1     108.875 126.924 140.368  0.00  0.00    +0.000 C 
ENDBRANCH  50  52
ENDBRANCH  41  48
ENDBRANCH   8  41
TORSDOF 8
ENDMDL
