MODEL 1
REMARK VINA RESULT:      -9.5      0.000      0.000
REMARK  Name = 131835731
REMARK  3 active torsions:
REMARK  status: ('A' for Active; 'I' for Inactive)
REMARK    1  A    between atoms: S_1  and  O_3
REMARK    2  A    between atoms: O_3  and  C_15
REMARK    3  A    between atoms: C_14  and  C_16
REMARK                            x       y       z     vdW  Elec       q    Type
REMARK                         _______ _______ _______ _____ _____    ______ ____
ROOT
ATOM      1  O   UNL     1     105.188 124.232 147.190  0.00  0.00    +0.000 OA
ATOM      2  O   UNL     1     106.491 125.348 145.407  0.00  0.00    +0.000 OA
ATOM      3  O   UNL     1     107.553 125.654 146.334  0.00  0.00    +0.000 OA
ATOM      4  O   UNL     1     108.180 125.576 147.901  0.00  0.00    +0.000 OA
ATOM      5  O   UNL     1     107.290 124.815 149.119  0.00  0.00    +0.000 OA
ATOM      6  C   UNL     1     104.886 124.273 146.423  0.00  0.00    +0.000 C 
ATOM      7  C   UNL     1     105.321 124.645 145.828  0.00  0.00    +0.000 C 
ATOM      8  C   UNL     1     106.057 124.976 146.001  0.00  0.00    +0.000 C 
ATOM      9  C   UNL     1     106.358 124.935 146.767  0.00  0.00    +0.000 A 
ATOM     10  C   UNL     1     105.923 124.563 147.362  0.00  0.00    +0.000 A 
ATOM     11  C   UNL     1     107.126 125.284 146.935  0.00  0.00    +0.000 A 
ATOM     12  C   UNL     1     106.227 124.514 148.165  0.00  0.00    +0.000 A 
ATOM     13  C   UNL     1     107.444 125.244 147.731  0.00  0.00    +0.000 A 
ATOM     14  C   UNL     1     106.992 124.857 148.350  0.00  0.00    +0.000 A 
ENDROOT
BRANCH   6  18
ATOM     15  O   UNL     1     103.503 125.064 146.853  0.00  0.00    +0.000 OA
ATOM     16  O   UNL     1     102.033 124.400 146.509  0.00  0.00    +0.000 OA
ATOM     17  O   UNL     1     101.944 122.945 145.734  0.00  0.00    +0.000 OA
ATOM     18  C   UNL     1     104.151 123.942 146.251  0.00  0.00    +0.000 A 
ATOM     19  C   UNL     1     103.459 124.337 146.466  0.00  0.00    +0.000 A 
ATOM     20  C   UNL     1     104.107 123.214 145.863  0.00  0.00    +0.000 A 
ATOM     21  C   UNL     1     102.724 124.005 146.294  0.00  0.00    +0.000 A 
ATOM     22  C   UNL     1     103.371 122.883 145.692  0.00  0.00    +0.000 A 
ATOM     23  C   UNL     1     102.680 123.278 145.907  0.00  0.00    +0.000 A 
ENDBRANCH   6  18
BRANCH   7  24
ATOM     24  O   UNL     1     105.020 124.685 145.062  0.00  0.00    +0.000 OA
BRANCH  24  25
ATOM     25  S   UNL     1     105.523 124.851 144.429  0.00  0.00    +0.000 S 
ATOM     26  O   UNL     1     106.026 125.016 143.797  0.00  0.00    +0.000 OA
ATOM     27  O   UNL     1     105.813 124.079 144.458  0.00  0.00    +0.000 OA
ATOM     28  O   UNL     1     105.233 125.622 144.400  0.00  0.00    +0.000 OA
ENDBRANCH  24  25
ENDBRANCH   7  24
TORSDOF 3
ENDMDL
MODEL 2
REMARK VINA RESULT:      -9.2      1.607      4.550
REMARK  Name = 131835731
REMARK  3 active torsions:
REMARK  status: ('A' for Active; 'I' for Inactive)
REMARK    1  A    between atoms: S_1  and  O_3
REMARK    2  A    between atoms: O_3  and  C_15
REMARK    3  A    between atoms: C_14  and  C_16
REMARK                            x       y       z     vdW  Elec       q    Type
REMARK                         _______ _______ _______ _____ _____    ______ ____
ROOT
ATOM      1  O   UNL     1     105.156 124.190 147.097  0.00  0.00    +0.000 OA
ATOM      2  O   UNL     1     103.495 125.639 148.223  0.00  0.00    +0.000 OA
ATOM      3  O   UNL     1     102.436 125.120 147.392  0.00  0.00    +0.000 OA
ATOM      4  O   UNL     1     101.937 124.086 146.152  0.00  0.00    +0.000 OA
ATOM      5  O   UNL     1     103.071 123.097 145.383  0.00  0.00    +0.000 OA
ATOM      6  C   UNL     1     105.394 124.698 147.704  0.00  0.00    +0.000 C 
ATOM      7  C   UNL     1     104.840 125.181 148.079  0.00  0.00    +0.000 C 
ATOM      8  C   UNL     1     104.048 125.156 147.848  0.00  0.00    +0.000 C 
ATOM      9  C   UNL     1     103.810 124.650 147.242  0.00  0.00    +0.000 A 
ATOM     10  C   UNL     1     104.364 124.167 146.867  0.00  0.00    +0.000 A 
ATOM     11  C   UNL     1     102.983 124.634 147.011  0.00  0.00    +0.000 A 
ATOM     12  C   UNL     1     104.128 123.635 146.234  0.00  0.00    +0.000 A 
ATOM     13  C   UNL     1     102.729 124.108 146.381  0.00  0.00    +0.000 A 
ATOM     14  C   UNL     1     103.306 123.605 145.990  0.00  0.00    +0.000 A 
ENDROOT
BRANCH   6  18
ATOM     15  O   UNL     1     106.506 125.468 146.759  0.00  0.00    +0.000 OA
ATOM     16  O   UNL     1     108.090 125.514 147.220  0.00  0.00    +0.000 OA
ATOM     17  O   UNL     1     108.561 124.791 148.627  0.00  0.00    +0.000 OA
ATOM     18  C   UNL     1     106.186 124.721 147.934  0.00  0.00    +0.000 A 
ATOM     19  C   UNL     1     106.742 125.106 147.461  0.00  0.00    +0.000 A 
ATOM     20  C   UNL     1     106.421 124.359 148.638  0.00  0.00    +0.000 A 
ATOM     21  C   UNL     1     107.534 125.129 147.693  0.00  0.00    +0.000 A 
ATOM     22  C   UNL     1     107.213 124.383 148.868  0.00  0.00    +0.000 A 
ATOM     23  C   UNL     1     107.769 124.768 148.395  0.00  0.00    +0.000 A 
ENDBRANCH   6  18
BRANCH   7  24
ATOM     24  O   UNL     1     105.078 125.687 148.684  0.00  0.00    +0.000 OA
BRANCH  24  25
ATOM     25  S   UNL     1     104.513 126.070 149.147  0.00  0.00    +0.000 S 
ATOM     26  O   UNL     1     103.948 126.454 149.610  0.00  0.00    +0.000 OA
ATOM     27  O   UNL     1     104.592 126.747 148.682  0.00  0.00    +0.000 OA
ATOM     28  O   UNL     1     104.434 125.393 149.612  0.00  0.00    +0.000 OA
ENDBRANCH  24  25
ENDBRANCH   7  24
TORSDOF 3
ENDMDL
MODEL 3
REMARK VINA RESULT:      -9.0      7.015      8.101
REMARK  Name = 131835731
REMARK  3 active torsions:
REMARK  status: ('A' for Active; 'I' for Inactive)
REMARK    1  A    between atoms: S_1  and  O_3
REMARK    2  A    between atoms: O_3  and  C_15
REMARK    3  A    between atoms: C_14  and  C_16
REMARK                            x       y       z     vdW  Elec       q    Type
REMARK                         _______ _______ _______ _____ _____    ______ ____
ROOT
ATOM      1  O   UNL     1     103.303 130.264 142.396  0.00  0.00    +0.000 OA
ATOM      2  O   UNL     1     103.277 128.837 140.373  0.00  0.00    +0.000 OA
ATOM      3  O   UNL     1     104.223 127.925 140.969  0.00  0.00    +0.000 OA
ATOM      4  O   UNL     1     105.195 127.493 142.282  0.00  0.00    +0.000 OA
ATOM      5  O   UNL     1     105.213 128.467 143.663  0.00  0.00    +0.000 OA
ATOM      6  C   UNL     1     102.830 130.470 141.751  0.00  0.00    +0.000 C 
ATOM      7  C   UNL     1     102.821 129.994 141.077  0.00  0.00    +0.000 C 
ATOM      8  C   UNL     1     103.286 129.313 141.048  0.00  0.00    +0.000 C 
ATOM      9  C   UNL     1     103.758 129.107 141.691  0.00  0.00    +0.000 A 
ATOM     10  C   UNL     1     103.767 129.582 142.365  0.00  0.00    +0.000 A 
ATOM     11  C   UNL     1     104.238 128.395 141.647  0.00  0.00    +0.000 A 
ATOM     12  C   UNL     1     104.256 129.378 143.042  0.00  0.00    +0.000 A 
ATOM     13  C   UNL     1     104.732 128.175 142.315  0.00  0.00    +0.000 A 
ATOM     14  C   UNL     1     104.741 128.670 143.017  0.00  0.00    +0.000 A 
ENDROOT
BRANCH   6  18
ATOM     15  O   UNL     1     103.527 131.953 141.562  0.00  0.00    +0.000 OA
ATOM     16  O   UNL     1     102.598 133.315 141.624  0.00  0.00    +0.000 OA
ATOM     17  O   UNL     1     100.971 133.194 141.875  0.00  0.00    +0.000 OA
ATOM     18  C   UNL     1     102.366 131.151 141.782  0.00  0.00    +0.000 A 
ATOM     19  C   UNL     1     102.714 131.893 141.688  0.00  0.00    +0.000 A 
ATOM     20  C   UNL     1     101.552 131.090 141.908  0.00  0.00    +0.000 A 
ATOM     21  C   UNL     1     102.249 132.573 141.719  0.00  0.00    +0.000 A 
ATOM     22  C   UNL     1     101.088 131.771 141.939  0.00  0.00    +0.000 A 
ATOM     23  C   UNL     1     101.437 132.513 141.844  0.00  0.00    +0.000 A 
ENDBRANCH   6  18
BRANCH   7  24
ATOM     24  O   UNL     1     102.349 130.200 140.434  0.00  0.00    +0.000 OA
BRANCH  24  25
ATOM     25  S   UNL     1     102.343 129.727 139.758  0.00  0.00    +0.000 S 
ATOM     26  O   UNL     1     102.338 129.254 139.082  0.00  0.00    +0.000 OA
ATOM     27  O   UNL     1     102.932 130.199 139.423  0.00  0.00    +0.000 OA
ATOM     28  O   UNL     1     101.755 129.255 140.093  0.00  0.00    +0.000 OA
ENDBRANCH  24  25
ENDBRANCH   7  24
TORSDOF 3
ENDMDL
MODEL 4
REMARK VINA RESULT:      -9.0      0.957      3.826
REMARK  Name = 131835731
REMARK  3 active torsions:
REMARK  status: ('A' for Active; 'I' for Inactive)
REMARK    1  A    between atoms: S_1  and  O_3
REMARK    2  A    between atoms: O_3  and  C_15
REMARK    3  A    between atoms: C_14  and  C_16
REMARK                            x       y       z     vdW  Elec       q    Type
REMARK                         _______ _______ _______ _____ _____    ______ ____
ROOT
ATOM      1  O   UNL     1     104.782 124.935 147.259  0.00  0.00    +0.000 OA
ATOM      2  O   UNL     1     104.374 123.902 145.047  0.00  0.00    +0.000 OA
ATOM      3  O   UNL     1     103.106 123.379 145.494  0.00  0.00    +0.000 OA
ATOM      4  O   UNL     1     101.956 123.205 146.720  0.00  0.00    +0.000 OA
ATOM      5  O   UNL     1     102.235 123.911 148.230  0.00  0.00    +0.000 OA
ATOM      6  C   UNL     1     105.340 125.017 146.656  0.00  0.00    +0.000 C 
ATOM      7  C   UNL     1     105.204 124.672 145.919  0.00  0.00    +0.000 C 
ATOM      8  C   UNL     1     104.510 124.247 145.785  0.00  0.00    +0.000 C 
ATOM      9  C   UNL     1     103.953 124.165 146.387  0.00  0.00    +0.000 A 
ATOM     10  C   UNL     1     104.089 124.510 147.124  0.00  0.00    +0.000 A 
ATOM     11  C   UNL     1     103.233 123.720 146.234  0.00  0.00    +0.000 A 
ATOM     12  C   UNL     1     103.515 124.432 147.760  0.00  0.00    +0.000 A 
ATOM     13  C   UNL     1     102.649 123.632 146.858  0.00  0.00    +0.000 A 
ATOM     14  C   UNL     1     102.791 123.990 147.625  0.00  0.00    +0.000 A 
ENDROOT
BRANCH   6  18
ATOM     15  O   UNL     1     106.588 124.321 147.481  0.00  0.00    +0.000 OA
ATOM     16  O   UNL     1     107.975 125.174 147.751  0.00  0.00    +0.000 OA
ATOM     17  O   UNL     1     108.114 126.722 147.196  0.00  0.00    +0.000 OA
ATOM     18  C   UNL     1     106.034 125.442 146.791  0.00  0.00    +0.000 A 
ATOM     19  C   UNL     1     106.658 125.095 147.204  0.00  0.00    +0.000 A 
ATOM     20  C   UNL     1     106.103 126.217 146.514  0.00  0.00    +0.000 A 
ATOM     21  C   UNL     1     107.351 125.522 147.339  0.00  0.00    +0.000 A 
ATOM     22  C   UNL     1     106.796 126.642 146.649  0.00  0.00    +0.000 A 
ATOM     23  C   UNL     1     107.420 126.295 147.061  0.00  0.00    +0.000 A 
ENDBRANCH   6  18
BRANCH   7  24
ATOM     24  O   UNL     1     105.761 124.754 145.317  0.00  0.00    +0.000 OA
BRANCH  24  25
ATOM     25  S   UNL     1     105.543 124.623 144.532  0.00  0.00    +0.000 S 
ATOM     26  O   UNL     1     105.324 124.493 143.747  0.00  0.00    +0.000 OA
ATOM     27  O   UNL     1     105.921 123.890 144.549  0.00  0.00    +0.000 OA
ATOM     28  O   UNL     1     105.165 125.356 144.516  0.00  0.00    +0.000 OA
ENDBRANCH  24  25
ENDBRANCH   7  24
TORSDOF 3
ENDMDL
MODEL 5
REMARK VINA RESULT:      -8.9      1.623      3.038
REMARK  Name = 131835731
REMARK  3 active torsions:
REMARK  status: ('A' for Active; 'I' for Inactive)
REMARK    1  A    between atoms: S_1  and  O_3
REMARK    2  A    between atoms: O_3  and  C_15
REMARK    3  A    between atoms: C_14  and  C_16
REMARK                            x       y       z     vdW  Elec       q    Type
REMARK                         _______ _______ _______ _____ _____    ______ ____
ROOT
ATOM      1  O   UNL     1     106.819 125.340 146.473  0.00  0.00    +0.000 OA
ATOM      2  O   UNL     1     104.878 124.610 147.825  0.00  0.00    +0.000 OA
ATOM      3  O   UNL     1     105.736 124.303 148.943  0.00  0.00    +0.000 OA
ATOM      4  O   UNL     1     107.287 124.245 149.612  0.00  0.00    +0.000 OA
ATOM      5  O   UNL     1     108.612 124.744 148.689  0.00  0.00    +0.000 OA
ATOM      6  C   UNL     1     106.058 125.366 146.152  0.00  0.00    +0.000 C 
ATOM      7  C   UNL     1     105.411 125.123 146.603  0.00  0.00    +0.000 C 
ATOM      8  C   UNL     1     105.525 124.853 147.374  0.00  0.00    +0.000 C 
ATOM      9  C   UNL     1     106.284 124.827 147.695  0.00  0.00    +0.000 A 
ATOM     10  C   UNL     1     106.931 125.071 147.245  0.00  0.00    +0.000 A 
ATOM     11  C   UNL     1     106.389 124.544 148.500  0.00  0.00    +0.000 A 
ATOM     12  C   UNL     1     107.727 125.048 147.568  0.00  0.00    +0.000 A 
ATOM     13  C   UNL     1     107.177 124.515 148.840  0.00  0.00    +0.000 A 
ATOM     14  C   UNL     1     107.850 124.769 148.371  0.00  0.00    +0.000 A 
ENDROOT
BRANCH   6  18
ATOM     15  O   UNL     1     106.385 124.374 144.875  0.00  0.00    +0.000 OA
ATOM     16  O   UNL     1     106.161 124.915 143.332  0.00  0.00    +0.000 OA
ATOM     17  O   UNL     1     105.609 126.447 143.066  0.00  0.00    +0.000 OA
ATOM     18  C   UNL     1     105.946 125.636 145.381  0.00  0.00    +0.000 A 
ATOM     19  C   UNL     1     106.110 125.140 144.742  0.00  0.00    +0.000 A 
ATOM     20  C   UNL     1     105.670 126.402 145.248  0.00  0.00    +0.000 A 
ATOM     21  C   UNL     1     105.997 125.411 143.971  0.00  0.00    +0.000 A 
ATOM     22  C   UNL     1     105.558 126.672 144.476  0.00  0.00    +0.000 A 
ATOM     23  C   UNL     1     105.722 126.176 143.838  0.00  0.00    +0.000 A 
ENDBRANCH   6  18
BRANCH   7  24
ATOM     24  O   UNL     1     104.653 125.149 146.282  0.00  0.00    +0.000 OA
BRANCH  24  25
ATOM     25  S   UNL     1     103.996 125.023 146.765  0.00  0.00    +0.000 S 
ATOM     26  O   UNL     1     103.339 124.898 147.248  0.00  0.00    +0.000 OA
ATOM     27  O   UNL     1     103.965 124.236 146.519  0.00  0.00    +0.000 OA
ATOM     28  O   UNL     1     104.026 125.810 147.011  0.00  0.00    +0.000 OA
ENDBRANCH  24  25
ENDBRANCH   7  24
TORSDOF 3
ENDMDL
MODEL 6
REMARK VINA RESULT:      -8.8     12.313     12.920
REMARK  Name = 131835731
REMARK  3 active torsions:
REMARK  status: ('A' for Active; 'I' for Inactive)
REMARK    1  A    between atoms: S_1  and  O_3
REMARK    2  A    between atoms: O_3  and  C_15
REMARK    3  A    between atoms: C_14  and  C_16
REMARK                            x       y       z     vdW  Elec       q    Type
REMARK                         _______ _______ _______ _____ _____    ______ ____
ROOT
ATOM      1  O   UNL     1     110.290 130.638 136.135  0.00  0.00    +0.000 OA
ATOM      2  O   UNL     1     111.059 131.984 138.064  0.00  0.00    +0.000 OA
ATOM      3  O   UNL     1     112.203 131.125 138.245  0.00  0.00    +0.000 OA
ATOM      4  O   UNL     1     113.102 129.779 137.756  0.00  0.00    +0.000 OA
ATOM      5  O   UNL     1     112.577 128.860 136.439  0.00  0.00    +0.000 OA
ATOM      6  C   UNL     1     109.856 131.296 136.378  0.00  0.00    +0.000 C 
ATOM      7  C   UNL     1     110.112 131.745 137.022  0.00  0.00    +0.000 C 
ATOM      8  C   UNL     1     110.803 131.535 137.421  0.00  0.00    +0.000 C 
ATOM      9  C   UNL     1     111.237 130.878 137.178  0.00  0.00    +0.000 A 
ATOM     10  C   UNL     1     110.981 130.429 136.535  0.00  0.00    +0.000 A 
ATOM     11  C   UNL     1     111.955 130.670 137.603  0.00  0.00    +0.000 A 
ATOM     12  C   UNL     1     111.425 129.742 136.272  0.00  0.00    +0.000 A 
ATOM     13  C   UNL     1     112.411 129.986 137.355  0.00  0.00    +0.000 A 
ATOM     14  C   UNL     1     112.145 129.519 136.685  0.00  0.00    +0.000 A 
ENDROOT
BRANCH   6  18
ATOM     15  O   UNL     1     108.450 130.487 136.679  0.00  0.00    +0.000 OA
ATOM     16  O   UNL     1     107.069 130.906 135.878  0.00  0.00    +0.000 OA
ATOM     17  O   UNL     1     107.095 132.133 134.775  0.00  0.00    +0.000 OA
ATOM     18  C   UNL     1     109.165 131.505 135.978  0.00  0.00    +0.000 A 
ATOM     19  C   UNL     1     108.462 131.100 136.129  0.00  0.00    +0.000 A 
ATOM     20  C   UNL     1     109.178 132.119 135.426  0.00  0.00    +0.000 A 
ATOM     21  C   UNL     1     107.772 131.310 135.727  0.00  0.00    +0.000 A 
ATOM     22  C   UNL     1     108.488 132.328 135.026  0.00  0.00    +0.000 A 
ATOM     23  C   UNL     1     107.785 131.923 135.177  0.00  0.00    +0.000 A 
ENDBRANCH   6  18
BRANCH   7  24
ATOM     24  O   UNL     1     109.678 132.402 137.265  0.00  0.00    +0.000 OA
BRANCH  24  25
ATOM     25  S   UNL     1     109.978 132.902 137.848  0.00  0.00    +0.000 S 
ATOM     26  O   UNL     1     110.278 133.402 138.432  0.00  0.00    +0.000 OA
ATOM     27  O   UNL     1     110.409 133.311 137.277  0.00  0.00    +0.000 OA
ATOM     28  O   UNL     1     109.546 132.493 138.420  0.00  0.00    +0.000 OA
ENDBRANCH  24  25
ENDBRANCH   7  24
TORSDOF 3
ENDMDL
MODEL 7
REMARK VINA RESULT:      -8.8     11.699     12.851
REMARK  Name = 131835731
REMARK  3 active torsions:
REMARK  status: ('A' for Active; 'I' for Inactive)
REMARK    1  A    between atoms: S_1  and  O_3
REMARK    2  A    between atoms: O_3  and  C_15
REMARK    3  A    between atoms: C_14  and  C_16
REMARK                            x       y       z     vdW  Elec       q    Type
REMARK                         _______ _______ _______ _____ _____    ______ ____
ROOT
ATOM      1  O   UNL     1     110.024 130.486 136.640  0.00  0.00    +0.000 OA
ATOM      2  O   UNL     1     107.707 130.170 135.828  0.00  0.00    +0.000 OA
ATOM      3  O   UNL     1     107.903 128.745 135.733  0.00  0.00    +0.000 OA
ATOM      4  O   UNL     1     108.912 127.401 135.920  0.00  0.00    +0.000 OA
ATOM      5  O   UNL     1     110.494 127.617 136.474  0.00  0.00    +0.000 OA
ATOM      6  C   UNL     1     109.526 131.138 136.547  0.00  0.00    +0.000 C 
ATOM      7  C   UNL     1     108.754 131.033 136.277  0.00  0.00    +0.000 C 
ATOM      8  C   UNL     1     108.479 130.276 136.099  0.00  0.00    +0.000 C 
ATOM      9  C   UNL     1     108.976 129.624 136.192  0.00  0.00    +0.000 A 
ATOM     10  C   UNL     1     109.748 129.729 136.462  0.00  0.00    +0.000 A 
ATOM     11  C   UNL     1     108.677 128.840 136.003  0.00  0.00    +0.000 A 
ATOM     12  C   UNL     1     110.275 129.057 136.563  0.00  0.00    +0.000 A 
ATOM     13  C   UNL     1     109.190 128.157 136.098  0.00  0.00    +0.000 A 
ATOM     14  C   UNL     1     109.994 128.267 136.380  0.00  0.00    +0.000 A 
ENDROOT
BRANCH   6  18
ATOM     15  O   UNL     1     109.685 131.611 138.120  0.00  0.00    +0.000 OA
ATOM     16  O   UNL     1     110.237 133.125 138.474  0.00  0.00    +0.000 OA
ATOM     17  O   UNL     1     110.630 134.166 137.256  0.00  0.00    +0.000 OA
ATOM     18  C   UNL     1     109.802 131.895 136.725  0.00  0.00    +0.000 A 
ATOM     19  C   UNL     1     109.882 132.131 137.511  0.00  0.00    +0.000 A 
ATOM     20  C   UNL     1     109.999 132.416 136.115  0.00  0.00    +0.000 A 
ATOM     21  C   UNL     1     110.158 132.889 137.688  0.00  0.00    +0.000 A 
ATOM     22  C   UNL     1     110.275 133.172 136.293  0.00  0.00    +0.000 A 
ATOM     23  C   UNL     1     110.354 133.409 137.080  0.00  0.00    +0.000 A 
ENDBRANCH   6  18
BRANCH   7  24
ATOM     24  O   UNL     1     108.258 131.685 136.184  0.00  0.00    +0.000 OA
BRANCH  24  25
ATOM     25  S   UNL     1     107.491 131.582 135.897  0.00  0.00    +0.000 S 
ATOM     26  O   UNL     1     106.725 131.478 135.610  0.00  0.00    +0.000 OA
ATOM     27  O   UNL     1     107.774 131.634 135.124  0.00  0.00    +0.000 OA
ATOM     28  O   UNL     1     107.209 131.529 136.670  0.00  0.00    +0.000 OA
ENDBRANCH  24  25
ENDBRANCH   7  24
TORSDOF 3
ENDMDL
MODEL 8
REMARK VINA RESULT:      -8.7      9.300     10.999
REMARK  Name = 131835731
REMARK  3 active torsions:
REMARK  status: ('A' for Active; 'I' for Inactive)
REMARK    1  A    between atoms: S_1  and  O_3
REMARK    2  A    between atoms: O_3  and  C_15
REMARK    3  A    between atoms: C_14  and  C_16
REMARK                            x       y       z     vdW  Elec       q    Type
REMARK                         _______ _______ _______ _____ _____    ______ ____
ROOT
ATOM      1  O   UNL     1     111.703 131.652 145.320  0.00  0.00    +0.000 OA
ATOM      2  O   UNL     1     111.839 133.412 143.585  0.00  0.00    +0.000 OA
ATOM      3  O   UNL     1     111.795 132.422 142.537  0.00  0.00    +0.000 OA
ATOM      4  O   UNL     1     111.703 130.799 142.074  0.00  0.00    +0.000 OA
ATOM      5  O   UNL     1     111.611 129.598 143.259  0.00  0.00    +0.000 OA
ATOM      6  C   UNL     1     111.748 132.447 145.540  0.00  0.00    +0.000 C 
ATOM      7  C   UNL     1     111.794 133.034 144.962  0.00  0.00    +0.000 C 
ATOM      8  C   UNL     1     111.794 132.825 144.163  0.00  0.00    +0.000 C 
ATOM      9  C   UNL     1     111.749 132.032 143.943  0.00  0.00    +0.000 A 
ATOM     10  C   UNL     1     111.704 131.446 144.522  0.00  0.00    +0.000 A 
ATOM     11  C   UNL     1     111.750 131.829 143.108  0.00  0.00    +0.000 A 
ATOM     12  C   UNL     1     111.656 130.615 144.305  0.00  0.00    +0.000 A 
ATOM     13  C   UNL     1     111.703 131.004 142.873  0.00  0.00    +0.000 A 
ATOM     14  C   UNL     1     111.656 130.393 143.475  0.00  0.00    +0.000 A 
ENDROOT
BRANCH   6  18
ATOM     15  O   UNL     1     113.092 132.185 146.462  0.00  0.00    +0.000 OA
ATOM     16  O   UNL     1     113.090 132.599 148.059  0.00  0.00    +0.000 OA
ATOM     17  O   UNL     1     111.745 133.275 148.735  0.00  0.00    +0.000 OA
ATOM     18  C   UNL     1     111.748 132.654 146.339  0.00  0.00    +0.000 A 
ATOM     19  C   UNL     1     112.420 132.523 146.800  0.00  0.00    +0.000 A 
ATOM     20  C   UNL     1     111.075 132.992 146.677  0.00  0.00    +0.000 A 
ATOM     21  C   UNL     1     112.419 132.730 147.598  0.00  0.00    +0.000 A 
ATOM     22  C   UNL     1     111.075 133.199 147.475  0.00  0.00    +0.000 A 
ATOM     23  C   UNL     1     111.747 133.068 147.936  0.00  0.00    +0.000 A 
ENDBRANCH   6  18
BRANCH   7  24
ATOM     24  O   UNL     1     111.838 133.827 145.182  0.00  0.00    +0.000 OA
BRANCH  24  25
ATOM     25  S   UNL     1     111.716 134.418 144.620  0.00  0.00    +0.000 S 
ATOM     26  O   UNL     1     111.595 135.009 144.057  0.00  0.00    +0.000 OA
ATOM     27  O   UNL     1     112.532 134.515 144.545  0.00  0.00    +0.000 OA
ATOM     28  O   UNL     1     110.901 134.321 144.695  0.00  0.00    +0.000 OA
ENDBRANCH  24  25
ENDBRANCH   7  24
TORSDOF 3
ENDMDL
MODEL 9
REMARK VINA RESULT:      -8.7      1.796      4.393
REMARK  Name = 131835731
REMARK  3 active torsions:
REMARK  status: ('A' for Active; 'I' for Inactive)
REMARK    1  A    between atoms: S_1  and  O_3
REMARK    2  A    between atoms: O_3  and  C_15
REMARK    3  A    between atoms: C_14  and  C_16
REMARK                            x       y       z     vdW  Elec       q    Type
REMARK                         _______ _______ _______ _____ _____    ______ ____
ROOT
ATOM      1  O   UNL     1     103.465 124.549 146.225  0.00  0.00    +0.000 OA
ATOM      2  O   UNL     1     103.621 124.516 148.695  0.00  0.00    +0.000 OA
ATOM      3  O   UNL     1     102.301 123.943 148.800  0.00  0.00    +0.000 OA
ATOM      4  O   UNL     1     100.902 123.370 148.044  0.00  0.00    +0.000 OA
ATOM      5  O   UNL     1     100.796 123.393 146.358  0.00  0.00    +0.000 OA
ATOM      6  C   UNL     1     104.146 124.828 146.600  0.00  0.00    +0.000 C 
ATOM      7  C   UNL     1     104.198 124.816 147.423  0.00  0.00    +0.000 C 
ATOM      8  C   UNL     1     103.569 124.527 147.872  0.00  0.00    +0.000 C 
ATOM      9  C   UNL     1     102.889 124.249 147.498  0.00  0.00    +0.000 A 
ATOM     10  C   UNL     1     102.837 124.260 146.675  0.00  0.00    +0.000 A 
ATOM     11  C   UNL     1     102.240 123.950 147.977  0.00  0.00    +0.000 A 
ATOM     12  C   UNL     1     102.133 123.973 146.273  0.00  0.00    +0.000 A 
ATOM     13  C   UNL     1     101.529 123.659 147.593  0.00  0.00    +0.000 A 
ATOM     14  C   UNL     1     101.475 123.670 146.736  0.00  0.00    +0.000 A 
ENDROOT
BRANCH   6  18
ATOM     15  O   UNL     1     105.165 123.780 145.834  0.00  0.00    +0.000 OA
ATOM     16  O   UNL     1     106.421 124.360 144.935  0.00  0.00    +0.000 OA
ATOM     17  O   UNL     1     106.659 125.987 144.802  0.00  0.00    +0.000 OA
ATOM     18  C   UNL     1     104.774 125.117 146.150  0.00  0.00    +0.000 A 
ATOM     19  C   UNL     1     105.284 124.593 145.767  0.00  0.00    +0.000 A 
ATOM     20  C   UNL     1     104.893 125.931 146.084  0.00  0.00    +0.000 A 
ATOM     21  C   UNL     1     105.912 124.883 145.318  0.00  0.00    +0.000 A 
ATOM     22  C   UNL     1     105.521 126.220 145.634  0.00  0.00    +0.000 A 
ATOM     23  C   UNL     1     106.031 125.696 145.251  0.00  0.00    +0.000 A 
ENDBRANCH   6  18
BRANCH   7  24
ATOM     24  O   UNL     1     104.878 125.094 147.797  0.00  0.00    +0.000 OA
BRANCH  24  25
ATOM     25  S   UNL     1     104.868 125.253 148.607  0.00  0.00    +0.000 S 
ATOM     26  O   UNL     1     104.858 125.412 149.416  0.00  0.00    +0.000 OA
ATOM     27  O   UNL     1     105.235 124.529 148.753  0.00  0.00    +0.000 OA
ATOM     28  O   UNL     1     104.502 125.978 148.460  0.00  0.00    +0.000 OA
ENDBRANCH  24  25
ENDBRANCH   7  24
TORSDOF 3
ENDMDL
MODEL 10
REMARK VINA RESULT:      -8.7      1.962      3.893
REMARK  Name = 131835731
REMARK  3 active torsions:
REMARK  status: ('A' for Active; 'I' for Inactive)
REMARK    1  A    between atoms: S_1  and  O_3
REMARK    2  A    between atoms: O_3  and  C_15
REMARK    3  A    between atoms: C_14  and  C_16
REMARK                            x       y       z     vdW  Elec       q    Type
REMARK                         _______ _______ _______ _____ _____    ______ ____
ROOT
ATOM      1  O   UNL     1     106.375 126.720 146.779  0.00  0.00    +0.000 OA
ATOM      2  O   UNL     1     105.466 125.568 144.787  0.00  0.00    +0.000 OA
ATOM      3  O   UNL     1     105.157 126.831 144.162  0.00  0.00    +0.000 OA
ATOM      4  O   UNL     1     105.160 128.520 144.219  0.00  0.00    +0.000 OA
ATOM      5  O   UNL     1     105.781 129.307 145.580  0.00  0.00    +0.000 OA
ATOM      6  C   UNL     1     106.371 125.895 146.745  0.00  0.00    +0.000 C 
ATOM      7  C   UNL     1     106.068 125.511 146.081  0.00  0.00    +0.000 C 
ATOM      8  C   UNL     1     105.769 125.952 145.451  0.00  0.00    +0.000 C 
ATOM      9  C   UNL     1     105.773 126.776 145.485  0.00  0.00    +0.000 A 
ATOM     10  C   UNL     1     106.076 127.160 146.149  0.00  0.00    +0.000 A 
ATOM     11  C   UNL     1     105.458 127.224 144.822  0.00  0.00    +0.000 A 
ATOM     12  C   UNL     1     106.086 128.018 146.196  0.00  0.00    +0.000 A 
ATOM     13  C   UNL     1     105.460 128.082 144.851  0.00  0.00    +0.000 A 
ATOM     14  C   UNL     1     105.776 128.482 145.543  0.00  0.00    +0.000 A 
ENDROOT
BRANCH   6  18
ATOM     15  O   UNL     1     108.002 125.723 146.932  0.00  0.00    +0.000 OA
ATOM     16  O   UNL     1     108.599 124.844 148.194  0.00  0.00    +0.000 OA
ATOM     17  O   UNL     1     107.566 124.136 149.269  0.00  0.00    +0.000 OA
ATOM     18  C   UNL     1     106.671 125.456 147.376  0.00  0.00    +0.000 A 
ATOM     19  C   UNL     1     107.486 125.370 147.469  0.00  0.00    +0.000 A 
ATOM     20  C   UNL     1     106.153 125.102 147.914  0.00  0.00    +0.000 A 
ATOM     21  C   UNL     1     107.784 124.930 148.101  0.00  0.00    +0.000 A 
ATOM     22  C   UNL     1     106.453 124.662 148.544  0.00  0.00    +0.000 A 
ATOM     23  C   UNL     1     107.268 124.576 148.638  0.00  0.00    +0.000 A 
ENDBRANCH   6  18
BRANCH   7  24
ATOM     24  O   UNL     1     106.064 124.688 146.048  0.00  0.00    +0.000 OA
BRANCH  24  25
ATOM     25  S   UNL     1     105.657 124.302 145.443  0.00  0.00    +0.000 S 
ATOM     26  O   UNL     1     105.250 123.916 144.837  0.00  0.00    +0.000 OA
ATOM     27  O   UNL     1     104.965 124.329 145.890  0.00  0.00    +0.000 OA
ATOM     28  O   UNL     1     106.349 124.274 144.995  0.00  0.00    +0.000 OA
ENDBRANCH  24  25
ENDBRANCH   7  24
TORSDOF 3
ENDMDL
