MODEL 1
REMARK VINA RESULT:      -8.2      0.000      0.000
REMARK  Name = 13831736
REMARK  4 active torsions:
REMARK  status: ('A' for Active; 'I' for Inactive)
REMARK    1  A    between atoms: S_1  and  O_3
REMARK    2  A    between atoms: O_3  and  C_18
REMARK    3  A    between atoms: O_4  and  C_16
REMARK    4  A    between atoms: C_14  and  C_20
REMARK                            x       y       z     vdW  Elec       q    Type
REMARK                         _______ _______ _______ _____ _____    ______ ____
ROOT
ATOM      1  O   UNL     1     113.933 127.851 136.159  0.00  0.00    +0.000 OA
ATOM      2  O   UNL     1     111.278 126.701 136.185  0.00  0.00    +0.000 OA
ATOM      3  O   UNL     1     111.451 128.047 135.698  0.00  0.00    +0.000 OA
ATOM      4  C   UNL     1     112.590 127.266 136.174  0.00  0.00    +0.000 A 
ATOM      5  C   UNL     1     113.398 127.199 136.325  0.00  0.00    +0.000 A 
ATOM      6  C   UNL     1     112.085 126.634 136.337  0.00  0.00    +0.000 A 
ATOM      7  C   UNL     1     113.622 128.582 135.832  0.00  0.00    +0.000 A 
ATOM      8  C   UNL     1     113.702 126.500 136.639  0.00  0.00    +0.000 A 
ATOM      9  C   UNL     1     112.390 125.934 136.651  0.00  0.00    +0.000 A 
ATOM     10  C   UNL     1     112.261 127.989 135.846  0.00  0.00    +0.000 A 
ATOM     11  C   UNL     1     113.198 125.867 136.803  0.00  0.00    +0.000 A 
ATOM     12  C   UNL     1     112.780 128.651 135.674  0.00  0.00    +0.000 A 
ENDROOT
BRANCH   7  14
ATOM     13  O   UNL     1     115.647 131.106 135.184  0.00  0.00    +0.000 OA
ATOM     14  C   UNL     1     114.128 129.213 135.670  0.00  0.00    +0.000 A 
ATOM     15  C   UNL     1     114.533 129.244 134.952  0.00  0.00    +0.000 A 
ATOM     16  C   UNL     1     114.230 129.813 136.226  0.00  0.00    +0.000 A 
ATOM     17  C   UNL     1     115.039 129.875 134.789  0.00  0.00    +0.000 A 
ATOM     18  C   UNL     1     114.736 130.445 136.064  0.00  0.00    +0.000 A 
ATOM     19  C   UNL     1     115.140 130.475 135.346  0.00  0.00    +0.000 A 
ENDBRANCH   7  14
BRANCH   9  20
ATOM     20  O   UNL     1     111.886 125.302 136.814  0.00  0.00    +0.000 OA
ATOM     21  C   UNL     1     111.481 124.928 136.199  0.00  0.00    +0.000 C 
ENDBRANCH   9  20
BRANCH  11  22
ATOM     22  O   UNL     1     113.502 125.168 137.117  0.00  0.00    +0.000 OA
BRANCH  22  23
ATOM     23  S   UNL     1     114.280 125.144 137.394  0.00  0.00    +0.000 S 
ATOM     24  O   UNL     1     115.056 125.120 137.670  0.00  0.00    +0.000 OA
ATOM     25  O   UNL     1     114.027 125.419 138.130  0.00  0.00    +0.000 OA
ATOM     26  O   UNL     1     114.533 124.870 136.658  0.00  0.00    +0.000 OA
ENDBRANCH  22  23
ENDBRANCH  11  22
TORSDOF 4
ENDMDL
MODEL 2
REMARK VINA RESULT:      -8.2     12.101     14.139
REMARK  Name = 13831736
REMARK  4 active torsions:
REMARK  status: ('A' for Active; 'I' for Inactive)
REMARK    1  A    between atoms: S_1  and  O_3
REMARK    2  A    between atoms: O_3  and  C_18
REMARK    3  A    between atoms: O_4  and  C_16
REMARK    4  A    between atoms: C_14  and  C_20
REMARK                            x       y       z     vdW  Elec       q    Type
REMARK                         _______ _______ _______ _____ _____    ______ ____
ROOT
ATOM      1  O   UNL     1     104.125 124.467 145.833  0.00  0.00    +0.000 OA
ATOM      2  O   UNL     1     106.430 125.139 147.447  0.00  0.00    +0.000 OA
ATOM      3  O   UNL     1     105.305 124.489 148.073  0.00  0.00    +0.000 OA
ATOM      4  C   UNL     1     105.294 124.809 146.648  0.00  0.00    +0.000 A 
ATOM      5  C   UNL     1     104.912 124.803 145.917  0.00  0.00    +0.000 A 
ATOM      6  C   UNL     1     106.049 125.134 146.717  0.00  0.00    +0.000 A 
ATOM      7  C   UNL     1     103.731 124.133 146.519  0.00  0.00    +0.000 A 
ATOM      8  C   UNL     1     105.285 125.122 145.254  0.00  0.00    +0.000 A 
ATOM      9  C   UNL     1     106.422 125.453 146.054  0.00  0.00    +0.000 A 
ATOM     10  C   UNL     1     104.915 124.479 147.346  0.00  0.00    +0.000 A 
ATOM     11  C   UNL     1     106.040 125.447 145.322  0.00  0.00    +0.000 A 
ATOM     12  C   UNL     1     104.129 124.139 147.281  0.00  0.00    +0.000 A 
ENDROOT
BRANCH   7  14
ATOM     13  O   UNL     1     100.711 122.834 146.234  0.00  0.00    +0.000 OA
ATOM     14  C   UNL     1     102.976 123.809 146.448  0.00  0.00    +0.000 A 
ATOM     15  C   UNL     1     102.319 124.227 146.719  0.00  0.00    +0.000 A 
ATOM     16  C   UNL     1     102.878 123.064 146.106  0.00  0.00    +0.000 A 
ATOM     17  C   UNL     1     101.564 123.903 146.647  0.00  0.00    +0.000 A 
ATOM     18  C   UNL     1     102.122 122.739 146.034  0.00  0.00    +0.000 A 
ATOM     19  C   UNL     1     101.466 123.159 146.305  0.00  0.00    +0.000 A 
ENDBRANCH   7  14
BRANCH   9  20
ATOM     20  O   UNL     1     107.177 125.778 146.123  0.00  0.00    +0.000 OA
ATOM     21  C   UNL     1     107.305 126.419 146.627  0.00  0.00    +0.000 C 
ENDBRANCH   9  20
BRANCH  11  22
ATOM     22  O   UNL     1     106.414 125.766 144.660  0.00  0.00    +0.000 OA
BRANCH  22  23
ATOM     23  S   UNL     1     106.066 125.692 143.915  0.00  0.00    +0.000 S 
ATOM     24  O   UNL     1     105.719 125.619 143.171  0.00  0.00    +0.000 OA
ATOM     25  O   UNL     1     105.669 126.407 144.029  0.00  0.00    +0.000 OA
ATOM     26  O   UNL     1     106.462 124.978 143.800  0.00  0.00    +0.000 OA
ENDBRANCH  22  23
ENDBRANCH  11  22
TORSDOF 4
ENDMDL
MODEL 3
REMARK VINA RESULT:      -8.1     13.850     15.294
REMARK  Name = 13831736
REMARK  4 active torsions:
REMARK  status: ('A' for Active; 'I' for Inactive)
REMARK    1  A    between atoms: S_1  and  O_3
REMARK    2  A    between atoms: O_3  and  C_18
REMARK    3  A    between atoms: O_4  and  C_16
REMARK    4  A    between atoms: C_14  and  C_20
REMARK                            x       y       z     vdW  Elec       q    Type
REMARK                         _______ _______ _______ _____ _____    ______ ____
ROOT
ATOM      1  O   UNL     1     104.922 124.646 147.721  0.00  0.00    +0.000 OA
ATOM      2  O   UNL     1     102.603 125.563 149.189  0.00  0.00    +0.000 OA
ATOM      3  O   UNL     1     103.909 126.034 149.581  0.00  0.00    +0.000 OA
ATOM      4  C   UNL     1     103.746 125.109 148.463  0.00  0.00    +0.000 A 
ATOM      5  C   UNL     1     104.073 124.656 147.856  0.00  0.00    +0.000 A 
ATOM      6  C   UNL     1     102.930 125.110 148.583  0.00  0.00    +0.000 A 
ATOM      7  C   UNL     1     105.436 125.115 148.224  0.00  0.00    +0.000 A 
ATOM      8  C   UNL     1     103.584 124.204 147.369  0.00  0.00    +0.000 A 
ATOM      9  C   UNL     1     102.440 124.658 148.096  0.00  0.00    +0.000 A 
ATOM     10  C   UNL     1     104.245 125.584 148.976  0.00  0.00    +0.000 A 
ATOM     11  C   UNL     1     102.767 124.205 147.489  0.00  0.00    +0.000 A 
ATOM     12  C   UNL     1     105.095 125.587 148.856  0.00  0.00    +0.000 A 
ENDROOT
BRANCH   7  14
ATOM     13  O   UNL     1     108.700 125.104 147.735  0.00  0.00    +0.000 OA
ATOM     14  C   UNL     1     106.252 125.112 148.102  0.00  0.00    +0.000 A 
ATOM     15  C   UNL     1     106.745 124.697 148.616  0.00  0.00    +0.000 A 
ATOM     16  C   UNL     1     106.575 125.525 147.465  0.00  0.00    +0.000 A 
ATOM     17  C   UNL     1     107.561 124.694 148.494  0.00  0.00    +0.000 A 
ATOM     18  C   UNL     1     107.391 125.522 147.342  0.00  0.00    +0.000 A 
ATOM     19  C   UNL     1     107.884 125.107 147.857  0.00  0.00    +0.000 A 
ENDBRANCH   7  14
BRANCH   9  20
ATOM     20  O   UNL     1     101.624 124.659 148.216  0.00  0.00    +0.000 OA
ATOM     21  C   UNL     1     101.311 124.368 148.922  0.00  0.00    +0.000 C 
ENDBRANCH   9  20
BRANCH  11  22
ATOM     22  O   UNL     1     102.278 123.753 147.002  0.00  0.00    +0.000 OA
BRANCH  22  23
ATOM     23  S   UNL     1     102.567 123.457 146.288  0.00  0.00    +0.000 S 
ATOM     24  O   UNL     1     102.855 123.161 145.575  0.00  0.00    +0.000 OA
ATOM     25  O   UNL     1     102.393 124.174 145.920  0.00  0.00    +0.000 OA
ATOM     26  O   UNL     1     102.742 122.739 146.656  0.00  0.00    +0.000 OA
ENDBRANCH  22  23
ENDBRANCH  11  22
TORSDOF 4
ENDMDL
MODEL 4
REMARK VINA RESULT:      -8.0      1.412      2.754
REMARK  Name = 13831736
REMARK  4 active torsions:
REMARK  status: ('A' for Active; 'I' for Inactive)
REMARK    1  A    between atoms: S_1  and  O_3
REMARK    2  A    between atoms: O_3  and  C_18
REMARK    3  A    between atoms: O_4  and  C_16
REMARK    4  A    between atoms: C_14  and  C_20
REMARK                            x       y       z     vdW  Elec       q    Type
REMARK                         _______ _______ _______ _____ _____    ______ ____
ROOT
ATOM      1  O   UNL     1     112.517 127.434 136.080  0.00  0.00    +0.000 OA
ATOM      2  O   UNL     1     113.224 124.711 136.757  0.00  0.00    +0.000 OA
ATOM      3  O   UNL     1     114.201 125.755 136.949  0.00  0.00    +0.000 OA
ATOM      4  C   UNL     1     112.872 126.054 136.422  0.00  0.00    +0.000 A 
ATOM      5  C   UNL     1     112.321 126.599 136.138  0.00  0.00    +0.000 A 
ATOM      6  C   UNL     1     112.674 125.255 136.474  0.00  0.00    +0.000 A 
ATOM      7  C   UNL     1     113.296 127.705 136.320  0.00  0.00    +0.000 A 
ATOM      8  C   UNL     1     111.572 126.345 135.906  0.00  0.00    +0.000 A 
ATOM      9  C   UNL     1     111.923 125.001 136.242  0.00  0.00    +0.000 A 
ATOM     10  C   UNL     1     113.657 126.307 136.667  0.00  0.00    +0.000 A 
ATOM     11  C   UNL     1     111.373 125.546 135.958  0.00  0.00    +0.000 A 
ATOM     12  C   UNL     1     113.870 127.137 136.615  0.00  0.00    +0.000 A 
ENDROOT
BRANCH   7  14
ATOM     13  O   UNL     1     114.082 130.903 136.108  0.00  0.00    +0.000 OA
ATOM     14  C   UNL     1     113.493 128.504 136.267  0.00  0.00    +0.000 A 
ATOM     15  C   UNL     1     113.293 129.020 136.879  0.00  0.00    +0.000 A 
ATOM     16  C   UNL     1     113.889 128.788 135.602  0.00  0.00    +0.000 A 
ATOM     17  C   UNL     1     113.489 129.819 136.826  0.00  0.00    +0.000 A 
ATOM     18  C   UNL     1     114.086 129.588 135.548  0.00  0.00    +0.000 A 
ATOM     19  C   UNL     1     113.886 130.103 136.161  0.00  0.00    +0.000 A 
ENDBRANCH   7  14
BRANCH   9  20
ATOM     20  O   UNL     1     111.725 124.202 136.294  0.00  0.00    +0.000 OA
ATOM     21  C   UNL     1     111.739 123.821 137.026  0.00  0.00    +0.000 C 
ENDBRANCH   9  20
BRANCH  11  22
ATOM     22  O   UNL     1     110.623 125.292 135.726  0.00  0.00    +0.000 OA
BRANCH  22  23
ATOM     23  S   UNL     1     110.115 125.811 135.333  0.00  0.00    +0.000 S 
ATOM     24  O   UNL     1     109.607 126.328 134.941  0.00  0.00    +0.000 OA
ATOM     25  O   UNL     1     110.454 125.597 134.612  0.00  0.00    +0.000 OA
ATOM     26  O   UNL     1     109.775 126.024 136.054  0.00  0.00    +0.000 OA
ENDBRANCH  22  23
ENDBRANCH  11  22
TORSDOF 4
ENDMDL
MODEL 5
REMARK VINA RESULT:      -7.8     11.958     13.567
REMARK  Name = 13831736
REMARK  4 active torsions:
REMARK  status: ('A' for Active; 'I' for Inactive)
REMARK    1  A    between atoms: S_1  and  O_3
REMARK    2  A    between atoms: O_3  and  C_18
REMARK    3  A    between atoms: O_4  and  C_16
REMARK    4  A    between atoms: C_14  and  C_20
REMARK                            x       y       z     vdW  Elec       q    Type
REMARK                         _______ _______ _______ _____ _____    ______ ____
ROOT
ATOM      1  O   UNL     1     102.966 131.862 141.062  0.00  0.00    +0.000 OA
ATOM      2  O   UNL     1     100.949 133.643 142.127  0.00  0.00    +0.000 OA
ATOM      3  O   UNL     1     100.742 132.218 142.219  0.00  0.00    +0.000 OA
ATOM      4  C   UNL     1     101.946 132.766 141.601  0.00  0.00    +0.000 A 
ATOM      5  C   UNL     1     102.671 132.653 141.224  0.00  0.00    +0.000 A 
ATOM      6  C   UNL     1     101.673 133.530 141.750  0.00  0.00    +0.000 A 
ATOM      7  C   UNL     1     102.499 131.180 141.297  0.00  0.00    +0.000 A 
ATOM      8  C   UNL     1     103.123 133.304 140.996  0.00  0.00    +0.000 A 
ATOM      9  C   UNL     1     102.126 134.182 141.523  0.00  0.00    +0.000 A 
ATOM     10  C   UNL     1     101.465 132.096 141.842  0.00  0.00    +0.000 A 
ATOM     11  C   UNL     1     102.851 134.069 141.146  0.00  0.00    +0.000 A 
ATOM     12  C   UNL     1     101.744 131.298 141.689  0.00  0.00    +0.000 A 
ENDROOT
BRANCH   7  14
ATOM     13  O   UNL     1     103.598 128.127 140.693  0.00  0.00    +0.000 OA
ATOM     14  C   UNL     1     102.774 130.417 141.146  0.00  0.00    +0.000 A 
ATOM     15  C   UNL     1     103.315 130.064 141.658  0.00  0.00    +0.000 A 
ATOM     16  C   UNL     1     102.507 130.006 140.482  0.00  0.00    +0.000 A 
ATOM     17  C   UNL     1     103.590 129.301 141.507  0.00  0.00    +0.000 A 
ATOM     18  C   UNL     1     102.782 129.243 140.331  0.00  0.00    +0.000 A 
ATOM     19  C   UNL     1     103.323 128.890 140.844  0.00  0.00    +0.000 A 
ENDBRANCH   7  14
BRANCH   9  20
ATOM     20  O   UNL     1     101.853 134.946 141.672  0.00  0.00    +0.000 OA
ATOM     21  C   UNL     1     101.784 135.213 142.450  0.00  0.00    +0.000 C 
ENDBRANCH   9  20
BRANCH  11  22
ATOM     22  O   UNL     1     103.303 134.720 140.918  0.00  0.00    +0.000 OA
BRANCH  22  23
ATOM     23  S   UNL     1     103.937 134.621 140.398  0.00  0.00    +0.000 S 
ATOM     24  O   UNL     1     104.569 134.522 139.879  0.00  0.00    +0.000 OA
ATOM     25  O   UNL     1     104.451 134.546 141.039  0.00  0.00    +0.000 OA
ATOM     26  O   UNL     1     103.422 134.695 139.757  0.00  0.00    +0.000 OA
ENDBRANCH  22  23
ENDBRANCH  11  22
TORSDOF 4
ENDMDL
MODEL 6
REMARK VINA RESULT:      -7.8     11.218     12.724
REMARK  Name = 13831736
REMARK  4 active torsions:
REMARK  status: ('A' for Active; 'I' for Inactive)
REMARK    1  A    between atoms: S_1  and  O_3
REMARK    2  A    between atoms: O_3  and  C_18
REMARK    3  A    between atoms: O_4  and  C_16
REMARK    4  A    between atoms: C_14  and  C_20
REMARK                            x       y       z     vdW  Elec       q    Type
REMARK                         _______ _______ _______ _____ _____    ______ ____
ROOT
ATOM      1  O   UNL     1     106.550 125.627 146.298  0.00  0.00    +0.000 OA
ATOM      2  O   UNL     1     105.253 128.076 145.465  0.00  0.00    +0.000 OA
ATOM      3  O   UNL     1     105.649 127.929 146.844  0.00  0.00    +0.000 OA
ATOM      4  C   UNL     1     105.893 126.866 145.873  0.00  0.00    +0.000 A 
ATOM      5  C   UNL     1     106.185 126.116 145.692  0.00  0.00    +0.000 A 
ATOM      6  C   UNL     1     105.545 127.327 145.284  0.00  0.00    +0.000 A 
ATOM      7  C   UNL     1     106.610 125.923 147.102  0.00  0.00    +0.000 A 
ATOM      8  C   UNL     1     106.130 125.827 144.922  0.00  0.00    +0.000 A 
ATOM      9  C   UNL     1     105.490 127.037 144.513  0.00  0.00    +0.000 A 
ATOM     10  C   UNL     1     105.944 127.178 146.673  0.00  0.00    +0.000 A 
ATOM     11  C   UNL     1     105.783 126.288 144.332  0.00  0.00    +0.000 A 
ATOM     12  C   UNL     1     106.305 126.704 147.291  0.00  0.00    +0.000 A 
ENDROOT
BRANCH   7  14
ATOM     13  O   UNL     1     108.001 124.072 149.454  0.00  0.00    +0.000 OA
ATOM     14  C   UNL     1     106.958 125.460 147.690  0.00  0.00    +0.000 A 
ATOM     15  C   UNL     1     107.778 125.376 147.718  0.00  0.00    +0.000 A 
ATOM     16  C   UNL     1     106.486 125.081 148.250  0.00  0.00    +0.000 A 
ATOM     17  C   UNL     1     108.126 124.914 148.306  0.00  0.00    +0.000 A 
ATOM     18  C   UNL     1     106.833 124.618 148.838  0.00  0.00    +0.000 A 
ATOM     19  C   UNL     1     107.653 124.534 148.866  0.00  0.00    +0.000 A 
ENDBRANCH   7  14
BRANCH   9  20
ATOM     20  O   UNL     1     105.143 127.498 143.924  0.00  0.00    +0.000 OA
ATOM     21  C   UNL     1     105.479 128.223 143.716  0.00  0.00    +0.000 C 
ENDBRANCH   9  20
BRANCH  11  22
ATOM     22  O   UNL     1     105.728 125.999 143.562  0.00  0.00    +0.000 OA
BRANCH  22  23
ATOM     23  S   UNL     1     106.001 125.239 143.385  0.00  0.00    +0.000 S 
ATOM     24  O   UNL     1     106.273 124.482 143.209  0.00  0.00    +0.000 OA
ATOM     25  O   UNL     1     105.261 124.929 143.576  0.00  0.00    +0.000 OA
ATOM     26  O   UNL     1     106.741 125.550 143.194  0.00  0.00    +0.000 OA
ENDBRANCH  22  23
ENDBRANCH  11  22
TORSDOF 4
ENDMDL
MODEL 7
REMARK VINA RESULT:      -7.8      3.083      4.409
REMARK  Name = 13831736
REMARK  4 active torsions:
REMARK  status: ('A' for Active; 'I' for Inactive)
REMARK    1  A    between atoms: S_1  and  O_3
REMARK    2  A    between atoms: O_3  and  C_18
REMARK    3  A    between atoms: O_4  and  C_16
REMARK    4  A    between atoms: C_14  and  C_20
REMARK                            x       y       z     vdW  Elec       q    Type
REMARK                         _______ _______ _______ _____ _____    ______ ____
ROOT
ATOM      1  O   UNL     1     111.687 126.172 137.116  0.00  0.00    +0.000 OA
ATOM      2  O   UNL     1     109.336 126.231 135.430  0.00  0.00    +0.000 OA
ATOM      3  O   UNL     1     110.435 125.371 135.066  0.00  0.00    +0.000 OA
ATOM      4  C   UNL     1     110.495 126.204 136.264  0.00  0.00    +0.000 A 
ATOM      5  C   UNL     1     110.901 126.467 136.933  0.00  0.00    +0.000 A 
ATOM      6  C   UNL     1     109.741 126.494 136.098  0.00  0.00    +0.000 A 
ATOM      7  C   UNL     1     112.056 125.596 136.595  0.00  0.00    +0.000 A 
ATOM      8  C   UNL     1     110.552 127.019 137.435  0.00  0.00    +0.000 A 
ATOM      9  C   UNL     1     109.392 127.047 136.602  0.00  0.00    +0.000 A 
ATOM     10  C   UNL     1     110.848 125.628 135.732  0.00  0.00    +0.000 A 
ATOM     11  C   UNL     1     109.798 127.310 137.271  0.00  0.00    +0.000 A 
ATOM     12  C   UNL     1     111.633 125.322 135.899  0.00  0.00    +0.000 A 
ENDROOT
BRANCH   7  14
ATOM     13  O   UNL     1     115.074 124.442 137.267  0.00  0.00    +0.000 OA
ATOM     14  C   UNL     1     112.810 125.307 136.763  0.00  0.00    +0.000 A 
ATOM     15  C   UNL     1     112.905 124.539 137.048  0.00  0.00    +0.000 A 
ATOM     16  C   UNL     1     113.471 125.787 136.646  0.00  0.00    +0.000 A 
ATOM     17  C   UNL     1     113.659 124.250 137.216  0.00  0.00    +0.000 A 
ATOM     18  C   UNL     1     114.226 125.499 136.814  0.00  0.00    +0.000 A 
ATOM     19  C   UNL     1     114.320 124.730 137.099  0.00  0.00    +0.000 A 
ENDBRANCH   7  14
BRANCH   9  20
ATOM     20  O   UNL     1     108.638 127.337 136.436  0.00  0.00    +0.000 OA
ATOM     21  C   UNL     1     108.517 127.814 135.773  0.00  0.00    +0.000 C 
ENDBRANCH   9  20
BRANCH  11  22
ATOM     22  O   UNL     1     109.449 127.863 137.773  0.00  0.00    +0.000 OA
BRANCH  22  23
ATOM     23  S   UNL     1     109.791 128.026 138.507  0.00  0.00    +0.000 S 
ATOM     24  O   UNL     1     110.132 128.189 139.239  0.00  0.00    +0.000 OA
ATOM     25  O   UNL     1     109.362 127.408 138.845  0.00  0.00    +0.000 OA
ATOM     26  O   UNL     1     110.220 128.645 138.170  0.00  0.00    +0.000 OA
ENDBRANCH  22  23
ENDBRANCH  11  22
TORSDOF 4
ENDMDL
MODEL 8
REMARK VINA RESULT:      -7.7      3.380      3.865
REMARK  Name = 13831736
REMARK  4 active torsions:
REMARK  status: ('A' for Active; 'I' for Inactive)
REMARK    1  A    between atoms: S_1  and  O_3
REMARK    2  A    between atoms: O_3  and  C_18
REMARK    3  A    between atoms: O_4  and  C_16
REMARK    4  A    between atoms: C_14  and  C_20
REMARK                            x       y       z     vdW  Elec       q    Type
REMARK                         _______ _______ _______ _____ _____    ______ ____
ROOT
ATOM      1  O   UNL     1     110.338 127.091 136.625  0.00  0.00    +0.000 OA
ATOM      2  O   UNL     1     111.106 124.449 135.730  0.00  0.00    +0.000 OA
ATOM      3  O   UNL     1     110.482 125.350 134.793  0.00  0.00    +0.000 OA
ATOM      4  C   UNL     1     110.728 125.753 136.175  0.00  0.00    +0.000 A 
ATOM      5  C   UNL     1     110.683 126.318 136.774  0.00  0.00    +0.000 A 
ATOM      6  C   UNL     1     111.061 125.014 136.328  0.00  0.00    +0.000 A 
ATOM      7  C   UNL     1     110.037 127.278 135.842  0.00  0.00    +0.000 A 
ATOM      8  C   UNL     1     110.970 126.144 137.527  0.00  0.00    +0.000 A 
ATOM      9  C   UNL     1     111.348 124.840 137.083  0.00  0.00    +0.000 A 
ATOM     10  C   UNL     1     110.432 125.921 135.385  0.00  0.00    +0.000 A 
ATOM     11  C   UNL     1     111.303 125.406 137.682  0.00  0.00    +0.000 A 
ATOM     12  C   UNL     1     110.085 126.689 135.218  0.00  0.00    +0.000 A 
ENDROOT
BRANCH   7  14
ATOM     13  O   UNL     1     108.707 130.237 135.235  0.00  0.00    +0.000 OA
ATOM     14  C   UNL     1     109.705 128.017 135.690  0.00  0.00    +0.000 A 
ATOM     15  C   UNL     1     110.145 128.596 135.300  0.00  0.00    +0.000 A 
ATOM     16  C   UNL     1     108.932 128.179 135.929  0.00  0.00    +0.000 A 
ATOM     17  C   UNL     1     109.813 129.335 135.148  0.00  0.00    +0.000 A 
ATOM     18  C   UNL     1     108.599 128.919 135.777  0.00  0.00    +0.000 A 
ATOM     19  C   UNL     1     109.040 129.497 135.387  0.00  0.00    +0.000 A 
ENDBRANCH   7  14
BRANCH   9  20
ATOM     20  O   UNL     1     111.681 124.101 137.237  0.00  0.00    +0.000 OA
ATOM     21  C   UNL     1     112.371 123.870 136.846  0.00  0.00    +0.000 C 
ENDBRANCH   9  20
BRANCH  11  22
ATOM     22  O   UNL     1     111.590 125.232 138.435  0.00  0.00    +0.000 OA
BRANCH  22  23
ATOM     23  S   UNL     1     111.411 125.729 139.070  0.00  0.00    +0.000 S 
ATOM     24  O   UNL     1     111.233 126.226 139.703  0.00  0.00    +0.000 OA
ATOM     25  O   UNL     1     112.115 126.142 138.944  0.00  0.00    +0.000 OA
ATOM     26  O   UNL     1     110.708 125.317 139.195  0.00  0.00    +0.000 OA
ENDBRANCH  22  23
ENDBRANCH  11  22
TORSDOF 4
ENDMDL
MODEL 9
REMARK VINA RESULT:      -7.6     13.537     15.105
REMARK  Name = 13831736
REMARK  4 active torsions:
REMARK  status: ('A' for Active; 'I' for Inactive)
REMARK    1  A    between atoms: S_1  and  O_3
REMARK    2  A    between atoms: O_3  and  C_18
REMARK    3  A    between atoms: O_4  and  C_16
REMARK    4  A    between atoms: C_14  and  C_20
REMARK                            x       y       z     vdW  Elec       q    Type
REMARK                         _______ _______ _______ _____ _____    ______ ____
ROOT
ATOM      1  O   UNL     1     104.096 124.424 147.229  0.00  0.00    +0.000 OA
ATOM      2  O   UNL     1     102.691 122.963 145.164  0.00  0.00    +0.000 OA
ATOM      3  O   UNL     1     104.005 123.485 144.880  0.00  0.00    +0.000 OA
ATOM      4  C   UNL     1     103.382 123.683 146.185  0.00  0.00    +0.000 A 
ATOM      5  C   UNL     1     103.408 123.988 146.951  0.00  0.00    +0.000 A 
ATOM      6  C   UNL     1     102.718 123.267 145.929  0.00  0.00    +0.000 A 
ATOM      7  C   UNL     1     104.763 124.543 146.702  0.00  0.00    +0.000 A 
ATOM      8  C   UNL     1     102.770 123.877 147.461  0.00  0.00    +0.000 A 
ATOM      9  C   UNL     1     102.079 123.155 146.440  0.00  0.00    +0.000 A 
ATOM     10  C   UNL     1     104.041 123.793 145.644  0.00  0.00    +0.000 A 
ATOM     11  C   UNL     1     102.105 123.460 147.206  0.00  0.00    +0.000 A 
ATOM     12  C   UNL     1     104.736 124.226 145.904  0.00  0.00    +0.000 A 
ENDROOT
BRANCH   7  14
ATOM     13  O   UNL     1     107.418 126.210 147.735  0.00  0.00    +0.000 OA
ATOM     14  C   UNL     1     105.427 124.960 146.960  0.00  0.00    +0.000 A 
ATOM     15  C   UNL     1     105.523 125.752 146.753  0.00  0.00    +0.000 A 
ATOM     16  C   UNL     1     105.994 124.584 147.427  0.00  0.00    +0.000 A 
ATOM     17  C   UNL     1     106.187 126.169 147.011  0.00  0.00    +0.000 A 
ATOM     18  C   UNL     1     106.658 125.000 147.685  0.00  0.00    +0.000 A 
ATOM     19  C   UNL     1     106.754 125.793 147.477  0.00  0.00    +0.000 A 
ENDBRANCH   7  14
BRANCH   9  20
ATOM     20  O   UNL     1     101.414 122.739 146.184  0.00  0.00    +0.000 OA
ATOM     21  C   UNL     1     100.959 123.033 145.561  0.00  0.00    +0.000 C 
ENDBRANCH   9  20
BRANCH  11  22
ATOM     22  O   UNL     1     101.467 123.349 147.716  0.00  0.00    +0.000 OA
BRANCH  22  23
ATOM     23  S   UNL     1     101.552 123.503 148.523  0.00  0.00    +0.000 S 
ATOM     24  O   UNL     1     101.637 123.657 149.329  0.00  0.00    +0.000 OA
ATOM     25  O   UNL     1     101.262 124.267 148.408  0.00  0.00    +0.000 OA
ATOM     26  O   UNL     1     101.842 122.739 148.639  0.00  0.00    +0.000 OA
ENDBRANCH  22  23
ENDBRANCH  11  22
TORSDOF 4
ENDMDL
MODEL 10
REMARK VINA RESULT:      -7.6      2.013      2.481
REMARK  Name = 13831736
REMARK  4 active torsions:
REMARK  status: ('A' for Active; 'I' for Inactive)
REMARK    1  A    between atoms: S_1  and  O_3
REMARK    2  A    between atoms: O_3  and  C_18
REMARK    3  A    between atoms: O_4  and  C_16
REMARK    4  A    between atoms: C_14  and  C_20
REMARK                            x       y       z     vdW  Elec       q    Type
REMARK                         _______ _______ _______ _____ _____    ______ ____
ROOT
ATOM      1  O   UNL     1     112.255 126.772 136.320  0.00  0.00    +0.000 OA
ATOM      2  O   UNL     1     111.270 124.076 135.953  0.00  0.00    +0.000 OA
ATOM      3  O   UNL     1     110.484 125.180 135.461  0.00  0.00    +0.000 OA
ATOM      4  C   UNL     1     111.759 125.406 136.136  0.00  0.00    +0.000 A 
ATOM      5  C   UNL     1     112.338 125.922 136.416  0.00  0.00    +0.000 A 
ATOM      6  C   UNL     1     111.848 124.592 136.234  0.00  0.00    +0.000 A 
ATOM      7  C   UNL     1     111.561 127.088 135.925  0.00  0.00    +0.000 A 
ATOM      8  C   UNL     1     113.006 125.624 136.796  0.00  0.00    +0.000 A 
ATOM      9  C   UNL     1     112.518 124.294 136.614  0.00  0.00    +0.000 A 
ATOM     10  C   UNL     1     111.057 125.704 135.738  0.00  0.00    +0.000 A 
ATOM     11  C   UNL     1     113.097 124.810 136.895  0.00  0.00    +0.000 A 
ATOM     12  C   UNL     1     110.958 126.551 135.633  0.00  0.00    +0.000 A 
ENDROOT
BRANCH   7  14
ATOM     13  O   UNL     1     111.210 130.347 135.536  0.00  0.00    +0.000 OA
ATOM     14  C   UNL     1     111.473 127.903 135.828  0.00  0.00    +0.000 A 
ATOM     15  C   UNL     1     111.755 128.270 135.145  0.00  0.00    +0.000 A 
ATOM     16  C   UNL     1     111.104 128.351 136.414  0.00  0.00    +0.000 A 
ATOM     17  C   UNL     1     111.667 129.084 135.048  0.00  0.00    +0.000 A 
ATOM     18  C   UNL     1     111.016 129.166 136.317  0.00  0.00    +0.000 A 
ATOM     19  C   UNL     1     111.297 129.532 135.633  0.00  0.00    +0.000 A 
ENDBRANCH   7  14
BRANCH   9  20
ATOM     20  O   UNL     1     112.608 123.480 136.712  0.00  0.00    +0.000 OA
ATOM     21  C   UNL     1     112.084 123.063 137.196  0.00  0.00    +0.000 C 
ENDBRANCH   9  20
BRANCH  11  22
ATOM     22  O   UNL     1     113.766 124.512 137.274  0.00  0.00    +0.000 OA
BRANCH  22  23
ATOM     23  S   UNL     1     114.426 124.995 137.386  0.00  0.00    +0.000 S 
ATOM     24  O   UNL     1     115.086 125.477 137.498  0.00  0.00    +0.000 OA
ATOM     25  O   UNL     1     114.137 125.220 138.125  0.00  0.00    +0.000 OA
ATOM     26  O   UNL     1     114.716 124.770 136.647  0.00  0.00    +0.000 OA
ENDBRANCH  22  23
ENDBRANCH  11  22
TORSDOF 4
ENDMDL
