MODEL 1
REMARK VINA RESULT:     -10.1      0.000      0.000
REMARK  Name = 14730435
REMARK  7 active torsions:
REMARK  status: ('A' for Active; 'I' for Inactive)
REMARK    1  A    between atoms: O_3  and  C_25
REMARK    2  A    between atoms: O_3  and  C_29
REMARK    3  A    between atoms: O_6  and  C_26
REMARK    4  A    between atoms: O_6  and  C_30
REMARK    5  A    between atoms: C_20  and  C_27
REMARK    6  A    between atoms: C_24  and  C_28
REMARK    7  A    between atoms: C_31  and  C_32
REMARK                            x       y       z     vdW  Elec       q    Type
REMARK                         _______ _______ _______ _____ _____    ______ ____
ROOT
ATOM      1  O   UNL     1     113.480 126.754 136.875  0.00  0.00    +0.000 OA
ATOM      2  O   UNL     1     111.590 125.417 135.998  0.00  0.00    +0.000 OA
ATOM      3  O   UNL     1     112.282 124.187 136.301  0.00  0.00    +0.000 OA
ATOM      4  O   UNL     1     114.936 124.314 137.513  0.00  0.00    +0.000 OA
ATOM      5  C   UNL     1     112.181 126.686 136.282  0.00  0.00    +0.000 A 
ATOM      6  C   UNL     1     112.810 127.133 136.574  0.00  0.00    +0.000 A 
ATOM      7  C   UNL     1     112.219 125.863 136.290  0.00  0.00    +0.000 A 
ATOM      8  C   UNL     1     112.889 125.484 136.592  0.00  0.00    +0.000 A 
ATOM      9  C   UNL     1     113.518 125.930 136.884  0.00  0.00    +0.000 A 
ATOM     10  C   UNL     1     112.917 124.625 136.595  0.00  0.00    +0.000 A 
ATOM     11  C   UNL     1     114.220 125.548 137.200  0.00  0.00    +0.000 A 
ATOM     12  C   UNL     1     113.610 124.226 136.907  0.00  0.00    +0.000 A 
ATOM     13  C   UNL     1     114.266 124.690 137.212  0.00  0.00    +0.000 A 
ENDROOT
BRANCH   6  15
ATOM     14  C   UNL     1     112.695 129.604 136.547  0.00  0.00    +0.000 A 
ATOM     15  C   UNL     1     112.772 127.956 136.565  0.00  0.00    +0.000 A 
ATOM     16  C   UNL     1     112.805 129.190 135.843  0.00  0.00    +0.000 A 
ATOM     17  C   UNL     1     112.623 129.196 137.261  0.00  0.00    +0.000 A 
ATOM     18  C   UNL     1     112.844 128.365 135.852  0.00  0.00    +0.000 A 
ATOM     19  C   UNL     1     112.661 128.372 137.269  0.00  0.00    +0.000 A 
BRANCH  14  20
ATOM     20  O   UNL     1     112.656 130.429 136.538  0.00  0.00    +0.000 OA
BRANCH  20  29
ATOM     21  O   UNL     1     111.265 130.529 136.232  0.00  0.00    +0.000 OA
ATOM     22  O   UNL     1     111.083 132.511 137.703  0.00  0.00    +0.000 OA
ATOM     23  O   UNL     1     109.752 131.949 136.906  0.00  0.00    +0.000 OA
ATOM     24  O   UNL     1     112.536 131.750 137.519  0.00  0.00    +0.000 OA
ATOM     25  C   UNL     1     111.144 131.850 137.213  0.00  0.00    +0.000 C 
ATOM     26  C   UNL     1     110.478 131.569 136.814  0.00  0.00    +0.000 C 
ATOM     27  C   UNL     1     111.870 131.470 137.121  0.00  0.00    +0.000 C 
ATOM     28  C   UNL     1     110.538 130.909 136.324  0.00  0.00    +0.000 C 
ATOM     29  C   UNL     1     111.931 130.809 136.630  0.00  0.00    +0.000 C 
BRANCH  28  31
ATOM     30  O   UNL     1     109.908 130.482 135.115  0.00  0.00    +0.000 OA
ATOM     31  C   UNL     1     109.873 130.628 135.926  0.00  0.00    +0.000 C 
ENDBRANCH  28  31
ENDBRANCH  20  29
ENDBRANCH  14  20
ENDBRANCH   6  15
BRANCH   5  32
ATOM     32  O   UNL     1     111.512 127.065 135.981  0.00  0.00    +0.000 OA
BRANCH  32  41
ATOM     33  O   UNL     1     110.718 126.782 137.134  0.00  0.00    +0.000 OA
ATOM     34  O   UNL     1     108.672 126.851 135.743  0.00  0.00    +0.000 OA
ATOM     35  O   UNL     1     108.561 126.546 137.360  0.00  0.00    +0.000 OA
ATOM     36  O   UNL     1     110.149 127.111 135.053  0.00  0.00    +0.000 OA
ATOM     37  C   UNL     1     109.354 126.828 136.207  0.00  0.00    +0.000 C 
ATOM     38  C   UNL     1     109.299 126.676 137.016  0.00  0.00    +0.000 C 
ATOM     39  C   UNL     1     110.093 126.958 135.862  0.00  0.00    +0.000 C 
ATOM     40  C   UNL     1     109.980 126.653 137.479  0.00  0.00    +0.000 C 
ATOM     41  C   UNL     1     110.774 126.935 136.325  0.00  0.00    +0.000 C 
BRANCH  40  43
ATOM     42  O   UNL     1     110.136 127.083 138.832  0.00  0.00    +0.000 OA
ATOM     43  C   UNL     1     109.925 126.500 138.288  0.00  0.00    +0.000 C 
ENDBRANCH  40  43
ENDBRANCH  32  41
ENDBRANCH   5  32
TORSDOF 7
ENDMDL
MODEL 2
REMARK VINA RESULT:     -10.0      2.833      3.766
REMARK  Name = 14730435
REMARK  7 active torsions:
REMARK  status: ('A' for Active; 'I' for Inactive)
REMARK    1  A    between atoms: O_3  and  C_25
REMARK    2  A    between atoms: O_3  and  C_29
REMARK    3  A    between atoms: O_6  and  C_26
REMARK    4  A    between atoms: O_6  and  C_30
REMARK    5  A    between atoms: C_20  and  C_27
REMARK    6  A    between atoms: C_24  and  C_28
REMARK    7  A    between atoms: C_31  and  C_32
REMARK                            x       y       z     vdW  Elec       q    Type
REMARK                         _______ _______ _______ _____ _____    ______ ____
ROOT
ATOM      1  O   UNL     1     113.873 126.280 138.279  0.00  0.00    +0.000 OA
ATOM      2  O   UNL     1     111.789 124.948 138.178  0.00  0.00    +0.000 OA
ATOM      3  O   UNL     1     112.277 124.217 137.034  0.00  0.00    +0.000 OA
ATOM      4  O   UNL     1     114.923 124.847 135.971  0.00  0.00    +0.000 OA
ATOM      5  C   UNL     1     112.577 125.968 138.795  0.00  0.00    +0.000 A 
ATOM      6  C   UNL     1     113.271 126.412 138.829  0.00  0.00    +0.000 A 
ATOM      7  C   UNL     1     112.483 125.392 138.212  0.00  0.00    +0.000 A 
ATOM      8  C   UNL     1     113.085 125.260 137.662  0.00  0.00    +0.000 A 
ATOM      9  C   UNL     1     113.779 125.703 137.696  0.00  0.00    +0.000 A 
ATOM     10  C   UNL     1     112.975 124.656 137.060  0.00  0.00    +0.000 A 
ATOM     11  C   UNL     1     114.412 125.576 137.129  0.00  0.00    +0.000 A 
ATOM     12  C   UNL     1     113.597 124.515 136.485  0.00  0.00    +0.000 A 
ATOM     13  C   UNL     1     114.321 124.977 136.519  0.00  0.00    +0.000 A 
ENDROOT
BRANCH   6  15
ATOM     14  C   UNL     1     113.553 128.140 140.578  0.00  0.00    +0.000 A 
ATOM     15  C   UNL     1     113.365 126.988 139.411  0.00  0.00    +0.000 A 
ATOM     16  C   UNL     1     113.622 127.341 140.773  0.00  0.00    +0.000 A 
ATOM     17  C   UNL     1     113.391 128.363 139.800  0.00  0.00    +0.000 A 
ATOM     18  C   UNL     1     113.528 126.765 140.189  0.00  0.00    +0.000 A 
ATOM     19  C   UNL     1     113.297 127.787 139.218  0.00  0.00    +0.000 A 
BRANCH  14  20
ATOM     20  O   UNL     1     113.647 128.716 141.161  0.00  0.00    +0.000 OA
BRANCH  20  29
ATOM     21  O   UNL     1     112.308 128.677 141.657  0.00  0.00    +0.000 OA
ATOM     22  O   UNL     1     112.367 131.126 142.007  0.00  0.00    +0.000 OA
ATOM     23  O   UNL     1     111.008 130.271 142.385  0.00  0.00    +0.000 OA
ATOM     24  O   UNL     1     113.687 130.349 141.395  0.00  0.00    +0.000 OA
ATOM     25  C   UNL     1     112.347 130.310 141.890  0.00  0.00    +0.000 C 
ATOM     26  C   UNL     1     111.668 129.882 142.079  0.00  0.00    +0.000 C 
ATOM     27  C   UNL     1     113.007 129.922 141.584  0.00  0.00    +0.000 C 
ATOM     28  C   UNL     1     111.648 129.066 141.963  0.00  0.00    +0.000 C 
ATOM     29  C   UNL     1     112.988 129.104 141.467  0.00  0.00    +0.000 C 
BRANCH  28  31
ATOM     30  O   UNL     1     111.020 127.975 142.638  0.00  0.00    +0.000 OA
ATOM     31  C   UNL     1     110.968 128.638 142.152  0.00  0.00    +0.000 C 
ENDBRANCH  28  31
ENDBRANCH  20  29
ENDBRANCH  14  20
ENDBRANCH   6  15
BRANCH   5  32
ATOM     32  O   UNL     1     111.976 126.100 139.345  0.00  0.00    +0.000 OA
BRANCH  32  41
ATOM     33  O   UNL     1     111.124 126.772 138.415  0.00  0.00    +0.000 OA
ATOM     34  O   UNL     1     109.138 125.977 139.661  0.00  0.00    +0.000 OA
ATOM     35  O   UNL     1     108.949 126.913 138.316  0.00  0.00    +0.000 OA
ATOM     36  O   UNL     1     110.652 125.570 140.175  0.00  0.00    +0.000 OA
ATOM     37  C   UNL     1     109.800 126.242 139.245  0.00  0.00    +0.000 C 
ATOM     38  C   UNL     1     109.706 126.710 138.573  0.00  0.00    +0.000 C 
ATOM     39  C   UNL     1     110.558 126.038 139.503  0.00  0.00    +0.000 C 
ATOM     40  C   UNL     1     110.367 126.975 138.158  0.00  0.00    +0.000 C 
ATOM     41  C   UNL     1     111.219 126.303 139.088  0.00  0.00    +0.000 C 
BRANCH  40  43
ATOM     42  O   UNL     1     110.575 128.211 137.473  0.00  0.00    +0.000 OA
ATOM     43  C   UNL     1     110.272 127.443 137.486  0.00  0.00    +0.000 C 
ENDBRANCH  40  43
ENDBRANCH  32  41
ENDBRANCH   5  32
TORSDOF 7
ENDMDL
MODEL 3
REMARK VINA RESULT:      -9.7      1.374      3.100
REMARK  Name = 14730435
REMARK  7 active torsions:
REMARK  status: ('A' for Active; 'I' for Inactive)
REMARK    1  A    between atoms: O_3  and  C_25
REMARK    2  A    between atoms: O_3  and  C_29
REMARK    3  A    between atoms: O_6  and  C_26
REMARK    4  A    between atoms: O_6  and  C_30
REMARK    5  A    between atoms: C_20  and  C_27
REMARK    6  A    between atoms: C_24  and  C_28
REMARK    7  A    between atoms: C_31  and  C_32
REMARK                            x       y       z     vdW  Elec       q    Type
REMARK                         _______ _______ _______ _____ _____    ______ ____
ROOT
ATOM      1  O   UNL     1     110.939 126.497 136.011  0.00  0.00    +0.000 OA
ATOM      2  O   UNL     1     113.277 127.098 136.561  0.00  0.00    +0.000 OA
ATOM      3  O   UNL     1     113.633 125.706 136.697  0.00  0.00    +0.000 OA
ATOM      4  O   UNL     1     111.585 123.668 136.267  0.00  0.00    +0.000 OA
ATOM      5  C   UNL     1     111.945 127.490 136.222  0.00  0.00    +0.000 A 
ATOM      6  C   UNL     1     111.166 127.290 136.038  0.00  0.00    +0.000 A 
ATOM      7  C   UNL     1     112.498 126.898 136.378  0.00  0.00    +0.000 A 
ATOM      8  C   UNL     1     112.271 126.104 136.350  0.00  0.00    +0.000 A 
ATOM      9  C   UNL     1     111.492 125.904 136.167  0.00  0.00    +0.000 A 
ATOM     10  C   UNL     1     112.856 125.497 136.514  0.00  0.00    +0.000 A 
ATOM     11  C   UNL     1     111.244 125.083 136.134  0.00  0.00    +0.000 A 
ATOM     12  C   UNL     1     112.626 124.669 136.487  0.00  0.00    +0.000 A 
ATOM     13  C   UNL     1     111.814 124.460 136.296  0.00  0.00    +0.000 A 
ENDROOT
BRANCH   6  15
ATOM     14  C   UNL     1     109.509 129.067 135.571  0.00  0.00    +0.000 A 
ATOM     15  C   UNL     1     110.614 127.882 135.883  0.00  0.00    +0.000 A 
ATOM     16  C   UNL     1     110.130 128.935 135.045  0.00  0.00    +0.000 A 
ATOM     17  C   UNL     1     109.439 128.608 136.252  0.00  0.00    +0.000 A 
ATOM     18  C   UNL     1     110.683 128.342 135.201  0.00  0.00    +0.000 A 
ATOM     19  C   UNL     1     109.991 128.016 136.408  0.00  0.00    +0.000 A 
BRANCH  14  20
ATOM     20  O   UNL     1     108.956 129.660 135.414  0.00  0.00    +0.000 OA
BRANCH  20  29
ATOM     21  O   UNL     1     109.628 130.648 136.197  0.00  0.00    +0.000 OA
ATOM     22  O   UNL     1     107.460 131.738 136.682  0.00  0.00    +0.000 OA
ATOM     23  O   UNL     1     108.856 132.363 137.304  0.00  0.00    +0.000 OA
ATOM     24  O   UNL     1     107.510 130.387 135.737  0.00  0.00    +0.000 OA
ATOM     25  C   UNL     1     108.182 131.375 136.521  0.00  0.00    +0.000 C 
ATOM     26  C   UNL     1     108.881 131.687 136.831  0.00  0.00    +0.000 C 
ATOM     27  C   UNL     1     108.207 130.699 136.048  0.00  0.00    +0.000 C 
ATOM     28  C   UNL     1     109.603 131.323 136.670  0.00  0.00    +0.000 C 
ATOM     29  C   UNL     1     108.931 130.335 135.886  0.00  0.00    +0.000 C 
BRANCH  28  31
ATOM     30  O   UNL     1     110.926 131.827 136.479  0.00  0.00    +0.000 OA
ATOM     31  C   UNL     1     110.301 131.635 136.980  0.00  0.00    +0.000 C 
ENDBRANCH  28  31
ENDBRANCH  20  29
ENDBRANCH  14  20
ENDBRANCH   6  15
BRANCH   5  32
ATOM     32  O   UNL     1     112.172 128.283 136.250  0.00  0.00    +0.000 OA
BRANCH  32  41
ATOM     33  O   UNL     1     112.187 128.347 137.677  0.00  0.00    +0.000 OA
ATOM     34  O   UNL     1     113.970 130.061 137.580  0.00  0.00    +0.000 OA
ATOM     35  O   UNL     1     113.392 129.554 139.039  0.00  0.00    +0.000 OA
ATOM     36  O   UNL     1     113.360 129.425 136.185  0.00  0.00    +0.000 OA
ATOM     37  C   UNL     1     113.376 129.490 137.613  0.00  0.00    +0.000 C 
ATOM     38  C   UNL     1     113.086 129.236 138.342  0.00  0.00    +0.000 C 
ATOM     39  C   UNL     1     113.071 129.172 136.915  0.00  0.00    +0.000 C 
ATOM     40  C   UNL     1     112.493 128.666 138.374  0.00  0.00    +0.000 C 
ATOM     41  C   UNL     1     112.477 128.601 136.947  0.00  0.00    +0.000 C 
BRANCH  40  43
ATOM     42  O   UNL     1     111.411 128.540 139.300  0.00  0.00    +0.000 OA
ATOM     43  C   UNL     1     112.203 128.412 139.104  0.00  0.00    +0.000 C 
ENDBRANCH  40  43
ENDBRANCH  32  41
ENDBRANCH   5  32
TORSDOF 7
ENDMDL
MODEL 4
REMARK VINA RESULT:      -9.6      2.884      5.686
REMARK  Name = 14730435
REMARK  7 active torsions:
REMARK  status: ('A' for Active; 'I' for Inactive)
REMARK    1  A    between atoms: O_3  and  C_25
REMARK    2  A    between atoms: O_3  and  C_29
REMARK    3  A    between atoms: O_6  and  C_26
REMARK    4  A    between atoms: O_6  and  C_30
REMARK    5  A    between atoms: C_20  and  C_27
REMARK    6  A    between atoms: C_24  and  C_28
REMARK    7  A    between atoms: C_31  and  C_32
REMARK                            x       y       z     vdW  Elec       q    Type
REMARK                         _______ _______ _______ _____ _____    ______ ____
ROOT
ATOM      1  O   UNL     1     113.249 128.923 140.380  0.00  0.00    +0.000 OA
ATOM      2  O   UNL     1     111.578 128.175 142.046  0.00  0.00    +0.000 OA
ATOM      3  O   UNL     1     111.749 129.390 142.805  0.00  0.00    +0.000 OA
ATOM      4  O   UNL     1     113.648 131.399 141.861  0.00  0.00    +0.000 OA
ATOM      5  C   UNL     1     112.319 127.943 140.847  0.00  0.00    +0.000 A 
ATOM      6  C   UNL     1     112.876 128.191 140.291  0.00  0.00    +0.000 A 
ATOM      7  C   UNL     1     112.135 128.424 141.490  0.00  0.00    +0.000 A 
ATOM      8  C   UNL     1     112.508 129.155 141.579  0.00  0.00    +0.000 A 
ATOM      9  C   UNL     1     113.065 129.404 141.025  0.00  0.00    +0.000 A 
ATOM     10  C   UNL     1     112.308 129.648 142.255  0.00  0.00    +0.000 A 
ATOM     11  C   UNL     1     113.460 130.162 141.105  0.00  0.00    +0.000 A 
ATOM     12  C   UNL     1     112.693 130.409 142.352  0.00  0.00    +0.000 A 
ATOM     13  C   UNL     1     113.273 130.669 141.774  0.00  0.00    +0.000 A 
ENDROOT
BRANCH   6  15
ATOM     14  C   UNL     1     113.429 126.748 138.359  0.00  0.00    +0.000 A 
ATOM     15  C   UNL     1     113.060 127.710 139.647  0.00  0.00    +0.000 A 
ATOM     16  C   UNL     1     113.020 127.454 138.241  0.00  0.00    +0.000 A 
ATOM     17  C   UNL     1     113.654 126.522 139.120  0.00  0.00    +0.000 A 
ATOM     18  C   UNL     1     112.835 127.936 138.886  0.00  0.00    +0.000 A 
ATOM     19  C   UNL     1     113.469 127.003 139.763  0.00  0.00    +0.000 A 
BRANCH  14  20
ATOM     20  O   UNL     1     113.613 126.266 137.714  0.00  0.00    +0.000 OA
BRANCH  20  29
ATOM     21  O   UNL     1     112.332 125.634 137.687  0.00  0.00    +0.000 OA
ATOM     22  O   UNL     1     113.359 123.595 136.733  0.00  0.00    +0.000 OA
ATOM     23  O   UNL     1     111.736 123.643 137.024  0.00  0.00    +0.000 OA
ATOM     24  O   UNL     1     114.298 124.907 137.078  0.00  0.00    +0.000 OA
ATOM     25  C   UNL     1     113.017 124.274 137.051  0.00  0.00    +0.000 C 
ATOM     26  C   UNL     1     112.205 124.299 137.196  0.00  0.00    +0.000 C 
ATOM     27  C   UNL     1     113.487 124.930 137.223  0.00  0.00    +0.000 C 
ATOM     28  C   UNL     1     111.863 124.978 137.514  0.00  0.00    +0.000 C 
ATOM     29  C   UNL     1     113.144 125.611 137.542  0.00  0.00    +0.000 C 
BRANCH  28  31
ATOM     30  O   UNL     1     110.595 125.616 137.352  0.00  0.00    +0.000 OA
ATOM     31  C   UNL     1     111.051 125.002 137.660  0.00  0.00    +0.000 C 
ENDBRANCH  28  31
ENDBRANCH  20  29
ENDBRANCH  14  20
ENDBRANCH   6  15
BRANCH   5  32
ATOM     32  O   UNL     1     111.946 127.212 140.758  0.00  0.00    +0.000 OA
BRANCH  32  41
ATOM     33  O   UNL     1     110.714 127.773 140.300  0.00  0.00    +0.000 OA
ATOM     34  O   UNL     1     109.482 125.860 141.272  0.00  0.00    +0.000 OA
ATOM     35  O   UNL     1     108.661 127.058 140.491  0.00  0.00    +0.000 OA
ATOM     36  O   UNL     1     111.124 125.937 141.406  0.00  0.00    +0.000 OA
ATOM     37  C   UNL     1     109.892 126.497 140.948  0.00  0.00    +0.000 C 
ATOM     38  C   UNL     1     109.482 127.097 140.557  0.00  0.00    +0.000 C 
ATOM     39  C   UNL     1     110.714 126.536 141.015  0.00  0.00    +0.000 C 
ATOM     40  C   UNL     1     109.893 127.734 140.234  0.00  0.00    +0.000 C 
ATOM     41  C   UNL     1     111.125 127.173 140.691  0.00  0.00    +0.000 C 
BRANCH  40  43
ATOM     42  O   UNL     1     109.555 128.417 139.025  0.00  0.00    +0.000 OA
ATOM     43  C   UNL     1     109.483 128.334 139.843  0.00  0.00    +0.000 C 
ENDBRANCH  40  43
ENDBRANCH  32  41
ENDBRANCH   5  32
TORSDOF 7
ENDMDL
MODEL 5
REMARK VINA RESULT:      -9.4      1.673      3.325
REMARK  Name = 14730435
REMARK  7 active torsions:
REMARK  status: ('A' for Active; 'I' for Inactive)
REMARK    1  A    between atoms: O_3  and  C_25
REMARK    2  A    between atoms: O_3  and  C_29
REMARK    3  A    between atoms: O_6  and  C_26
REMARK    4  A    between atoms: O_6  and  C_30
REMARK    5  A    between atoms: C_20  and  C_27
REMARK    6  A    between atoms: C_24  and  C_28
REMARK    7  A    between atoms: C_31  and  C_32
REMARK                            x       y       z     vdW  Elec       q    Type
REMARK                         _______ _______ _______ _____ _____    ______ ____
ROOT
ATOM      1  O   UNL     1     112.773 127.187 136.566  0.00  0.00    +0.000 OA
ATOM      2  O   UNL     1     112.834 127.448 139.027  0.00  0.00    +0.000 OA
ATOM      3  O   UNL     1     113.778 126.364 139.148  0.00  0.00    +0.000 OA
ATOM      4  O   UNL     1     114.678 124.990 136.732  0.00  0.00    +0.000 OA
ATOM      5  C   UNL     1     112.336 127.856 137.751  0.00  0.00    +0.000 A 
ATOM      6  C   UNL     1     112.315 127.769 136.931  0.00  0.00    +0.000 A 
ATOM      7  C   UNL     1     112.813 127.362 138.207  0.00  0.00    +0.000 A 
ATOM      8  C   UNL     1     113.271 126.779 137.842  0.00  0.00    +0.000 A 
ATOM      9  C   UNL     1     113.251 126.692 137.023  0.00  0.00    +0.000 A 
ATOM     10  C   UNL     1     113.765 126.270 138.328  0.00  0.00    +0.000 A 
ATOM     11  C   UNL     1     113.722 126.090 136.631  0.00  0.00    +0.000 A 
ATOM     12  C   UNL     1     114.243 125.662 137.954  0.00  0.00    +0.000 A 
ATOM     13  C   UNL     1     114.222 125.571 137.100  0.00  0.00    +0.000 A 
ENDROOT
BRANCH   6  15
ATOM     14  C   UNL     1     110.884 129.254 135.564  0.00  0.00    +0.000 A 
ATOM     15  C   UNL     1     111.838 128.264 136.476  0.00  0.00    +0.000 A 
ATOM     16  C   UNL     1     111.704 129.333 135.536  0.00  0.00    +0.000 A 
ATOM     17  C   UNL     1     110.540 128.680 136.047  0.00  0.00    +0.000 A 
ATOM     18  C   UNL     1     112.182 128.838 135.993  0.00  0.00    +0.000 A 
ATOM     19  C   UNL     1     111.017 128.185 136.502  0.00  0.00    +0.000 A 
BRANCH  14  20
ATOM     20  O   UNL     1     110.406 129.749 135.107  0.00  0.00    +0.000 OA
BRANCH  20  29
ATOM     21  O   UNL     1     110.346 130.804 136.068  0.00  0.00    +0.000 OA
ATOM     22  O   UNL     1     108.049 131.348 135.326  0.00  0.00    +0.000 OA
ATOM     23  O   UNL     1     108.754 132.222 136.535  0.00  0.00    +0.000 OA
ATOM     24  O   UNL     1     108.875 130.111 134.612  0.00  0.00    +0.000 OA
ATOM     25  C   UNL     1     108.814 131.167 135.574  0.00  0.00    +0.000 C 
ATOM     26  C   UNL     1     109.167 131.604 136.178  0.00  0.00    +0.000 C 
ATOM     27  C   UNL     1     109.227 130.548 135.217  0.00  0.00    +0.000 C 
ATOM     28  C   UNL     1     109.932 131.422 136.425  0.00  0.00    +0.000 C 
ATOM     29  C   UNL     1     109.993 130.367 135.464  0.00  0.00    +0.000 C 
BRANCH  28  31
ATOM     30  O   UNL     1     111.063 132.122 136.949  0.00  0.00    +0.000 OA
ATOM     31  C   UNL     1     110.286 131.859 137.030  0.00  0.00    +0.000 C 
ENDBRANCH  28  31
ENDBRANCH  20  29
ENDBRANCH  14  20
ENDBRANCH   6  15
BRANCH   5  32
ATOM     32  O   UNL     1     111.879 128.438 138.116  0.00  0.00    +0.000 OA
BRANCH  32  41
ATOM     33  O   UNL     1     112.974 129.329 138.334  0.00  0.00    +0.000 OA
ATOM     34  O   UNL     1     111.867 130.190 140.374  0.00  0.00    +0.000 OA
ATOM     35  O   UNL     1     113.331 130.793 139.913  0.00  0.00    +0.000 OA
ATOM     36  O   UNL     1     111.141 129.011 139.476  0.00  0.00    +0.000 OA
ATOM     37  C   UNL     1     112.236 129.903 139.694  0.00  0.00    +0.000 C 
ATOM     38  C   UNL     1     112.968 130.205 139.463  0.00  0.00    +0.000 C 
ATOM     39  C   UNL     1     111.873 129.313 139.244  0.00  0.00    +0.000 C 
ATOM     40  C   UNL     1     113.337 129.918 138.784  0.00  0.00    +0.000 C 
ATOM     41  C   UNL     1     112.241 129.027 138.565  0.00  0.00    +0.000 C 
BRANCH  40  43
ATOM     42  O   UNL     1     114.137 130.638 137.844  0.00  0.00    +0.000 OA
ATOM     43  C   UNL     1     114.069 130.220 138.553  0.00  0.00    +0.000 C 
ENDBRANCH  40  43
ENDBRANCH  32  41
ENDBRANCH   5  32
TORSDOF 7
ENDMDL
MODEL 6
REMARK VINA RESULT:      -9.4      1.804      3.256
REMARK  Name = 14730435
REMARK  7 active torsions:
REMARK  status: ('A' for Active; 'I' for Inactive)
REMARK    1  A    between atoms: O_3  and  C_25
REMARK    2  A    between atoms: O_3  and  C_29
REMARK    3  A    between atoms: O_6  and  C_26
REMARK    4  A    between atoms: O_6  and  C_30
REMARK    5  A    between atoms: C_20  and  C_27
REMARK    6  A    between atoms: C_24  and  C_28
REMARK    7  A    between atoms: C_31  and  C_32
REMARK                            x       y       z     vdW  Elec       q    Type
REMARK                         _______ _______ _______ _____ _____    ______ ____
ROOT
ATOM      1  O   UNL     1     111.353 125.960 137.996  0.00  0.00    +0.000 OA
ATOM      2  O   UNL     1     113.283 126.698 136.632  0.00  0.00    +0.000 OA
ATOM      3  O   UNL     1     113.532 125.344 136.200  0.00  0.00    +0.000 OA
ATOM      4  O   UNL     1     111.795 123.204 137.167  0.00  0.00    +0.000 OA
ATOM      5  C   UNL     1     112.206 127.004 137.520  0.00  0.00    +0.000 A 
ATOM      6  C   UNL     1     111.562 126.759 137.975  0.00  0.00    +0.000 A 
ATOM      7  C   UNL     1     112.639 126.453 137.087  0.00  0.00    +0.000 A 
ATOM      8  C   UNL     1     112.430 125.654 137.108  0.00  0.00    +0.000 A 
ATOM      9  C   UNL     1     111.787 125.409 137.563  0.00  0.00    +0.000 A 
ATOM     10  C   UNL     1     112.890 125.089 136.652  0.00  0.00    +0.000 A 
ATOM     11  C   UNL     1     111.559 124.581 137.593  0.00  0.00    +0.000 A 
ATOM     12  C   UNL     1     112.676 124.257 136.671  0.00  0.00    +0.000 A 
ATOM     13  C   UNL     1     112.007 124.001 137.144  0.00  0.00    +0.000 A 
ENDROOT
BRANCH   6  15
ATOM     14  C   UNL     1     110.261 128.414 139.275  0.00  0.00    +0.000 A 
ATOM     15  C   UNL     1     111.129 127.310 138.408  0.00  0.00    +0.000 A 
ATOM     16  C   UNL     1     111.018 128.199 139.523  0.00  0.00    +0.000 A 
ATOM     17  C   UNL     1     109.938 128.077 138.595  0.00  0.00    +0.000 A 
ATOM     18  C   UNL     1     111.452 127.647 139.088  0.00  0.00    +0.000 A 
ATOM     19  C   UNL     1     110.371 127.526 138.162  0.00  0.00    +0.000 A 
BRANCH  14  20
ATOM     20  O   UNL     1     109.827 128.966 139.709  0.00  0.00    +0.000 OA
BRANCH  20  29
ATOM     21  O   UNL     1     110.354 130.113 139.041  0.00  0.00    +0.000 OA
ATOM     22  O   UNL     1     108.184 131.270 139.316  0.00  0.00    +0.000 OA
ATOM     23  O   UNL     1     109.434 132.032 138.555  0.00  0.00    +0.000 OA
ATOM     24  O   UNL     1     108.380 129.737 139.893  0.00  0.00    +0.000 OA
ATOM     25  C   UNL     1     108.907 130.885 139.224  0.00  0.00    +0.000 C 
ATOM     26  C   UNL     1     109.533 131.265 138.844  0.00  0.00    +0.000 C 
ATOM     27  C   UNL     1     109.005 130.118 139.513  0.00  0.00    +0.000 C 
ATOM     28  C   UNL     1     110.255 130.880 138.752  0.00  0.00    +0.000 C 
ATOM     29  C   UNL     1     109.729 129.732 139.421  0.00  0.00    +0.000 C 
BRANCH  28  31
ATOM     30  O   UNL     1     111.628 131.277 138.721  0.00  0.00    +0.000 OA
ATOM     31  C   UNL     1     110.881 131.260 138.372  0.00  0.00    +0.000 C 
ENDBRANCH  28  31
ENDBRANCH  20  29
ENDBRANCH  14  20
ENDBRANCH   6  15
BRANCH   5  32
ATOM     32  O   UNL     1     112.415 127.802 137.499  0.00  0.00    +0.000 OA
BRANCH  32  41
ATOM     33  O   UNL     1     111.886 128.026 136.190  0.00  0.00    +0.000 OA
ATOM     34  O   UNL     1     113.601 129.766 135.795  0.00  0.00    +0.000 OA
ATOM     35  O   UNL     1     112.501 129.410 134.619  0.00  0.00    +0.000 OA
ATOM     36  O   UNL     1     113.558 128.962 137.235  0.00  0.00    +0.000 OA
ATOM     37  C   UNL     1     113.029 129.186 135.927  0.00  0.00    +0.000 C 
ATOM     38  C   UNL     1     112.479 129.008 135.339  0.00  0.00    +0.000 C 
ATOM     39  C   UNL     1     113.008 128.784 136.648  0.00  0.00    +0.000 C 
ATOM     40  C   UNL     1     111.908 128.428 135.471  0.00  0.00    +0.000 C 
ATOM     41  C   UNL     1     112.437 128.204 136.779  0.00  0.00    +0.000 C 
BRANCH  40  43
ATOM     42  O   UNL     1     110.553 128.380 135.018  0.00  0.00    +0.000 OA
ATOM     43  C   UNL     1     111.357 128.249 134.883  0.00  0.00    +0.000 C 
ENDBRANCH  40  43
ENDBRANCH  32  41
ENDBRANCH   5  32
TORSDOF 7
ENDMDL
MODEL 7
REMARK VINA RESULT:      -9.4      1.396      5.802
REMARK  Name = 14730435
REMARK  7 active torsions:
REMARK  status: ('A' for Active; 'I' for Inactive)
REMARK    1  A    between atoms: O_3  and  C_25
REMARK    2  A    between atoms: O_3  and  C_29
REMARK    3  A    between atoms: O_6  and  C_26
REMARK    4  A    between atoms: O_6  and  C_30
REMARK    5  A    between atoms: C_20  and  C_27
REMARK    6  A    between atoms: C_24  and  C_28
REMARK    7  A    between atoms: C_31  and  C_32
REMARK                            x       y       z     vdW  Elec       q    Type
REMARK                         _______ _______ _______ _____ _____    ______ ____
ROOT
ATOM      1  O   UNL     1     109.186 129.601 135.771  0.00  0.00    +0.000 OA
ATOM      2  O   UNL     1     110.805 131.363 136.406  0.00  0.00    +0.000 OA
ATOM      3  O   UNL     1     109.751 132.347 136.473  0.00  0.00    +0.000 OA
ATOM      4  O   UNL     1     107.009 131.531 135.886  0.00  0.00    +0.000 OA
ATOM      5  C   UNL     1     110.527 130.005 136.059  0.00  0.00    +0.000 A 
ATOM      6  C   UNL     1     109.988 129.417 135.848  0.00  0.00    +0.000 A 
ATOM      7  C   UNL     1     110.266 130.775 136.194  0.00  0.00    +0.000 A 
ATOM      8  C   UNL     1     109.464 130.959 136.118  0.00  0.00    +0.000 A 
ATOM      9  C   UNL     1     108.925 130.372 135.907  0.00  0.00    +0.000 A 
ATOM     10  C   UNL     1     109.204 131.765 136.262  0.00  0.00    +0.000 A 
ATOM     11  C   UNL     1     108.089 130.549 135.824  0.00  0.00    +0.000 A 
ATOM     12  C   UNL     1     108.372 131.962 136.184  0.00  0.00    +0.000 A 
ATOM     13  C   UNL     1     107.810 131.351 135.963  0.00  0.00    +0.000 A 
ENDROOT
BRANCH   6  15
ATOM     14  C   UNL     1     110.771 127.106 135.441  0.00  0.00    +0.000 A 
ATOM     15  C   UNL     1     110.249 128.647 135.712  0.00  0.00    +0.000 A 
ATOM     16  C   UNL     1     110.973 127.707 134.914  0.00  0.00    +0.000 A 
ATOM     17  C   UNL     1     110.309 127.274 136.104  0.00  0.00    +0.000 A 
ATOM     18  C   UNL     1     110.711 128.479 135.050  0.00  0.00    +0.000 A 
ATOM     19  C   UNL     1     110.048 128.044 136.239  0.00  0.00    +0.000 A 
BRANCH  14  20
ATOM     20  O   UNL     1     111.033 126.334 135.306  0.00  0.00    +0.000 OA
BRANCH  20  29
ATOM     21  O   UNL     1     112.220 126.450 136.092  0.00  0.00    +0.000 OA
ATOM     22  O   UNL     1     112.029 124.068 136.731  0.00  0.00    +0.000 OA
ATOM     23  O   UNL     1     113.280 124.978 137.304  0.00  0.00    +0.000 OA
ATOM     24  O   UNL     1     110.905 124.746 135.732  0.00  0.00    +0.000 OA
ATOM     25  C   UNL     1     112.093 124.861 136.518  0.00  0.00    +0.000 C 
ATOM     26  C   UNL     1     112.718 125.317 136.804  0.00  0.00    +0.000 C 
ATOM     27  C   UNL     1     111.531 125.200 136.018  0.00  0.00    +0.000 C 
ATOM     28  C   UNL     1     112.782 126.111 136.591  0.00  0.00    +0.000 C 
ATOM     29  C   UNL     1     111.594 125.996 135.805  0.00  0.00    +0.000 C 
BRANCH  28  31
ATOM     30  O   UNL     1     113.869 127.008 136.356  0.00  0.00    +0.000 OA
ATOM     31  C   UNL     1     113.407 126.567 136.878  0.00  0.00    +0.000 C 
ENDBRANCH  28  31
ENDBRANCH  20  29
ENDBRANCH  14  20
ENDBRANCH   6  15
BRANCH   5  32
ATOM     32  O   UNL     1     111.328 129.822 136.136  0.00  0.00    +0.000 OA
BRANCH  32  41
ATOM     33  O   UNL     1     111.316 129.831 137.565  0.00  0.00    +0.000 OA
ATOM     34  O   UNL     1     113.671 130.590 137.579  0.00  0.00    +0.000 OA
ATOM     35  O   UNL     1     112.875 130.346 139.002  0.00  0.00    +0.000 OA
ATOM     36  O   UNL     1     112.898 130.328 136.145  0.00  0.00    +0.000 OA
ATOM     37  C   UNL     1     112.886 130.337 137.574  0.00  0.00    +0.000 C 
ATOM     38  C   UNL     1     112.487 130.215 138.286  0.00  0.00    +0.000 C 
ATOM     39  C   UNL     1     112.499 130.206 136.857  0.00  0.00    +0.000 C 
ATOM     40  C   UNL     1     111.703 129.962 138.281  0.00  0.00    +0.000 C 
ATOM     41  C   UNL     1     111.715 129.953 136.852  0.00  0.00    +0.000 C 
BRANCH  40  43
ATOM     42  O   UNL     1     111.023 129.087 139.183  0.00  0.00    +0.000 OA
ATOM     43  C   UNL     1     111.304 129.840 138.992  0.00  0.00    +0.000 C 
ENDBRANCH  40  43
ENDBRANCH  32  41
ENDBRANCH   5  32
TORSDOF 7
ENDMDL
MODEL 8
REMARK VINA RESULT:      -9.4      1.572      2.030
REMARK  Name = 14730435
REMARK  7 active torsions:
REMARK  status: ('A' for Active; 'I' for Inactive)
REMARK    1  A    between atoms: O_3  and  C_25
REMARK    2  A    between atoms: O_3  and  C_29
REMARK    3  A    between atoms: O_6  and  C_26
REMARK    4  A    between atoms: O_6  and  C_30
REMARK    5  A    between atoms: C_20  and  C_27
REMARK    6  A    between atoms: C_24  and  C_28
REMARK    7  A    between atoms: C_31  and  C_32
REMARK                            x       y       z     vdW  Elec       q    Type
REMARK                         _______ _______ _______ _____ _____    ______ ____
ROOT
ATOM      1  O   UNL     1     113.136 126.719 137.909  0.00  0.00    +0.000 OA
ATOM      2  O   UNL     1     111.215 125.348 137.159  0.00  0.00    +0.000 OA
ATOM      3  O   UNL     1     112.093 124.256 136.814  0.00  0.00    +0.000 OA
ATOM      4  O   UNL     1     114.967 124.556 137.237  0.00  0.00    +0.000 OA
ATOM      5  C   UNL     1     111.730 126.567 137.700  0.00  0.00    +0.000 A 
ATOM      6  C   UNL     1     112.369 127.024 137.950  0.00  0.00    +0.000 A 
ATOM      7  C   UNL     1     111.855 125.806 137.409  0.00  0.00    +0.000 A 
ATOM      8  C   UNL     1     112.621 125.500 137.368  0.00  0.00    +0.000 A 
ATOM      9  C   UNL     1     113.261 125.957 137.617  0.00  0.00    +0.000 A 
ATOM     10  C   UNL     1     112.739 124.706 137.062  0.00  0.00    +0.000 A 
ATOM     11  C   UNL     1     114.063 125.651 137.580  0.00  0.00    +0.000 A 
ATOM     12  C   UNL     1     113.534 124.383 137.017  0.00  0.00    +0.000 A 
ATOM     13  C   UNL     1     114.201 124.858 137.277  0.00  0.00    +0.000 A 
ENDROOT
BRANCH   6  15
ATOM     14  C   UNL     1     111.994 129.308 138.824  0.00  0.00    +0.000 A 
ATOM     15  C   UNL     1     112.244 127.785 138.241  0.00  0.00    +0.000 A 
ATOM     16  C   UNL     1     112.336 129.203 138.081  0.00  0.00    +0.000 A 
ATOM     17  C   UNL     1     111.776 128.653 139.275  0.00  0.00    +0.000 A 
ATOM     18  C   UNL     1     112.462 128.440 137.790  0.00  0.00    +0.000 A 
ATOM     19  C   UNL     1     111.901 127.892 138.984  0.00  0.00    +0.000 A 
BRANCH  14  20
ATOM     20  O   UNL     1     111.868 130.071 139.115  0.00  0.00    +0.000 OA
BRANCH  20  29
ATOM     21  O   UNL     1     110.598 130.240 138.484  0.00  0.00    +0.000 OA
ATOM     22  O   UNL     1     109.857 131.672 140.360  0.00  0.00    +0.000 OA
ATOM     23  O   UNL     1     108.833 131.364 139.103  0.00  0.00    +0.000 OA
ATOM     24  O   UNL     1     111.375 131.026 140.366  0.00  0.00    +0.000 OA
ATOM     25  C   UNL     1     110.104 131.195 139.735  0.00  0.00    +0.000 C 
ATOM     26  C   UNL     1     109.592 131.040 139.106  0.00  0.00    +0.000 C 
ATOM     27  C   UNL     1     110.863 130.872 139.738  0.00  0.00    +0.000 C 
ATOM     28  C   UNL     1     109.839 130.563 138.481  0.00  0.00    +0.000 C 
ATOM     29  C   UNL     1     111.110 130.394 139.112  0.00  0.00    +0.000 C 
BRANCH  28  31
ATOM     30  O   UNL     1     109.595 130.480 137.075  0.00  0.00    +0.000 OA
ATOM     31  C   UNL     1     109.328 130.409 137.852  0.00  0.00    +0.000 C 
ENDBRANCH  28  31
ENDBRANCH  20  29
ENDBRANCH  14  20
ENDBRANCH   6  15
BRANCH   5  32
ATOM     32  O   UNL     1     110.964 126.871 137.741  0.00  0.00    +0.000 OA
BRANCH  32  41
ATOM     33  O   UNL     1     110.882 127.106 136.334  0.00  0.00    +0.000 OA
ATOM     34  O   UNL     1     108.421 126.864 136.437  0.00  0.00    +0.000 OA
ATOM     35  O   UNL     1     109.160 127.179 134.997  0.00  0.00    +0.000 OA
ATOM     36  O   UNL     1     109.324 126.710 137.810  0.00  0.00    +0.000 OA
ATOM     37  C   UNL     1     109.242 126.945 136.403  0.00  0.00    +0.000 C 
ATOM     38  C   UNL     1     109.611 127.102 135.683  0.00  0.00    +0.000 C 
ATOM     39  C   UNL     1     109.693 126.868 137.090  0.00  0.00    +0.000 C 
ATOM     40  C   UNL     1     110.431 127.183 135.648  0.00  0.00    +0.000 C 
ATOM     41  C   UNL     1     110.513 126.948 137.056  0.00  0.00    +0.000 C 
BRANCH  40  43
ATOM     42  O   UNL     1     111.196 128.056 134.816  0.00  0.00    +0.000 OA
ATOM     43  C   UNL     1     110.800 127.340 134.928  0.00  0.00    +0.000 C 
ENDBRANCH  40  43
ENDBRANCH  32  41
ENDBRANCH   5  32
TORSDOF 7
ENDMDL
