MODEL 1
REMARK VINA RESULT:     -10.2      0.000      0.000
REMARK  Name = 131835890
REMARK  9 active torsions:
REMARK  status: ('A' for Active; 'I' for Inactive)
REMARK    1  A    between atoms: O_2  and  C_17
REMARK    2  A    between atoms: O_2  and  C_23
REMARK    3  A    between atoms: C_16  and  C_22
REMARK    4  A    between atoms: C_18  and  C_26
REMARK    5  A    between atoms: C_19  and  C_25
REMARK    6  A    between atoms: C_22  and  C_27
REMARK    7  A    between atoms: C_33  and  C_34
REMARK    8  A    between atoms: C_34  and  C_39
REMARK    9  A    between atoms: C_39  and  C_40
REMARK                            x       y       z     vdW  Elec       q    Type
REMARK                         _______ _______ _______ _____ _____    ______ ____
ROOT
ATOM      1  O   UNL     1     109.509 128.110 135.893  0.00  0.00    +0.000 OA
ATOM      2  O   UNL     1     111.405 129.602 136.446  0.00  0.00    +0.000 OA
ATOM      3  O   UNL     1     107.689 130.384 135.911  0.00  0.00    +0.000 OA
ATOM      4  C   UNL     1     110.900 128.296 136.164  0.00  0.00    +0.000 C 
ATOM      5  C   UNL     1     110.267 127.799 135.980  0.00  0.00    +0.000 C 
ATOM      6  C   UNL     1     110.772 129.106 136.262  0.00  0.00    +0.000 C 
ATOM      7  C   UNL     1     110.014 129.417 136.175  0.00  0.00    +0.000 A 
ATOM      8  C   UNL     1     109.895 130.262 136.279  0.00  0.00    +0.000 A 
ATOM      9  C   UNL     1     109.381 128.920 135.991  0.00  0.00    +0.000 A 
ATOM     10  C   UNL     1     109.107 130.593 136.190  0.00  0.00    +0.000 A 
ATOM     11  C   UNL     1     108.587 129.233 135.898  0.00  0.00    +0.000 A 
ATOM     12  C   UNL     1     108.449 130.075 135.999  0.00  0.00    +0.000 A 
ENDROOT
BRANCH   5  15
ATOM     13  O   UNL     1     109.988 126.761 137.233  0.00  0.00    +0.000 OA
ATOM     14  O   UNL     1     110.777 124.562 135.588  0.00  0.00    +0.000 OA
ATOM     15  C   UNL     1     110.395 126.989 135.883  0.00  0.00    +0.000 A 
ATOM     16  C   UNL     1     110.255 126.471 136.508  0.00  0.00    +0.000 A 
ATOM     17  C   UNL     1     110.662 126.699 135.158  0.00  0.00    +0.000 A 
ATOM     18  C   UNL     1     110.382 125.662 136.410  0.00  0.00    +0.000 A 
ATOM     19  C   UNL     1     110.789 125.890 135.060  0.00  0.00    +0.000 A 
ATOM     20  C   UNL     1     110.650 125.371 135.686  0.00  0.00    +0.000 A 
ENDBRANCH   5  15
BRANCH   8  21
ATOM     21  O   UNL     1     110.533 130.752 136.463  0.00  0.00    +0.000 OA
BRANCH  21  29
ATOM     22  O   UNL     1     110.254 131.181 137.798  0.00  0.00    +0.000 OA
ATOM     23  O   UNL     1     110.540 133.538 137.101  0.00  0.00    +0.000 OA
ATOM     24  O   UNL     1     110.723 132.324 135.999  0.00  0.00    +0.000 OA
ATOM     25  O   UNL     1     110.166 133.180 138.667  0.00  0.00    +0.000 OA
ATOM     26  C   UNL     1     110.445 132.752 137.333  0.00  0.00    +0.000 C 
ATOM     27  C   UNL     1     110.536 132.144 136.782  0.00  0.00    +0.000 C 
ATOM     28  C   UNL     1     110.258 132.573 138.116  0.00  0.00    +0.000 C 
ATOM     29  C   UNL     1     110.441 131.359 137.014  0.00  0.00    +0.000 C 
ATOM     30  C   UNL     1     110.162 131.787 138.349  0.00  0.00    +0.000 C 
BRANCH  30  33
ATOM     31  O   UNL     1     110.577 131.467 139.678  0.00  0.00    +0.000 OA
ATOM     32  O   UNL     1     109.186 131.572 139.369  0.00  0.00    +0.000 OA
ATOM     33  C   UNL     1     109.976 131.609 139.131  0.00  0.00    +0.000 C 
ENDBRANCH  30  33
ENDBRANCH  21  29
ENDBRANCH   8  21
BRANCH   4  34
ATOM     34  C   UNL     1     111.658 127.984 136.251  0.00  0.00    +0.000 C 
BRANCH  34  35
ATOM     35  C   UNL     1     112.310 128.398 135.963  0.00  0.00    +0.000 C 
ATOM     36  C   UNL     1     113.072 128.177 136.187  0.00  0.00    +0.000 C 
ATOM     37  C   UNL     1     113.725 128.591 135.899  0.00  0.00    +0.000 C 
BRANCH  36  38
ATOM     38  C   UNL     1     113.183 127.540 136.701  0.00  0.00    +0.000 C 
BRANCH  38  39
ATOM     39  C   UNL     1     113.826 127.034 136.597  0.00  0.00    +0.000 C 
BRANCH  39  40
ATOM     40  C   UNL     1     113.975 126.439 137.150  0.00  0.00    +0.000 C 
ATOM     41  C   UNL     1     114.380 125.757 136.923  0.00  0.00    +0.000 C 
ATOM     42  C   UNL     1     114.530 125.163 137.475  0.00  0.00    +0.000 C 
ATOM     43  C   UNL     1     114.635 125.669 136.143  0.00  0.00    +0.000 C 
ENDBRANCH  39  40
ENDBRANCH  38  39
ENDBRANCH  36  38
ENDBRANCH  34  35
ENDBRANCH   4  34
TORSDOF 9
ENDMDL
MODEL 2
REMARK VINA RESULT:      -9.6      1.813      3.276
REMARK  Name = 131835890
REMARK  9 active torsions:
REMARK  status: ('A' for Active; 'I' for Inactive)
REMARK    1  A    between atoms: O_2  and  C_17
REMARK    2  A    between atoms: O_2  and  C_23
REMARK    3  A    between atoms: C_16  and  C_22
REMARK    4  A    between atoms: C_18  and  C_26
REMARK    5  A    between atoms: C_19  and  C_25
REMARK    6  A    between atoms: C_22  and  C_27
REMARK    7  A    between atoms: C_33  and  C_34
REMARK    8  A    between atoms: C_34  and  C_39
REMARK    9  A    between atoms: C_39  and  C_40
REMARK                            x       y       z     vdW  Elec       q    Type
REMARK                         _______ _______ _______ _____ _____    ______ ____
ROOT
ATOM      1  O   UNL     1     112.378 130.824 136.546  0.00  0.00    +0.000 OA
ATOM      2  O   UNL     1     111.069 129.153 137.820  0.00  0.00    +0.000 OA
ATOM      3  O   UNL     1     110.702 132.964 137.593  0.00  0.00    +0.000 OA
ATOM      4  C   UNL     1     112.137 129.467 136.924  0.00  0.00    +0.000 C 
ATOM      5  C   UNL     1     112.573 130.024 136.499  0.00  0.00    +0.000 C 
ATOM      6  C   UNL     1     111.505 129.711 137.395  0.00  0.00    +0.000 C 
ATOM      7  C   UNL     1     111.310 130.511 137.442  0.00  0.00    +0.000 A 
ATOM      8  C   UNL     1     110.649 130.751 137.937  0.00  0.00    +0.000 A 
ATOM      9  C   UNL     1     111.746 131.068 137.018  0.00  0.00    +0.000 A 
ATOM     10  C   UNL     1     110.441 131.583 137.990  0.00  0.00    +0.000 A 
ATOM     11  C   UNL     1     111.552 131.904 137.059  0.00  0.00    +0.000 A 
ATOM     12  C   UNL     1     110.895 132.163 137.548  0.00  0.00    +0.000 A 
ENDROOT
BRANCH   5  15
ATOM     13  O   UNL     1     114.120 130.147 137.062  0.00  0.00    +0.000 OA
ATOM     14  O   UNL     1     115.098 129.049 134.612  0.00  0.00    +0.000 OA
ATOM     15  C   UNL     1     113.205 129.781 136.028  0.00  0.00    +0.000 A 
ATOM     16  C   UNL     1     113.977 129.842 136.309  0.00  0.00    +0.000 A 
ATOM     17  C   UNL     1     113.063 129.476 135.274  0.00  0.00    +0.000 A 
ATOM     18  C   UNL     1     114.609 129.598 135.837  0.00  0.00    +0.000 A 
ATOM     19  C   UNL     1     113.694 129.232 134.803  0.00  0.00    +0.000 A 
ATOM     20  C   UNL     1     114.467 129.293 135.084  0.00  0.00    +0.000 A 
ENDBRANCH   5  15
BRANCH   8  21
ATOM     21  O   UNL     1     110.218 130.187 138.358  0.00  0.00    +0.000 OA
BRANCH  21  29
ATOM     22  O   UNL     1     110.436 130.600 139.709  0.00  0.00    +0.000 OA
ATOM     23  O   UNL     1     108.005 130.449 140.147  0.00  0.00    +0.000 OA
ATOM     24  O   UNL     1     108.598 130.086 138.651  0.00  0.00    +0.000 OA
ATOM     25  O   UNL     1     109.033 130.912 141.351  0.00  0.00    +0.000 OA
ATOM     26  C   UNL     1     108.815 130.499 140.001  0.00  0.00    +0.000 C 
ATOM     27  C   UNL     1     109.112 130.318 139.252  0.00  0.00    +0.000 C 
ATOM     28  C   UNL     1     109.330 130.731 140.603  0.00  0.00    +0.000 C 
ATOM     29  C   UNL     1     109.922 130.368 139.106  0.00  0.00    +0.000 C 
ATOM     30  C   UNL     1     110.140 130.782 140.456  0.00  0.00    +0.000 C 
BRANCH  30  33
ATOM     31  O   UNL     1     111.075 130.445 141.484  0.00  0.00    +0.000 OA
ATOM     32  O   UNL     1     110.747 131.814 141.235  0.00  0.00    +0.000 OA
ATOM     33  C   UNL     1     110.654 131.013 141.058  0.00  0.00    +0.000 C 
ENDBRANCH  30  33
ENDBRANCH  21  29
ENDBRANCH   8  21
BRANCH   4  34
ATOM     34  C   UNL     1     112.332 128.667 136.877  0.00  0.00    +0.000 C 
BRANCH  34  35
ATOM     35  C   UNL     1     111.737 128.098 136.840  0.00  0.00    +0.000 C 
ATOM     36  C   UNL     1     111.914 127.306 136.982  0.00  0.00    +0.000 C 
ATOM     37  C   UNL     1     111.318 126.736 136.945  0.00  0.00    +0.000 C 
BRANCH  36  38
ATOM     38  C   UNL     1     112.688 127.081 137.162  0.00  0.00    +0.000 C 
BRANCH  38  39
ATOM     39  C   UNL     1     112.929 126.302 137.042  0.00  0.00    +0.000 C 
BRANCH  39  40
ATOM     40  C   UNL     1     113.654 126.044 137.342  0.00  0.00    +0.000 C 
ATOM     41  C   UNL     1     113.985 125.339 137.070  0.00  0.00    +0.000 C 
ATOM     42  C   UNL     1     114.709 125.082 137.370  0.00  0.00    +0.000 C 
ATOM     43  C   UNL     1     113.593 124.891 136.499  0.00  0.00    +0.000 C 
ENDBRANCH  39  40
ENDBRANCH  38  39
ENDBRANCH  36  38
ENDBRANCH  34  35
ENDBRANCH   4  34
TORSDOF 9
ENDMDL
MODEL 3
REMARK VINA RESULT:      -9.4      2.206      2.897
REMARK  Name = 131835890
REMARK  9 active torsions:
REMARK  status: ('A' for Active; 'I' for Inactive)
REMARK    1  A    between atoms: O_2  and  C_17
REMARK    2  A    between atoms: O_2  and  C_23
REMARK    3  A    between atoms: C_16  and  C_22
REMARK    4  A    between atoms: C_18  and  C_26
REMARK    5  A    between atoms: C_19  and  C_25
REMARK    6  A    between atoms: C_22  and  C_27
REMARK    7  A    between atoms: C_33  and  C_34
REMARK    8  A    between atoms: C_34  and  C_39
REMARK    9  A    between atoms: C_39  and  C_40
REMARK                            x       y       z     vdW  Elec       q    Type
REMARK                         _______ _______ _______ _____ _____    ______ ____
ROOT
ATOM      1  O   UNL     1     110.874 128.863 136.232  0.00  0.00    +0.000 OA
ATOM      2  O   UNL     1     112.986 128.306 137.397  0.00  0.00    +0.000 OA
ATOM      3  O   UNL     1     111.123 131.642 137.066  0.00  0.00    +0.000 OA
ATOM      4  C   UNL     1     111.865 127.904 136.607  0.00  0.00    +0.000 C 
ATOM      5  C   UNL     1     111.161 128.090 136.219  0.00  0.00    +0.000 C 
ATOM      6  C   UNL     1     112.282 128.493 137.009  0.00  0.00    +0.000 C 
ATOM      7  C   UNL     1     111.995 129.265 137.021  0.00  0.00    +0.000 A 
ATOM      8  C   UNL     1     112.439 129.869 137.443  0.00  0.00    +0.000 A 
ATOM      9  C   UNL     1     111.291 129.452 136.633  0.00  0.00    +0.000 A 
ATOM     10  C   UNL     1     112.145 130.676 137.460  0.00  0.00    +0.000 A 
ATOM     11  C   UNL     1     110.983 130.253 136.639  0.00  0.00    +0.000 A 
ATOM     12  C   UNL     1     111.412 130.869 137.056  0.00  0.00    +0.000 A 
ENDROOT
BRANCH   5  15
ATOM     13  O   UNL     1     109.885 127.338 136.947  0.00  0.00    +0.000 OA
ATOM     14  O   UNL     1     109.496 125.737 134.612  0.00  0.00    +0.000 OA
ATOM     15  C   UNL     1     110.744 127.501 135.818  0.00  0.00    +0.000 A 
ATOM     16  C   UNL     1     110.107 127.126 136.181  0.00  0.00    +0.000 A 
ATOM     17  C   UNL     1     110.966 127.289 135.052  0.00  0.00    +0.000 A 
ATOM     18  C   UNL     1     109.691 126.538 135.780  0.00  0.00    +0.000 A 
ATOM     19  C   UNL     1     110.550 126.701 134.650  0.00  0.00    +0.000 A 
ATOM     20  C   UNL     1     109.912 126.325 135.014  0.00  0.00    +0.000 A 
ENDBRANCH   5  15
BRANCH   8  21
ATOM     21  O   UNL     1     113.142 129.675 137.829  0.00  0.00    +0.000 OA
BRANCH  21  29
ATOM     22  O   UNL     1     112.730 129.736 139.196  0.00  0.00    +0.000 OA
ATOM     23  O   UNL     1     114.741 131.070 139.742  0.00  0.00    +0.000 OA
ATOM     24  O   UNL     1     114.483 130.564 138.193  0.00  0.00    +0.000 OA
ATOM     25  O   UNL     1     113.659 130.687 140.926  0.00  0.00    +0.000 OA
ATOM     26  C   UNL     1     114.071 130.625 139.560  0.00  0.00    +0.000 C 
ATOM     27  C   UNL     1     113.941 130.372 138.785  0.00  0.00    +0.000 C 
ATOM     28  C   UNL     1     113.529 130.433 140.152  0.00  0.00    +0.000 C 
ATOM     29  C   UNL     1     113.271 129.927 138.603  0.00  0.00    +0.000 C 
ATOM     30  C   UNL     1     112.859 129.989 139.970  0.00  0.00    +0.000 C 
BRANCH  30  33
ATOM     31  O   UNL     1     111.729 130.335 140.773  0.00  0.00    +0.000 OA
ATOM     32  O   UNL     1     112.365 129.067 140.943  0.00  0.00    +0.000 OA
ATOM     33  C   UNL     1     112.318 129.797 140.562  0.00  0.00    +0.000 C 
ENDBRANCH  30  33
ENDBRANCH  21  29
ENDBRANCH   8  21
BRANCH   4  34
ATOM     34  C   UNL     1     112.152 127.131 136.595  0.00  0.00    +0.000 C 
BRANCH  34  35
ATOM     35  C   UNL     1     112.956 126.991 136.481  0.00  0.00    +0.000 C 
ATOM     36  C   UNL     1     113.278 126.256 136.670  0.00  0.00    +0.000 C 
ATOM     37  C   UNL     1     114.083 126.115 136.556  0.00  0.00    +0.000 C 
BRANCH  36  38
ATOM     38  C   UNL     1     112.795 125.659 136.973  0.00  0.00    +0.000 C 
BRANCH  38  39
ATOM     39  C   UNL     1     112.928 124.873 136.761  0.00  0.00    +0.000 C 
BRANCH  39  40
ATOM     40  C   UNL     1     112.645 124.263 137.241  0.00  0.00    +0.000 C 
ATOM     41  C   UNL     1     112.263 123.616 136.902  0.00  0.00    +0.000 C 
ATOM     42  C   UNL     1     111.981 123.007 137.381  0.00  0.00    +0.000 C 
ATOM     43  C   UNL     1     112.161 123.578 136.084  0.00  0.00    +0.000 C 
ENDBRANCH  39  40
ENDBRANCH  38  39
ENDBRANCH  36  38
ENDBRANCH  34  35
ENDBRANCH   4  34
TORSDOF 9
ENDMDL
MODEL 4
REMARK VINA RESULT:      -9.3      2.985      4.659
REMARK  Name = 131835890
REMARK  9 active torsions:
REMARK  status: ('A' for Active; 'I' for Inactive)
REMARK    1  A    between atoms: O_2  and  C_17
REMARK    2  A    between atoms: O_2  and  C_23
REMARK    3  A    between atoms: C_16  and  C_22
REMARK    4  A    between atoms: C_18  and  C_26
REMARK    5  A    between atoms: C_19  and  C_25
REMARK    6  A    between atoms: C_22  and  C_27
REMARK    7  A    between atoms: C_33  and  C_34
REMARK    8  A    between atoms: C_34  and  C_39
REMARK    9  A    between atoms: C_39  and  C_40
REMARK                            x       y       z     vdW  Elec       q    Type
REMARK                         _______ _______ _______ _____ _____    ______ ____
ROOT
ATOM      1  O   UNL     1     113.063 126.535 139.006  0.00  0.00    +0.000 OA
ATOM      2  O   UNL     1     113.219 128.960 138.540  0.00  0.00    +0.000 OA
ATOM      3  O   UNL     1     114.472 126.909 141.527  0.00  0.00    +0.000 OA
ATOM      4  C   UNL     1     112.795 127.651 138.155  0.00  0.00    +0.000 C 
ATOM      5  C   UNL     1     112.743 126.842 138.311  0.00  0.00    +0.000 C 
ATOM      6  C   UNL     1     113.167 128.152 138.696  0.00  0.00    +0.000 C 
ATOM      7  C   UNL     1     113.487 127.844 139.391  0.00  0.00    +0.000 A 
ATOM      8  C   UNL     1     113.872 128.377 139.945  0.00  0.00    +0.000 A 
ATOM      9  C   UNL     1     113.435 127.035 139.547  0.00  0.00    +0.000 A 
ATOM     10  C   UNL     1     114.207 128.062 140.671  0.00  0.00    +0.000 A 
ATOM     11  C   UNL     1     113.765 126.703 140.267  0.00  0.00    +0.000 A 
ATOM     12  C   UNL     1     114.153 127.220 140.833  0.00  0.00    +0.000 A 
ENDROOT
BRANCH   5  15
ATOM     13  O   UNL     1     111.172 126.395 138.545  0.00  0.00    +0.000 OA
ATOM     14  O   UNL     1     111.257 124.840 136.149  0.00  0.00    +0.000 OA
ATOM     15  C   UNL     1     112.371 126.342 137.771  0.00  0.00    +0.000 A 
ATOM     16  C   UNL     1     111.586 126.118 137.888  0.00  0.00    +0.000 A 
ATOM     17  C   UNL     1     112.785 126.065 137.113  0.00  0.00    +0.000 A 
ATOM     18  C   UNL     1     111.215 125.618 137.348  0.00  0.00    +0.000 A 
ATOM     19  C   UNL     1     112.414 125.565 136.573  0.00  0.00    +0.000 A 
ATOM     20  C   UNL     1     111.628 125.341 136.690  0.00  0.00    +0.000 A 
ENDBRANCH   5  15
BRANCH   8  21
ATOM     21  O   UNL     1     113.919 129.184 139.781  0.00  0.00    +0.000 OA
BRANCH  21  29
ATOM     22  O   UNL     1     113.117 129.708 140.841  0.00  0.00    +0.000 OA
ATOM     23  O   UNL     1     114.828 131.440 141.281  0.00  0.00    +0.000 OA
ATOM     24  O   UNL     1     115.060 130.339 140.074  0.00  0.00    +0.000 OA
ATOM     25  O   UNL     1     113.456 131.386 142.193  0.00  0.00    +0.000 OA
ATOM     26  C   UNL     1     114.258 130.863 141.134  0.00  0.00    +0.000 C 
ATOM     27  C   UNL     1     114.374 130.312 140.531  0.00  0.00    +0.000 C 
ATOM     28  C   UNL     1     113.571 130.835 141.590  0.00  0.00    +0.000 C 
ATOM     29  C   UNL     1     113.803 129.734 140.384  0.00  0.00    +0.000 C 
ATOM     30  C   UNL     1     113.001 130.258 141.444  0.00  0.00    +0.000 C 
BRANCH  30  33
ATOM     31  O   UNL     1     112.314 129.833 142.623  0.00  0.00    +0.000 OA
ATOM     32  O   UNL     1     111.628 130.603 141.635  0.00  0.00    +0.000 OA
ATOM     33  C   UNL     1     112.315 130.231 141.900  0.00  0.00    +0.000 C 
ENDBRANCH  30  33
ENDBRANCH  21  29
ENDBRANCH   8  21
BRANCH   4  34
ATOM     34  C   UNL     1     112.475 127.959 137.460  0.00  0.00    +0.000 C 
BRANCH  34  35
ATOM     35  C   UNL     1     112.923 128.465 136.988  0.00  0.00    +0.000 C 
ATOM     36  C   UNL     1     112.553 128.941 136.426  0.00  0.00    +0.000 C 
ATOM     37  C   UNL     1     113.001 129.448 135.954  0.00  0.00    +0.000 C 
BRANCH  36  38
ATOM     38  C   UNL     1     111.733 128.912 136.336  0.00  0.00    +0.000 C 
BRANCH  38  39
ATOM     39  C   UNL     1     111.395 129.023 135.592  0.00  0.00    +0.000 C 
BRANCH  39  40
ATOM     40  C   UNL     1     110.672 129.415 135.521  0.00  0.00    +0.000 C 
ATOM     41  C   UNL     1     110.083 129.107 135.033  0.00  0.00    +0.000 C 
ATOM     42  C   UNL     1     109.360 129.498 134.962  0.00  0.00    +0.000 C 
ATOM     43  C   UNL     1     110.216 128.408 134.615  0.00  0.00    +0.000 C 
ENDBRANCH  39  40
ENDBRANCH  38  39
ENDBRANCH  36  38
ENDBRANCH  34  35
ENDBRANCH   4  34
TORSDOF 9
ENDMDL
MODEL 5
REMARK VINA RESULT:      -9.3      2.480      3.812
REMARK  Name = 131835890
REMARK  9 active torsions:
REMARK  status: ('A' for Active; 'I' for Inactive)
REMARK    1  A    between atoms: O_2  and  C_17
REMARK    2  A    between atoms: O_2  and  C_23
REMARK    3  A    between atoms: C_16  and  C_22
REMARK    4  A    between atoms: C_18  and  C_26
REMARK    5  A    between atoms: C_19  and  C_25
REMARK    6  A    between atoms: C_22  and  C_27
REMARK    7  A    between atoms: C_33  and  C_34
REMARK    8  A    between atoms: C_34  and  C_39
REMARK    9  A    between atoms: C_39  and  C_40
REMARK                            x       y       z     vdW  Elec       q    Type
REMARK                         _______ _______ _______ _____ _____    ______ ____
ROOT
ATOM      1  O   UNL     1     111.988 129.163 140.747  0.00  0.00    +0.000 OA
ATOM      2  O   UNL     1     111.236 129.023 138.393  0.00  0.00    +0.000 OA
ATOM      3  O   UNL     1     109.833 131.029 141.345  0.00  0.00    +0.000 OA
ATOM      4  C   UNL     1     112.142 128.635 139.428  0.00  0.00    +0.000 C 
ATOM      5  C   UNL     1     112.392 128.682 140.213  0.00  0.00    +0.000 C 
ATOM      6  C   UNL     1     111.486 129.070 139.178  0.00  0.00    +0.000 C 
ATOM      7  C   UNL     1     111.082 129.551 139.712  0.00  0.00    +0.000 A 
ATOM      8  C   UNL     1     110.400 129.998 139.439  0.00  0.00    +0.000 A 
ATOM      9  C   UNL     1     111.332 129.598 140.497  0.00  0.00    +0.000 A 
ATOM     10  C   UNL     1     109.975 130.501 139.991  0.00  0.00    +0.000 A 
ATOM     11  C   UNL     1     110.919 130.095 141.062  0.00  0.00    +0.000 A 
ATOM     12  C   UNL     1     110.236 130.549 140.808  0.00  0.00    +0.000 A 
ENDROOT
BRANCH   5  15
ATOM     13  O   UNL     1     112.182 127.231 140.970  0.00  0.00    +0.000 OA
ATOM     14  O   UNL     1     115.015 126.946 141.212  0.00  0.00    +0.000 OA
ATOM     15  C   UNL     1     113.048 128.248 140.463  0.00  0.00    +0.000 A 
ATOM     16  C   UNL     1     112.943 127.523 140.841  0.00  0.00    +0.000 A 
ATOM     17  C   UNL     1     113.808 128.540 140.334  0.00  0.00    +0.000 A 
ATOM     18  C   UNL     1     113.598 127.089 141.090  0.00  0.00    +0.000 A 
ATOM     19  C   UNL     1     114.464 128.106 140.584  0.00  0.00    +0.000 A 
ATOM     20  C   UNL     1     114.359 127.380 140.962  0.00  0.00    +0.000 A 
ENDBRANCH   5  15
BRANCH   8  21
ATOM     21  O   UNL     1     110.157 129.945 138.652  0.00  0.00    +0.000 OA
BRANCH  21  29
ATOM     22  O   UNL     1     110.282 131.308 138.241  0.00  0.00    +0.000 OA
ATOM     23  O   UNL     1     108.045 131.196 137.188  0.00  0.00    +0.000 OA
ATOM     24  O   UNL     1     108.666 129.871 137.950  0.00  0.00    +0.000 OA
ATOM     25  O   UNL     1     108.916 132.595 137.128  0.00  0.00    +0.000 OA
ATOM     26  C   UNL     1     108.791 131.233 137.539  0.00  0.00    +0.000 C 
ATOM     27  C   UNL     1     109.102 130.570 137.920  0.00  0.00    +0.000 C 
ATOM     28  C   UNL     1     109.227 131.933 137.509  0.00  0.00    +0.000 C 
ATOM     29  C   UNL     1     109.847 130.608 138.271  0.00  0.00    +0.000 C 
ATOM     30  C   UNL     1     109.972 131.970 137.860  0.00  0.00    +0.000 C 
BRANCH  30  33
ATOM     31  O   UNL     1     110.267 133.268 138.381  0.00  0.00    +0.000 OA
ATOM     32  O   UNL     1     110.983 132.773 137.248  0.00  0.00    +0.000 OA
ATOM     33  C   UNL     1     110.407 132.670 137.830  0.00  0.00    +0.000 C 
ENDBRANCH  30  33
ENDBRANCH  21  29
ENDBRANCH   8  21
BRANCH   4  34
ATOM     34  C   UNL     1     112.546 128.155 138.894  0.00  0.00    +0.000 C 
BRANCH  34  35
ATOM     35  C   UNL     1     112.662 128.406 138.117  0.00  0.00    +0.000 C 
ATOM     36  C   UNL     1     112.903 127.869 137.540  0.00  0.00    +0.000 C 
ATOM     37  C   UNL     1     113.018 128.121 136.763  0.00  0.00    +0.000 C 
BRANCH  36  38
ATOM     38  C   UNL     1     113.029 127.078 137.740  0.00  0.00    +0.000 C 
BRANCH  38  39
ATOM     39  C   UNL     1     113.532 126.612 137.282  0.00  0.00    +0.000 C 
BRANCH  39  40
ATOM     40  C   UNL     1     113.755 125.862 137.547  0.00  0.00    +0.000 C 
ATOM     41  C   UNL     1     114.289 125.413 137.109  0.00  0.00    +0.000 C 
ATOM     42  C   UNL     1     114.512 124.664 137.373  0.00  0.00    +0.000 C 
ATOM     43  C   UNL     1     114.602 125.711 136.406  0.00  0.00    +0.000 C 
ENDBRANCH  39  40
ENDBRANCH  38  39
ENDBRANCH  36  38
ENDBRANCH  34  35
ENDBRANCH   4  34
TORSDOF 9
ENDMDL
MODEL 6
REMARK VINA RESULT:      -9.2      9.468     12.114
REMARK  Name = 131835890
REMARK  9 active torsions:
REMARK  status: ('A' for Active; 'I' for Inactive)
REMARK    1  A    between atoms: O_2  and  C_17
REMARK    2  A    between atoms: O_2  and  C_23
REMARK    3  A    between atoms: C_16  and  C_22
REMARK    4  A    between atoms: C_18  and  C_26
REMARK    5  A    between atoms: C_19  and  C_25
REMARK    6  A    between atoms: C_22  and  C_27
REMARK    7  A    between atoms: C_33  and  C_34
REMARK    8  A    between atoms: C_34  and  C_39
REMARK    9  A    between atoms: C_39  and  C_40
REMARK                            x       y       z     vdW  Elec       q    Type
REMARK                         _______ _______ _______ _____ _____    ______ ____
ROOT
ATOM      1  O   UNL     1     106.950 127.449 146.600  0.00  0.00    +0.000 OA
ATOM      2  O   UNL     1     105.311 126.517 144.997  0.00  0.00    +0.000 OA
ATOM      3  O   UNL     1     107.141 124.868 147.936  0.00  0.00    +0.000 OA
ATOM      4  C   UNL     1     106.087 127.618 145.474  0.00  0.00    +0.000 C 
ATOM      5  C   UNL     1     106.634 127.928 146.008  0.00  0.00    +0.000 C 
ATOM      6  C   UNL     1     105.857 126.828 145.531  0.00  0.00    +0.000 C 
ATOM      7  C   UNL     1     106.174 126.348 146.123  0.00  0.00    +0.000 A 
ATOM      8  C   UNL     1     105.927 125.526 146.172  0.00  0.00    +0.000 A 
ATOM      9  C   UNL     1     106.721 126.658 146.658  0.00  0.00    +0.000 A 
ATOM     10  C   UNL     1     106.253 125.022 146.786  0.00  0.00    +0.000 A 
ATOM     11  C   UNL     1     107.057 126.169 147.278  0.00  0.00    +0.000 A 
ATOM     12  C   UNL     1     106.822 125.345 147.343  0.00  0.00    +0.000 A 
ENDROOT
BRANCH   5  15
ATOM     13  O   UNL     1     108.107 128.317 145.375  0.00  0.00    +0.000 OA
ATOM     14  O   UNL     1     107.549 131.091 145.778  0.00  0.00    +0.000 OA
ATOM     15  C   UNL     1     106.863 128.719 145.951  0.00  0.00    +0.000 A 
ATOM     16  C   UNL     1     107.599 128.914 145.634  0.00  0.00    +0.000 A 
ATOM     17  C   UNL     1     106.355 129.315 146.210  0.00  0.00    +0.000 A 
ATOM     18  C   UNL     1     107.828 129.704 145.577  0.00  0.00    +0.000 A 
ATOM     19  C   UNL     1     106.584 130.106 146.152  0.00  0.00    +0.000 A 
ATOM     20  C   UNL     1     107.320 130.300 145.836  0.00  0.00    +0.000 A 
ENDBRANCH   5  15
BRANCH   8  21
ATOM     21  O   UNL     1     105.380 125.224 145.633  0.00  0.00    +0.000 OA
BRANCH  21  29
ATOM     22  O   UNL     1     104.300 124.926 146.521  0.00  0.00    +0.000 OA
ATOM     23  O   UNL     1     103.986 122.740 145.403  0.00  0.00    +0.000 OA
ATOM     24  O   UNL     1     105.170 123.767 144.888  0.00  0.00    +0.000 OA
ATOM     25  O   UNL     1     103.012 123.170 146.663  0.00  0.00    +0.000 OA
ATOM     26  C   UNL     1     104.091 123.469 145.776  0.00  0.00    +0.000 C 
ATOM     27  C   UNL     1     104.683 123.983 145.518  0.00  0.00    +0.000 C 
ATOM     28  C   UNL     1     103.604 123.684 146.406  0.00  0.00    +0.000 C 
ATOM     29  C   UNL     1     104.788 124.711 145.891  0.00  0.00    +0.000 C 
ATOM     30  C   UNL     1     103.708 124.413 146.778  0.00  0.00    +0.000 C 
BRANCH  30  33
ATOM     31  O   UNL     1     102.558 125.099 147.275  0.00  0.00    +0.000 OA
ATOM     32  O   UNL     1     103.398 124.370 148.172  0.00  0.00    +0.000 OA
ATOM     33  C   UNL     1     103.221 124.627 147.408  0.00  0.00    +0.000 C 
ENDBRANCH  30  33
ENDBRANCH  21  29
ENDBRANCH   8  21
BRANCH   4  34
ATOM     34  C   UNL     1     105.770 128.098 144.882  0.00  0.00    +0.000 C 
BRANCH  34  35
ATOM     35  C   UNL     1     105.713 127.817 144.109  0.00  0.00    +0.000 C 
ATOM     36  C   UNL     1     105.242 128.212 143.560  0.00  0.00    +0.000 C 
ATOM     37  C   UNL     1     105.185 127.930 142.786  0.00  0.00    +0.000 C 
BRANCH  36  38
ATOM     38  C   UNL     1     104.827 128.889 143.783  0.00  0.00    +0.000 C 
BRANCH  38  39
ATOM     39  C   UNL     1     104.335 129.269 143.241  0.00  0.00    +0.000 C 
BRANCH  39  40
ATOM     40  C   UNL     1     103.884 129.919 143.478  0.00  0.00    +0.000 C 
ATOM     41  C   UNL     1     103.374 130.284 142.943  0.00  0.00    +0.000 C 
ATOM     42  C   UNL     1     102.924 130.933 143.180  0.00  0.00    +0.000 C 
ATOM     43  C   UNL     1     103.314 130.000 142.171  0.00  0.00    +0.000 C 
ENDBRANCH  39  40
ENDBRANCH  38  39
ENDBRANCH  36  38
ENDBRANCH  34  35
ENDBRANCH   4  34
TORSDOF 9
ENDMDL
MODEL 7
REMARK VINA RESULT:      -9.2      1.408      2.004
REMARK  Name = 131835890
REMARK  9 active torsions:
REMARK  status: ('A' for Active; 'I' for Inactive)
REMARK    1  A    between atoms: O_2  and  C_17
REMARK    2  A    between atoms: O_2  and  C_23
REMARK    3  A    between atoms: C_16  and  C_22
REMARK    4  A    between atoms: C_18  and  C_26
REMARK    5  A    between atoms: C_19  and  C_25
REMARK    6  A    between atoms: C_22  and  C_27
REMARK    7  A    between atoms: C_33  and  C_34
REMARK    8  A    between atoms: C_34  and  C_39
REMARK    9  A    between atoms: C_39  and  C_40
REMARK                            x       y       z     vdW  Elec       q    Type
REMARK                         _______ _______ _______ _____ _____    ______ ____
ROOT
ATOM      1  O   UNL     1     109.649 128.387 136.112  0.00  0.00    +0.000 OA
ATOM      2  O   UNL     1     111.112 128.874 138.049  0.00  0.00    +0.000 OA
ATOM      3  O   UNL     1     108.226 130.893 136.532  0.00  0.00    +0.000 OA
ATOM      4  C   UNL     1     110.727 128.015 136.974  0.00  0.00    +0.000 C 
ATOM      5  C   UNL     1     110.239 127.853 136.328  0.00  0.00    +0.000 C 
ATOM      6  C   UNL     1     110.624 128.712 137.404  0.00  0.00    +0.000 C 
ATOM      7  C   UNL     1     110.034 129.246 137.187  0.00  0.00    +0.000 A 
ATOM      8  C   UNL     1     109.937 129.969 137.643  0.00  0.00    +0.000 A 
ATOM      9  C   UNL     1     109.546 129.085 136.542  0.00  0.00    +0.000 A 
ATOM     10  C   UNL     1     109.325 130.529 137.423  0.00  0.00    +0.000 A 
ATOM     11  C   UNL     1     108.929 129.633 136.308  0.00  0.00    +0.000 A 
ATOM     12  C   UNL     1     108.817 130.361 136.751  0.00  0.00    +0.000 A 
ENDROOT
BRANCH   5  15
ATOM     13  O   UNL     1     111.100 127.869 134.921  0.00  0.00    +0.000 OA
ATOM     14  O   UNL     1     110.649 125.064 134.613  0.00  0.00    +0.000 OA
ATOM     15  C   UNL     1     110.342 127.156 135.899  0.00  0.00    +0.000 A 
ATOM     16  C   UNL     1     110.772 127.163 135.196  0.00  0.00    +0.000 A 
ATOM     17  C   UNL     1     110.013 126.451 136.174  0.00  0.00    +0.000 A 
ATOM     18  C   UNL     1     110.874 126.466 134.767  0.00  0.00    +0.000 A 
ATOM     19  C   UNL     1     110.116 125.754 135.745  0.00  0.00    +0.000 A 
ATOM     20  C   UNL     1     110.546 125.761 135.042  0.00  0.00    +0.000 A 
ENDBRANCH   5  15
BRANCH   8  21
ATOM     21  O   UNL     1     110.430 130.123 138.287  0.00  0.00    +0.000 OA
BRANCH  21  29
ATOM     22  O   UNL     1     109.494 129.984 139.358  0.00  0.00    +0.000 OA
ATOM     23  O   UNL     1     110.373 132.052 140.395  0.00  0.00    +0.000 OA
ATOM     24  O   UNL     1     111.015 131.502 138.978  0.00  0.00    +0.000 OA
ATOM     25  O   UNL     1     109.145 131.224 141.120  0.00  0.00    +0.000 OA
ATOM     26  C   UNL     1     110.080 131.363 140.049  0.00  0.00    +0.000 C 
ATOM     27  C   UNL     1     110.401 131.087 139.340  0.00  0.00    +0.000 C 
ATOM     28  C   UNL     1     109.466 130.948 140.412  0.00  0.00    +0.000 C 
ATOM     29  C   UNL     1     110.108 130.398 138.995  0.00  0.00    +0.000 C 
ATOM     30  C   UNL     1     109.173 130.259 140.066  0.00  0.00    +0.000 C 
BRANCH  30  33
ATOM     31  O   UNL     1     107.777 130.087 140.322  0.00  0.00    +0.000 OA
ATOM     32  O   UNL     1     108.726 129.188 140.899  0.00  0.00    +0.000 OA
ATOM     33  C   UNL     1     108.559 129.845 140.429  0.00  0.00    +0.000 C 
ENDBRANCH  30  33
ENDBRANCH  21  29
ENDBRANCH   8  21
BRANCH   4  34
ATOM     34  C   UNL     1     111.317 127.481 137.190  0.00  0.00    +0.000 C 
BRANCH  34  35
ATOM     35  C   UNL     1     111.464 127.327 137.986  0.00  0.00    +0.000 C 
ATOM     36  C   UNL     1     112.164 126.956 138.213  0.00  0.00    +0.000 C 
ATOM     37  C   UNL     1     112.311 126.803 139.010  0.00  0.00    +0.000 C 
BRANCH  36  38
ATOM     38  C   UNL     1     112.719 126.737 137.642  0.00  0.00    +0.000 C 
BRANCH  38  39
ATOM     39  C   UNL     1     113.174 126.058 137.749  0.00  0.00    +0.000 C 
BRANCH  39  40
ATOM     40  C   UNL     1     113.877 125.962 137.327  0.00  0.00    +0.000 C 
ATOM     41  C   UNL     1     114.101 125.213 137.065  0.00  0.00    +0.000 C 
ATOM     42  C   UNL     1     114.804 125.117 136.643  0.00  0.00    +0.000 C 
ATOM     43  C   UNL     1     113.624 124.559 137.224  0.00  0.00    +0.000 C 
ENDBRANCH  39  40
ENDBRANCH  38  39
ENDBRANCH  36  38
ENDBRANCH  34  35
ENDBRANCH   4  34
TORSDOF 9
ENDMDL
MODEL 8
REMARK VINA RESULT:      -9.1      2.478      3.642
REMARK  Name = 131835890
REMARK  9 active torsions:
REMARK  status: ('A' for Active; 'I' for Inactive)
REMARK    1  A    between atoms: O_2  and  C_17
REMARK    2  A    between atoms: O_2  and  C_23
REMARK    3  A    between atoms: C_16  and  C_22
REMARK    4  A    between atoms: C_18  and  C_26
REMARK    5  A    between atoms: C_19  and  C_25
REMARK    6  A    between atoms: C_22  and  C_27
REMARK    7  A    between atoms: C_33  and  C_34
REMARK    8  A    between atoms: C_34  and  C_39
REMARK    9  A    between atoms: C_39  and  C_40
REMARK                            x       y       z     vdW  Elec       q    Type
REMARK                         _______ _______ _______ _____ _____    ______ ____
ROOT
ATOM      1  O   UNL     1     111.985 126.288 139.045  0.00  0.00    +0.000 OA
ATOM      2  O   UNL     1     111.350 128.390 137.901  0.00  0.00    +0.000 OA
ATOM      3  O   UNL     1     109.861 126.687 140.998  0.00  0.00    +0.000 OA
ATOM      4  C   UNL     1     112.190 127.237 137.996  0.00  0.00    +0.000 C 
ATOM      5  C   UNL     1     112.400 126.537 138.377  0.00  0.00    +0.000 C 
ATOM      6  C   UNL     1     111.561 127.690 138.283  0.00  0.00    +0.000 C 
ATOM      7  C   UNL     1     111.145 127.441 138.950  0.00  0.00    +0.000 A 
ATOM      8  C   UNL     1     110.493 127.921 139.238  0.00  0.00    +0.000 A 
ATOM      9  C   UNL     1     111.356 126.741 139.331  0.00  0.00    +0.000 A 
ATOM     10  C   UNL     1     110.056 127.668 139.933  0.00  0.00    +0.000 A 
ATOM     11  C   UNL     1     110.930 126.472 140.027  0.00  0.00    +0.000 A 
ATOM     12  C   UNL     1     110.276 126.938 140.330  0.00  0.00    +0.000 A 
ENDROOT
BRANCH   5  15
ATOM     13  O   UNL     1     113.889 126.650 139.080  0.00  0.00    +0.000 OA
ATOM     14  O   UNL     1     114.911 124.728 137.229  0.00  0.00    +0.000 OA
ATOM     15  C   UNL     1     113.029 126.085 138.090  0.00  0.00    +0.000 A 
ATOM     16  C   UNL     1     113.772 126.141 138.441  0.00  0.00    +0.000 A 
ATOM     17  C   UNL     1     112.912 125.576 137.452  0.00  0.00    +0.000 A 
ATOM     18  C   UNL     1     114.400 125.689 138.154  0.00  0.00    +0.000 A 
ATOM     19  C   UNL     1     113.539 125.124 137.165  0.00  0.00    +0.000 A 
ATOM     20  C   UNL     1     114.283 125.180 137.516  0.00  0.00    +0.000 A 
ENDBRANCH   5  15
BRANCH   8  21
ATOM     21  O   UNL     1     110.289 128.620 138.851  0.00  0.00    +0.000 OA
BRANCH  21  29
ATOM     22  O   UNL     1     110.651 129.583 139.843  0.00  0.00    +0.000 OA
ATOM     23  O   UNL     1     108.502 130.758 139.488  0.00  0.00    +0.000 OA
ATOM     24  O   UNL     1     108.856 129.404 138.615  0.00  0.00    +0.000 OA
ATOM     25  O   UNL     1     109.581 131.328 140.598  0.00  0.00    +0.000 OA
ATOM     26  C   UNL     1     109.219 130.366 139.607  0.00  0.00    +0.000 C 
ATOM     27  C   UNL     1     109.396 129.689 139.169  0.00  0.00    +0.000 C 
ATOM     28  C   UNL     1     109.759 130.651 140.161  0.00  0.00    +0.000 C 
ATOM     29  C   UNL     1     110.112 129.297 139.288  0.00  0.00    +0.000 C 
ATOM     30  C   UNL     1     110.475 130.260 140.279  0.00  0.00    +0.000 C 
BRANCH  30  33
ATOM     31  O   UNL     1     111.665 130.989 140.588  0.00  0.00    +0.000 OA
ATOM     32  O   UNL     1     110.903 130.387 141.636  0.00  0.00    +0.000 OA
ATOM     33  C   UNL     1     111.014 130.545 140.834  0.00  0.00    +0.000 C 
ENDBRANCH  30  33
ENDBRANCH  21  29
ENDBRANCH   8  21
BRANCH   4  34
ATOM     34  C   UNL     1     112.606 127.486 137.329  0.00  0.00    +0.000 C 
BRANCH  34  35
ATOM     35  C   UNL     1     112.199 127.701 136.645  0.00  0.00    +0.000 C 
ATOM     36  C   UNL     1     112.562 128.183 136.083  0.00  0.00    +0.000 C 
ATOM     37  C   UNL     1     112.155 128.398 135.398  0.00  0.00    +0.000 C 
BRANCH  36  38
ATOM     38  C   UNL     1     113.333 128.451 136.205  0.00  0.00    +0.000 C 
BRANCH  38  39
ATOM     39  C   UNL     1     113.704 128.914 135.632  0.00  0.00    +0.000 C 
BRANCH  39  40
ATOM     40  C   UNL     1     114.189 129.543 135.861  0.00  0.00    +0.000 C 
ATOM     41  C   UNL     1     114.775 129.817 135.351  0.00  0.00    +0.000 C 
ATOM     42  C   UNL     1     115.260 130.444 135.579  0.00  0.00    +0.000 C 
ATOM     43  C   UNL     1     114.879 129.465 134.612  0.00  0.00    +0.000 C 
ENDBRANCH  39  40
ENDBRANCH  38  39
ENDBRANCH  36  38
ENDBRANCH  34  35
ENDBRANCH   4  34
TORSDOF 9
ENDMDL
MODEL 9
REMARK VINA RESULT:      -9.1      7.510      9.250
REMARK  Name = 131835890
REMARK  9 active torsions:
REMARK  status: ('A' for Active; 'I' for Inactive)
REMARK    1  A    between atoms: O_2  and  C_17
REMARK    2  A    between atoms: O_2  and  C_23
REMARK    3  A    between atoms: C_16  and  C_22
REMARK    4  A    between atoms: C_18  and  C_26
REMARK    5  A    between atoms: C_19  and  C_25
REMARK    6  A    between atoms: C_22  and  C_27
REMARK    7  A    between atoms: C_33  and  C_34
REMARK    8  A    between atoms: C_34  and  C_39
REMARK    9  A    between atoms: C_39  and  C_40
REMARK                            x       y       z     vdW  Elec       q    Type
REMARK                         _______ _______ _______ _____ _____    ______ ____
ROOT
ATOM      1  O   UNL     1     104.325 128.362 141.418  0.00  0.00    +0.000 OA
ATOM      2  O   UNL     1     103.743 130.166 143.010  0.00  0.00    +0.000 OA
ATOM      3  O   UNL     1     102.215 129.245 139.615  0.00  0.00    +0.000 OA
ATOM      4  C   UNL     1     104.553 129.044 142.653  0.00  0.00    +0.000 C 
ATOM      5  C   UNL     1     104.746 128.443 142.123  0.00  0.00    +0.000 C 
ATOM      6  C   UNL     1     103.936 129.565 142.479  0.00  0.00    +0.000 C 
ATOM      7  C   UNL     1     103.515 129.484 141.775  0.00  0.00    +0.000 A 
ATOM      8  C   UNL     1     102.876 130.033 141.605  0.00  0.00    +0.000 A 
ATOM      9  C   UNL     1     103.709 128.883 141.244  0.00  0.00    +0.000 A 
ATOM     10  C   UNL     1     102.433 129.954 140.873  0.00  0.00    +0.000 A 
ATOM     11  C   UNL     1     103.277 128.789 140.507  0.00  0.00    +0.000 A 
ATOM     12  C   UNL     1     102.635 129.328 140.320  0.00  0.00    +0.000 A 
ENDROOT
BRANCH   5  15
ATOM     13  O   UNL     1     106.238 128.673 141.456  0.00  0.00    +0.000 OA
ATOM     14  O   UNL     1     107.208 126.359 142.822  0.00  0.00    +0.000 OA
ATOM     15  C   UNL     1     105.362 127.921 142.297  0.00  0.00    +0.000 A 
ATOM     16  C   UNL     1     106.107 128.037 141.965  0.00  0.00    +0.000 A 
ATOM     17  C   UNL     1     105.231 127.285 142.806  0.00  0.00    +0.000 A 
ATOM     18  C   UNL     1     106.722 127.516 142.139  0.00  0.00    +0.000 A 
ATOM     19  C   UNL     1     105.847 126.764 142.980  0.00  0.00    +0.000 A 
ATOM     20  C   UNL     1     106.592 126.879 142.647  0.00  0.00    +0.000 A 
ENDBRANCH   5  15
BRANCH   8  21
ATOM     21  O   UNL     1     102.689 130.632 142.141  0.00  0.00    +0.000 OA
BRANCH  21  29
ATOM     22  O   UNL     1     103.207 131.779 141.465  0.00  0.00    +0.000 OA
ATOM     23  O   UNL     1     101.096 132.993 141.909  0.00  0.00    +0.000 OA
ATOM     24  O   UNL     1     101.282 131.441 142.437  0.00  0.00    +0.000 OA
ATOM     25  O   UNL     1     102.318 133.735 141.086  0.00  0.00    +0.000 OA
ATOM     26  C   UNL     1     101.800 132.589 141.761  0.00  0.00    +0.000 C 
ATOM     27  C   UNL     1     101.893 131.812 142.025  0.00  0.00    +0.000 C 
ATOM     28  C   UNL     1     102.411 132.959 141.350  0.00  0.00    +0.000 C 
ATOM     29  C   UNL     1     102.596 131.407 141.877  0.00  0.00    +0.000 C 
ATOM     30  C   UNL     1     103.114 132.555 141.202  0.00  0.00    +0.000 C 
BRANCH  30  33
ATOM     31  O   UNL     1     103.726 132.927 139.965  0.00  0.00    +0.000 OA
ATOM     32  O   UNL     1     104.335 133.297 141.203  0.00  0.00    +0.000 OA
ATOM     33  C   UNL     1     103.725 132.926 140.790  0.00  0.00    +0.000 C 
ENDBRANCH  30  33
ENDBRANCH  21  29
ENDBRANCH   8  21
BRANCH   4  34
ATOM     34  C   UNL     1     104.974 129.125 143.358  0.00  0.00    +0.000 C 
BRANCH  34  35
ATOM     35  C   UNL     1     104.582 129.338 144.051  0.00  0.00    +0.000 C 
ATOM     36  C   UNL     1     105.012 129.601 144.704  0.00  0.00    +0.000 C 
ATOM     37  C   UNL     1     104.620 129.815 145.398  0.00  0.00    +0.000 C 
BRANCH  36  38
ATOM     38  C   UNL     1     105.835 129.650 144.664  0.00  0.00    +0.000 C 
BRANCH  38  39
ATOM     39  C   UNL     1     106.291 129.475 145.328  0.00  0.00    +0.000 C 
BRANCH  39  40
ATOM     40  C   UNL     1     107.100 129.643 145.329  0.00  0.00    +0.000 C 
ATOM     41  C   UNL     1     107.624 129.142 145.722  0.00  0.00    +0.000 C 
ATOM     42  C   UNL     1     108.432 129.309 145.723  0.00  0.00    +0.000 C 
ATOM     43  C   UNL     1     107.341 128.474 146.116  0.00  0.00    +0.000 C 
ENDBRANCH  39  40
ENDBRANCH  38  39
ENDBRANCH  36  38
ENDBRANCH  34  35
ENDBRANCH   4  34
TORSDOF 9
ENDMDL
MODEL 10
REMARK VINA RESULT:      -9.0      9.493     11.334
REMARK  Name = 131835890
REMARK  9 active torsions:
REMARK  status: ('A' for Active; 'I' for Inactive)
REMARK    1  A    between atoms: O_2  and  C_17
REMARK    2  A    between atoms: O_2  and  C_23
REMARK    3  A    between atoms: C_16  and  C_22
REMARK    4  A    between atoms: C_18  and  C_26
REMARK    5  A    between atoms: C_19  and  C_25
REMARK    6  A    between atoms: C_22  and  C_27
REMARK    7  A    between atoms: C_33  and  C_34
REMARK    8  A    between atoms: C_34  and  C_39
REMARK    9  A    between atoms: C_39  and  C_40
REMARK                            x       y       z     vdW  Elec       q    Type
REMARK                         _______ _______ _______ _____ _____    ______ ____
ROOT
ATOM      1  O   UNL     1     107.067 126.969 147.012  0.00  0.00    +0.000 OA
ATOM      2  O   UNL     1     105.493 126.489 145.163  0.00  0.00    +0.000 OA
ATOM      3  O   UNL     1     107.882 129.440 145.703  0.00  0.00    +0.000 OA
ATOM      4  C   UNL     1     106.083 126.124 146.412  0.00  0.00    +0.000 C 
ATOM      5  C   UNL     1     106.608 126.284 147.028  0.00  0.00    +0.000 C 
ATOM      6  C   UNL     1     106.018 126.650 145.779  0.00  0.00    +0.000 C 
ATOM      7  C   UNL     1     106.477 127.334 145.763  0.00  0.00    +0.000 A 
ATOM      8  C   UNL     1     106.399 127.874 145.097  0.00  0.00    +0.000 A 
ATOM      9  C   UNL     1     107.002 127.495 146.379  0.00  0.00    +0.000 A 
ATOM     10  C   UNL     1     106.875 128.589 145.075  0.00  0.00    +0.000 A 
ATOM     11  C   UNL     1     107.485 128.205 146.372  0.00  0.00    +0.000 A 
ATOM     12  C   UNL     1     107.421 128.756 145.716  0.00  0.00    +0.000 A 
ENDROOT
BRANCH   5  15
ATOM     13  O   UNL     1     107.907 125.272 147.131  0.00  0.00    +0.000 OA
ATOM     14  O   UNL     1     106.867 124.183 149.560  0.00  0.00    +0.000 OA
ATOM     15  C   UNL     1     106.673 125.759 147.661  0.00  0.00    +0.000 A 
ATOM     16  C   UNL     1     107.322 125.253 147.713  0.00  0.00    +0.000 A 
ATOM     17  C   UNL     1     106.088 125.740 148.242  0.00  0.00    +0.000 A 
ATOM     18  C   UNL     1     107.387 124.728 148.345  0.00  0.00    +0.000 A 
ATOM     19  C   UNL     1     106.153 125.214 148.875  0.00  0.00    +0.000 A 
ATOM     20  C   UNL     1     106.802 124.708 148.927  0.00  0.00    +0.000 A 
ENDBRANCH   5  15
BRANCH   8  21
ATOM     21  O   UNL     1     105.872 127.705 144.486  0.00  0.00    +0.000 OA
BRANCH  21  29
ATOM     22  O   UNL     1     106.795 127.362 143.450  0.00  0.00    +0.000 OA
ATOM     23  O   UNL     1     105.509 128.742 141.847  0.00  0.00    +0.000 OA
ATOM     24  O   UNL     1     105.015 128.625 143.417  0.00  0.00    +0.000 OA
ATOM     25  O   UNL     1     106.860 127.938 141.346  0.00  0.00    +0.000 OA
ATOM     26  C   UNL     1     105.938 128.282 142.381  0.00  0.00    +0.000 C 
ATOM     27  C   UNL     1     105.690 128.223 143.167  0.00  0.00    +0.000 C 
ATOM     28  C   UNL     1     106.613 127.880 142.131  0.00  0.00    +0.000 C 
ATOM     29  C   UNL     1     106.119 127.763 143.701  0.00  0.00    +0.000 C 
ATOM     30  C   UNL     1     107.042 127.420 142.665  0.00  0.00    +0.000 C 
BRANCH  30  33
ATOM     31  O   UNL     1     107.666 126.228 142.184  0.00  0.00    +0.000 OA
ATOM     32  O   UNL     1     108.444 127.407 142.394  0.00  0.00    +0.000 OA
ATOM     33  C   UNL     1     107.717 127.018 142.415  0.00  0.00    +0.000 C 
ENDBRANCH  30  33
ENDBRANCH  21  29
ENDBRANCH   8  21
BRANCH   4  34
ATOM     34  C   UNL     1     105.624 125.439 146.428  0.00  0.00    +0.000 C 
BRANCH  34  35
ATOM     35  C   UNL     1     105.540 124.982 145.748  0.00  0.00    +0.000 C 
ATOM     36  C   UNL     1     104.938 124.421 145.698  0.00  0.00    +0.000 C 
ATOM     37  C   UNL     1     104.854 123.963 145.017  0.00  0.00    +0.000 C 
BRANCH  36  38
ATOM     38  C   UNL     1     104.419 124.316 146.332  0.00  0.00    +0.000 C 
BRANCH  38  39
ATOM     39  C   UNL     1     103.740 123.857 146.237  0.00  0.00    +0.000 C 
BRANCH  39  40
ATOM     40  C   UNL     1     103.299 123.631 146.898  0.00  0.00    +0.000 C 
ATOM     41  C   UNL     1     102.528 123.356 146.804  0.00  0.00    +0.000 C 
ATOM     42  C   UNL     1     102.088 123.130 147.463  0.00  0.00    +0.000 C 
ATOM     43  C   UNL     1     102.196 123.306 146.050  0.00  0.00    +0.000 C 
ENDBRANCH  39  40
ENDBRANCH  38  39
ENDBRANCH  36  38
ENDBRANCH  34  35
ENDBRANCH   4  34
TORSDOF 9
ENDMDL
