MODEL 1
REMARK VINA RESULT:      -7.9      0.000      0.000
REMARK  Name = 188424
REMARK  2 active torsions:
REMARK  status: ('A' for Active; 'I' for Inactive)
REMARK    1  A    between atoms: O_2  and  C_12
REMARK    2  A    between atoms: C_6  and  C_9
REMARK                            x       y       z     vdW  Elec       q    Type
REMARK                         _______ _______ _______ _____ _____    ______ ____
ROOT
ATOM      1  O   UNL     1     111.953 125.769 136.042  0.00  0.00    +0.000 OA
ATOM      2  O   UNL     1     111.883 128.228 135.770  0.00  0.00    +0.000 OA
ATOM      3  O   UNL     1     109.419 125.520 134.628  0.00  0.00    +0.000 OA
ATOM      4  C   UNL     1     112.563 126.234 136.344  0.00  0.00    +0.000 C 
ATOM      5  C   UNL     1     112.540 127.054 136.254  0.00  0.00    +0.000 C 
ATOM      6  C   UNL     1     111.297 126.942 135.559  0.00  0.00    +0.000 A 
ATOM      7  C   UNL     1     111.906 127.408 135.861  0.00  0.00    +0.000 C 
ATOM      8  C   UNL     1     111.320 126.122 135.649  0.00  0.00    +0.000 A 
ATOM      9  C   UNL     1     110.642 127.322 135.151  0.00  0.00    +0.000 A 
ATOM     10  C   UNL     1     110.690 125.626 135.339  0.00  0.00    +0.000 A 
ATOM     11  C   UNL     1     110.004 126.842 134.835  0.00  0.00    +0.000 A 
ATOM     12  C   UNL     1     110.028 125.988 134.929  0.00  0.00    +0.000 A 
ENDROOT
BRANCH   4  14
ATOM     13  O   UNL     1     115.097 124.819 137.915  0.00  0.00    +0.000 OA
ATOM     14  C   UNL     1     113.196 125.881 136.737  0.00  0.00    +0.000 A 
ATOM     15  C   UNL     1     113.205 125.848 137.562  0.00  0.00    +0.000 A 
ATOM     16  C   UNL     1     113.821 125.559 136.305  0.00  0.00    +0.000 A 
ATOM     17  C   UNL     1     113.838 125.495 137.954  0.00  0.00    +0.000 A 
ATOM     18  C   UNL     1     114.456 125.205 136.698  0.00  0.00    +0.000 A 
ATOM     19  C   UNL     1     114.463 125.173 137.522  0.00  0.00    +0.000 A 
ENDBRANCH   4  14
BRANCH   9  20
ATOM     20  O   UNL     1     110.627 128.142 135.066  0.00  0.00    +0.000 OA
ATOM     21  C   UNL     1     109.962 128.512 134.747  0.00  0.00    +0.000 C 
ENDBRANCH   9  20
TORSDOF 2
ENDMDL
MODEL 2
REMARK VINA RESULT:      -7.9     13.246     13.705
REMARK  Name = 188424
REMARK  2 active torsions:
REMARK  status: ('A' for Active; 'I' for Inactive)
REMARK    1  A    between atoms: O_2  and  C_12
REMARK    2  A    between atoms: C_6  and  C_9
REMARK                            x       y       z     vdW  Elec       q    Type
REMARK                         _______ _______ _______ _____ _____    ______ ____
ROOT
ATOM      1  O   UNL     1     105.197 124.285 147.104  0.00  0.00    +0.000 OA
ATOM      2  O   UNL     1     103.595 125.472 148.570  0.00  0.00    +0.000 OA
ATOM      3  O   UNL     1     102.999 123.284 145.478  0.00  0.00    +0.000 OA
ATOM      4  C   UNL     1     105.473 124.726 147.745  0.00  0.00    +0.000 C 
ATOM      5  C   UNL     1     104.939 125.121 148.233  0.00  0.00    +0.000 C 
ATOM      6  C   UNL     1     103.854 124.635 147.441  0.00  0.00    +0.000 A 
ATOM      7  C   UNL     1     104.129 125.076 148.082  0.00  0.00    +0.000 C 
ATOM      8  C   UNL     1     104.388 124.239 146.952  0.00  0.00    +0.000 A 
ATOM      9  C   UNL     1     103.008 124.595 147.293  0.00  0.00    +0.000 A 
ATOM     10  C   UNL     1     104.113 123.777 146.282  0.00  0.00    +0.000 A 
ATOM     11  C   UNL     1     102.715 124.138 146.628  0.00  0.00    +0.000 A 
ATOM     12  C   UNL     1     103.271 123.726 146.119  0.00  0.00    +0.000 A 
ENDROOT
BRANCH   4  14
ATOM     13  O   UNL     1     108.712 124.908 148.352  0.00  0.00    +0.000 OA
ATOM     14  C   UNL     1     106.282 124.771 147.897  0.00  0.00    +0.000 A 
ATOM     15  C   UNL     1     106.600 124.399 148.562  0.00  0.00    +0.000 A 
ATOM     16  C   UNL     1     106.775 125.188 147.384  0.00  0.00    +0.000 A 
ATOM     17  C   UNL     1     107.408 124.445 148.713  0.00  0.00    +0.000 A 
ATOM     18  C   UNL     1     107.586 125.234 147.535  0.00  0.00    +0.000 A 
ATOM     19  C   UNL     1     107.902 124.862 148.200  0.00  0.00    +0.000 A 
ENDBRANCH   4  14
BRANCH   9  20
ATOM     20  O   UNL     1     102.481 124.994 147.787  0.00  0.00    +0.000 OA
ATOM     21  C   UNL     1     101.670 124.862 147.718  0.00  0.00    +0.000 C 
ENDBRANCH   9  20
TORSDOF 2
ENDMDL
MODEL 3
REMARK VINA RESULT:      -7.9     10.669     12.456
REMARK  Name = 188424
REMARK  2 active torsions:
REMARK  status: ('A' for Active; 'I' for Inactive)
REMARK    1  A    between atoms: O_2  and  C_12
REMARK    2  A    between atoms: C_6  and  C_9
REMARK                            x       y       z     vdW  Elec       q    Type
REMARK                         _______ _______ _______ _____ _____    ______ ____
ROOT
ATOM      1  O   UNL     1     102.077 130.928 141.002  0.00  0.00    +0.000 OA
ATOM      2  O   UNL     1     103.563 129.881 142.682  0.00  0.00    +0.000 OA
ATOM      3  O   UNL     1     102.570 128.724 139.163  0.00  0.00    +0.000 OA
ATOM      4  C   UNL     1     102.201 131.297 141.730  0.00  0.00    +0.000 C 
ATOM      5  C   UNL     1     102.696 130.948 142.290  0.00  0.00    +0.000 C 
ATOM      6  C   UNL     1     102.943 129.862 141.394  0.00  0.00    +0.000 A 
ATOM      7  C   UNL     1     103.068 130.230 142.122  0.00  0.00    +0.000 C 
ATOM      8  C   UNL     1     102.448 130.211 140.834  0.00  0.00    +0.000 A 
ATOM      9  C   UNL     1     103.336 129.115 141.231  0.00  0.00    +0.000 A 
ATOM     10  C   UNL     1     102.312 129.837 140.072  0.00  0.00    +0.000 A 
ATOM     11  C   UNL     1     103.211 128.727 140.475  0.00  0.00    +0.000 A 
ATOM     12  C   UNL     1     102.695 129.090 139.892  0.00  0.00    +0.000 A 
ENDROOT
BRANCH   4  14
ATOM     13  O   UNL     1     100.716 134.167 142.401  0.00  0.00    +0.000 OA
ATOM     14  C   UNL     1     101.830 132.014 141.897  0.00  0.00    +0.000 A 
ATOM     15  C   UNL     1     101.081 132.021 142.244  0.00  0.00    +0.000 A 
ATOM     16  C   UNL     1     102.207 132.725 141.719  0.00  0.00    +0.000 A 
ATOM     17  C   UNL     1     100.710 132.737 142.412  0.00  0.00    +0.000 A 
ATOM     18  C   UNL     1     101.836 133.443 141.886  0.00  0.00    +0.000 A 
ATOM     19  C   UNL     1     101.087 133.449 142.233  0.00  0.00    +0.000 A 
ENDBRANCH   4  14
BRANCH   9  20
ATOM     20  O   UNL     1     103.829 128.774 141.797  0.00  0.00    +0.000 OA
ATOM     21  C   UNL     1     104.411 128.235 141.567  0.00  0.00    +0.000 C 
ENDBRANCH   9  20
TORSDOF 2
ENDMDL
MODEL 4
REMARK VINA RESULT:      -7.7     12.843     13.705
REMARK  Name = 188424
REMARK  2 active torsions:
REMARK  status: ('A' for Active; 'I' for Inactive)
REMARK    1  A    between atoms: O_2  and  C_12
REMARK    2  A    between atoms: C_6  and  C_9
REMARK                            x       y       z     vdW  Elec       q    Type
REMARK                         _______ _______ _______ _____ _____    ______ ____
ROOT
ATOM      1  O   UNL     1     104.219 124.413 145.910  0.00  0.00    +0.000 OA
ATOM      2  O   UNL     1     105.123 124.513 148.211  0.00  0.00    +0.000 OA
ATOM      3  O   UNL     1     106.695 125.536 144.866  0.00  0.00    +0.000 OA
ATOM      4  C   UNL     1     103.760 124.154 146.544  0.00  0.00    +0.000 C 
ATOM      5  C   UNL     1     104.061 124.187 147.312  0.00  0.00    +0.000 C 
ATOM      6  C   UNL     1     105.280 124.739 146.809  0.00  0.00    +0.000 A 
ATOM      7  C   UNL     1     104.822 124.480 147.444  0.00  0.00    +0.000 C 
ATOM      8  C   UNL     1     104.979 124.705 146.041  0.00  0.00    +0.000 A 
ATOM      9  C   UNL     1     106.071 125.041 146.959  0.00  0.00    +0.000 A 
ATOM     10  C   UNL     1     105.447 124.972 145.372  0.00  0.00    +0.000 A 
ATOM     11  C   UNL     1     106.553 125.312 146.302  0.00  0.00    +0.000 A 
ATOM     12  C   UNL     1     106.239 125.277 145.503  0.00  0.00    +0.000 A 
ENDROOT
BRANCH   4  14
ATOM     13  O   UNL     1     100.720 122.983 146.016  0.00  0.00    +0.000 OA
ATOM     14  C   UNL     1     103.001 123.862 146.412  0.00  0.00    +0.000 A 
ATOM     15  C   UNL     1     102.342 124.301 146.646  0.00  0.00    +0.000 A 
ATOM     16  C   UNL     1     102.898 123.129 146.046  0.00  0.00    +0.000 A 
ATOM     17  C   UNL     1     101.583 124.009 146.514  0.00  0.00    +0.000 A 
ATOM     18  C   UNL     1     102.138 122.836 145.914  0.00  0.00    +0.000 A 
ATOM     19  C   UNL     1     101.481 123.276 146.148  0.00  0.00    +0.000 A 
ENDBRANCH   4  14
BRANCH   9  20
ATOM     20  O   UNL     1     106.363 125.071 147.730  0.00  0.00    +0.000 OA
ATOM     21  C   UNL     1     107.163 125.230 147.862  0.00  0.00    +0.000 C 
ENDBRANCH   9  20
TORSDOF 2
ENDMDL
MODEL 5
REMARK VINA RESULT:      -7.7      1.771      3.899
REMARK  Name = 188424
REMARK  2 active torsions:
REMARK  status: ('A' for Active; 'I' for Inactive)
REMARK    1  A    between atoms: O_2  and  C_12
REMARK    2  A    between atoms: C_6  and  C_9
REMARK                            x       y       z     vdW  Elec       q    Type
REMARK                         _______ _______ _______ _____ _____    ______ ____
ROOT
ATOM      1  O   UNL     1     113.937 126.896 136.745  0.00  0.00    +0.000 OA
ATOM      2  O   UNL     1     111.748 125.967 136.059  0.00  0.00    +0.000 OA
ATOM      3  O   UNL     1     114.850 124.236 137.502  0.00  0.00    +0.000 OA
ATOM      4  C   UNL     1     113.353 127.396 136.446  0.00  0.00    +0.000 C 
ATOM      5  C   UNL     1     112.623 127.087 136.218  0.00  0.00    +0.000 C 
ATOM      6  C   UNL     1     113.063 125.778 136.587  0.00  0.00    +0.000 A 
ATOM      7  C   UNL     1     112.478 126.277 136.288  0.00  0.00    +0.000 C 
ATOM      8  C   UNL     1     113.793 126.087 136.815  0.00  0.00    +0.000 A 
ATOM      9  C   UNL     1     112.899 124.936 136.655  0.00  0.00    +0.000 A 
ATOM     10  C   UNL     1     114.410 125.577 137.128  0.00  0.00    +0.000 A 
ATOM     11  C   UNL     1     113.504 124.411 136.965  0.00  0.00    +0.000 A 
ATOM     12  C   UNL     1     114.264 124.733 137.203  0.00  0.00    +0.000 A 
ENDROOT
BRANCH   4  14
ATOM     13  O   UNL     1     113.933 130.633 136.166  0.00  0.00    +0.000 OA
ATOM     14  C   UNL     1     113.498 128.204 136.376  0.00  0.00    +0.000 A 
ATOM     15  C   UNL     1     113.880 128.499 135.707  0.00  0.00    +0.000 A 
ATOM     16  C   UNL     1     113.261 128.719 136.975  0.00  0.00    +0.000 A 
ATOM     17  C   UNL     1     114.025 129.308 135.636  0.00  0.00    +0.000 A 
ATOM     18  C   UNL     1     113.406 129.529 136.905  0.00  0.00    +0.000 A 
ATOM     19  C   UNL     1     113.788 129.823 136.236  0.00  0.00    +0.000 A 
ENDBRANCH   4  14
BRANCH   9  20
ATOM     20  O   UNL     1     112.166 124.636 136.424  0.00  0.00    +0.000 OA
ATOM     21  C   UNL     1     111.963 123.858 136.608  0.00  0.00    +0.000 C 
ENDBRANCH   9  20
TORSDOF 2
ENDMDL
MODEL 6
REMARK VINA RESULT:      -7.6      1.713      3.196
REMARK  Name = 188424
REMARK  2 active torsions:
REMARK  status: ('A' for Active; 'I' for Inactive)
REMARK    1  A    between atoms: O_2  and  C_12
REMARK    2  A    between atoms: C_6  and  C_9
REMARK                            x       y       z     vdW  Elec       q    Type
REMARK                         _______ _______ _______ _____ _____    ______ ____
ROOT
ATOM      1  O   UNL     1     112.278 127.201 135.988  0.00  0.00    +0.000 OA
ATOM      2  O   UNL     1     113.448 125.388 137.200  0.00  0.00    +0.000 OA
ATOM      3  O   UNL     1     110.139 125.362 135.263  0.00  0.00    +0.000 OA
ATOM      4  C   UNL     1     112.995 127.354 136.365  0.00  0.00    +0.000 C 
ATOM      5  C   UNL     1     113.385 126.750 136.769  0.00  0.00    +0.000 C 
ATOM      6  C   UNL     1     112.341 125.841 136.418  0.00  0.00    +0.000 A 
ATOM      7  C   UNL     1     113.058 125.993 136.796  0.00  0.00    +0.000 C 
ATOM      8  C   UNL     1     111.950 126.445 136.014  0.00  0.00    +0.000 A 
ATOM      9  C   UNL     1     112.009 125.048 136.453  0.00  0.00    +0.000 A 
ATOM     10  C   UNL     1     111.202 126.298 135.617  0.00  0.00    +0.000 A 
ATOM     11  C   UNL     1     111.263 124.883 136.062  0.00  0.00    +0.000 A 
ATOM     12  C   UNL     1     110.857 125.512 135.641  0.00  0.00    +0.000 A 
ENDROOT
BRANCH   4  14
ATOM     13  O   UNL     1     114.305 130.382 136.260  0.00  0.00    +0.000 OA
ATOM     14  C   UNL     1     113.323 128.110 136.339  0.00  0.00    +0.000 A 
ATOM     15  C   UNL     1     113.838 128.317 135.728  0.00  0.00    +0.000 A 
ATOM     16  C   UNL     1     113.135 128.661 136.924  0.00  0.00    +0.000 A 
ATOM     17  C   UNL     1     114.165 129.073 135.702  0.00  0.00    +0.000 A 
ATOM     18  C   UNL     1     113.463 129.419 136.897  0.00  0.00    +0.000 A 
ATOM     19  C   UNL     1     113.977 129.624 136.286  0.00  0.00    +0.000 A 
ENDBRANCH   4  14
BRANCH   9  20
ATOM     20  O   UNL     1     112.407 124.450 136.860  0.00  0.00    +0.000 OA
ATOM     21  C   UNL     1     112.090 123.689 136.887  0.00  0.00    +0.000 C 
ENDBRANCH   9  20
TORSDOF 2
ENDMDL
MODEL 7
REMARK VINA RESULT:      -7.6     13.284     13.758
REMARK  Name = 188424
REMARK  2 active torsions:
REMARK  status: ('A' for Active; 'I' for Inactive)
REMARK    1  A    between atoms: O_2  and  C_12
REMARK    2  A    between atoms: C_6  and  C_9
REMARK                            x       y       z     vdW  Elec       q    Type
REMARK                         _______ _______ _______ _____ _____    ______ ____
ROOT
ATOM      1  O   UNL     1     104.179 125.005 147.463  0.00  0.00    +0.000 OA
ATOM      2  O   UNL     1     103.477 123.568 145.574  0.00  0.00    +0.000 OA
ATOM      3  O   UNL     1     101.408 125.266 148.321  0.00  0.00    +0.000 OA
ATOM      4  C   UNL     1     104.744 124.705 146.942  0.00  0.00    +0.000 C 
ATOM      5  C   UNL     1     104.510 124.226 146.312  0.00  0.00    +0.000 C 
ATOM      6  C   UNL     1     103.147 124.348 146.726  0.00  0.00    +0.000 A 
ATOM      7  C   UNL     1     103.711 124.047 146.204  0.00  0.00    +0.000 C 
ATOM      8  C   UNL     1     103.381 124.827 147.355  0.00  0.00    +0.000 A 
ATOM      9  C   UNL     1     102.319 124.155 146.603  0.00  0.00    +0.000 A 
ATOM     10  C   UNL     1     102.803 125.146 147.906  0.00  0.00    +0.000 A 
ATOM     11  C   UNL     1     101.727 124.465 147.142  0.00  0.00    +0.000 A 
ATOM     12  C   UNL     1     101.970 124.964 147.798  0.00  0.00    +0.000 A 
ENDROOT
BRANCH   4  14
ATOM     13  O   UNL     1     107.937 125.418 147.373  0.00  0.00    +0.000 OA
ATOM     14  C   UNL     1     105.541 124.883 147.050  0.00  0.00    +0.000 A 
ATOM     15  C   UNL     1     105.938 124.613 147.721  0.00  0.00    +0.000 A 
ATOM     16  C   UNL     1     105.944 125.332 146.486  0.00  0.00    +0.000 A 
ATOM     17  C   UNL     1     106.736 124.791 147.829  0.00  0.00    +0.000 A 
ATOM     18  C   UNL     1     106.743 125.510 146.594  0.00  0.00    +0.000 A 
ATOM     19  C   UNL     1     107.138 125.240 147.266  0.00  0.00    +0.000 A 
ENDBRANCH   4  14
BRANCH   9  20
ATOM     20  O   UNL     1     102.094 123.675 145.970  0.00  0.00    +0.000 OA
ATOM     21  C   UNL     1     101.303 123.460 145.876  0.00  0.00    +0.000 C 
ENDBRANCH   9  20
TORSDOF 2
ENDMDL
MODEL 8
REMARK VINA RESULT:      -7.4      2.810      4.185
REMARK  Name = 188424
REMARK  2 active torsions:
REMARK  status: ('A' for Active; 'I' for Inactive)
REMARK    1  A    between atoms: O_2  and  C_12
REMARK    2  A    between atoms: C_6  and  C_9
REMARK                            x       y       z     vdW  Elec       q    Type
REMARK                         _______ _______ _______ _____ _____    ______ ____
ROOT
ATOM      1  O   UNL     1     113.875 126.314 138.625  0.00  0.00    +0.000 OA
ATOM      2  O   UNL     1     111.620 125.407 138.156  0.00  0.00    +0.000 OA
ATOM      3  O   UNL     1     115.030 124.523 136.641  0.00  0.00    +0.000 OA
ATOM      4  C   UNL     1     113.220 126.604 139.035  0.00  0.00    +0.000 C 
ATOM      5  C   UNL     1     112.469 126.302 138.879  0.00  0.00    +0.000 C 
ATOM      6  C   UNL     1     113.027 125.420 137.903  0.00  0.00    +0.000 A 
ATOM      7  C   UNL     1     112.372 125.709 138.312  0.00  0.00    +0.000 C 
ATOM      8  C   UNL     1     113.778 125.722 138.060  0.00  0.00    +0.000 A 
ATOM      9  C   UNL     1     112.913 124.803 137.315  0.00  0.00    +0.000 A 
ATOM     10  C   UNL     1     114.468 125.428 137.639  0.00  0.00    +0.000 A 
ATOM     11  C   UNL     1     113.591 124.497 136.886  0.00  0.00    +0.000 A 
ATOM     12  C   UNL     1     114.374 124.811 137.049  0.00  0.00    +0.000 A 
ENDROOT
BRANCH   4  14
ATOM     13  O   UNL     1     113.607 128.973 141.300  0.00  0.00    +0.000 OA
ATOM     14  C   UNL     1     113.317 127.196 139.601  0.00  0.00    +0.000 A 
ATOM     15  C   UNL     1     113.233 127.989 139.388  0.00  0.00    +0.000 A 
ATOM     16  C   UNL     1     113.497 126.996 140.381  0.00  0.00    +0.000 A 
ATOM     17  C   UNL     1     113.330 128.581 139.954  0.00  0.00    +0.000 A 
ATOM     18  C   UNL     1     113.594 127.588 140.947  0.00  0.00    +0.000 A 
ATOM     19  C   UNL     1     113.510 128.381 140.733  0.00  0.00    +0.000 A 
ENDBRANCH   4  14
BRANCH   9  20
ATOM     20  O   UNL     1     112.158 124.507 137.166  0.00  0.00    +0.000 OA
ATOM     21  C   UNL     1     112.056 123.887 136.630  0.00  0.00    +0.000 C 
ENDBRANCH   9  20
TORSDOF 2
ENDMDL
MODEL 9
REMARK VINA RESULT:      -7.4      2.376      3.352
REMARK  Name = 188424
REMARK  2 active torsions:
REMARK  status: ('A' for Active; 'I' for Inactive)
REMARK    1  A    between atoms: O_2  and  C_12
REMARK    2  A    between atoms: C_6  and  C_9
REMARK                            x       y       z     vdW  Elec       q    Type
REMARK                         _______ _______ _______ _____ _____    ______ ____
ROOT
ATOM      1  O   UNL     1     113.871 127.467 136.055  0.00  0.00    +0.000 OA
ATOM      2  O   UNL     1     112.814 128.793 137.857  0.00  0.00    +0.000 OA
ATOM      3  O   UNL     1     114.715 129.914 134.721  0.00  0.00    +0.000 OA
ATOM      4  C   UNL     1     113.490 127.084 136.679  0.00  0.00    +0.000 C 
ATOM      5  C   UNL     1     113.138 127.526 137.280  0.00  0.00    +0.000 C 
ATOM      6  C   UNL     1     113.547 128.732 136.632  0.00  0.00    +0.000 A 
ATOM      7  C   UNL     1     113.166 128.351 137.256  0.00  0.00    +0.000 C 
ATOM      8  C   UNL     1     113.900 128.290 136.032  0.00  0.00    +0.000 A 
ATOM      9  C   UNL     1     113.570 129.592 136.619  0.00  0.00    +0.000 A 
ATOM     10  C   UNL     1     114.300 128.677 135.376  0.00  0.00    +0.000 A 
ATOM     11  C   UNL     1     113.966 129.995 135.972  0.00  0.00    +0.000 A 
ATOM     12  C   UNL     1     114.333 129.535 135.346  0.00  0.00    +0.000 A 
ENDROOT
BRANCH   4  14
ATOM     13  O   UNL     1     113.375 123.787 136.773  0.00  0.00    +0.000 OA
ATOM     14  C   UNL     1     113.462 126.261 136.703  0.00  0.00    +0.000 A 
ATOM     15  C   UNL     1     114.103 125.833 136.997  0.00  0.00    +0.000 A 
ATOM     16  C   UNL     1     112.791 125.863 136.432  0.00  0.00    +0.000 A 
ATOM     17  C   UNL     1     114.074 125.009 137.021  0.00  0.00    +0.000 A 
ATOM     18  C   UNL     1     112.762 125.038 136.455  0.00  0.00    +0.000 A 
ATOM     19  C   UNL     1     113.404 124.612 136.750  0.00  0.00    +0.000 A 
ENDBRANCH   4  14
BRANCH   9  20
ATOM     20  O   UNL     1     113.215 130.026 137.224  0.00  0.00    +0.000 OA
ATOM     21  C   UNL     1     113.262 130.850 137.223  0.00  0.00    +0.000 C 
ENDBRANCH   9  20
TORSDOF 2
ENDMDL
MODEL 10
REMARK VINA RESULT:      -7.4      1.305      4.041
REMARK  Name = 188424
REMARK  2 active torsions:
REMARK  status: ('A' for Active; 'I' for Inactive)
REMARK    1  A    between atoms: O_2  and  C_12
REMARK    2  A    between atoms: C_6  and  C_9
REMARK                            x       y       z     vdW  Elec       q    Type
REMARK                         _______ _______ _______ _____ _____    ______ ____
ROOT
ATOM      1  O   UNL     1     111.379 125.778 136.112  0.00  0.00    +0.000 OA
ATOM      2  O   UNL     1     113.699 126.518 136.556  0.00  0.00    +0.000 OA
ATOM      3  O   UNL     1     112.062 123.072 136.945  0.00  0.00    +0.000 OA
ATOM      4  C   UNL     1     111.593 126.564 135.981  0.00  0.00    +0.000 C 
ATOM      5  C   UNL     1     112.366 126.811 136.129  0.00  0.00    +0.000 C 
ATOM      6  C   UNL     1     112.710 125.486 136.539  0.00  0.00    +0.000 A 
ATOM      7  C   UNL     1     112.925 126.271 136.408  0.00  0.00    +0.000 C 
ATOM      8  C   UNL     1     111.937 125.239 136.391  0.00  0.00    +0.000 A 
ATOM      9  C   UNL     1     113.302 124.933 136.830  0.00  0.00    +0.000 A 
ATOM     10  C   UNL     1     111.702 124.423 136.524  0.00  0.00    +0.000 A 
ATOM     11  C   UNL     1     113.084 124.114 136.968  0.00  0.00    +0.000 A 
ATOM     12  C   UNL     1     112.279 123.857 136.814  0.00  0.00    +0.000 A 
ENDROOT
BRANCH   4  14
ATOM     13  O   UNL     1     109.358 128.721 134.866  0.00  0.00    +0.000 OA
ATOM     14  C   UNL     1     111.035 127.103 135.702  0.00  0.00    +0.000 A 
ATOM     15  C   UNL     1     110.909 127.185 134.891  0.00  0.00    +0.000 A 
ATOM     16  C   UNL     1     110.601 127.559 136.235  0.00  0.00    +0.000 A 
ATOM     17  C   UNL     1     110.351 127.724 134.612  0.00  0.00    +0.000 A 
ATOM     18  C   UNL     1     110.041 128.099 135.956  0.00  0.00    +0.000 A 
ATOM     19  C   UNL     1     109.917 128.181 135.145  0.00  0.00    +0.000 A 
ENDBRANCH   4  14
BRANCH   9  20
ATOM     20  O   UNL     1     114.072 125.189 136.975  0.00  0.00    +0.000 OA
ATOM     21  C   UNL     1     114.612 124.686 137.345  0.00  0.00    +0.000 C 
ENDBRANCH   9  20
TORSDOF 2
ENDMDL
