MODEL 1
REMARK VINA RESULT:     -10.1      0.000      0.000
REMARK  Name = 131752195
REMARK  8 active torsions:
REMARK  status: ('A' for Active; 'I' for Inactive)
REMARK    1  A    between atoms: O_2  and  C_23
REMARK    2  A    between atoms: O_2  and  C_27
REMARK    3  A    between atoms: O_6  and  C_26
REMARK    4  A    between atoms: O_6  and  C_30
REMARK    5  A    between atoms: O_14  and  C_40
REMARK    6  A    between atoms: O_16  and  C_42
REMARK    7  A    between atoms: C_18  and  C_27
REMARK    8  A    between atoms: C_31  and  C_35
REMARK                            x       y       z     vdW  Elec       q    Type
REMARK                         _______ _______ _______ _____ _____    ______ ____
ROOT
ATOM      1  O   UNL     1     113.017 128.545 138.177  0.00  0.00    +0.000 OA
ATOM      2  O   UNL     1     113.523 127.144 136.200  0.00  0.00    +0.000 OA
ATOM      3  O   UNL     1     113.996 128.294 135.470  0.00  0.00    +0.000 OA
ATOM      4  O   UNL     1     113.956 130.912 136.764  0.00  0.00    +0.000 OA
ATOM      5  C   UNL     1     113.039 127.266 137.539  0.00  0.00    +0.000 A 
ATOM      6  C   UNL     1     112.870 127.733 138.198  0.00  0.00    +0.000 A 
ATOM      7  C   UNL     1     113.354 127.611 136.859  0.00  0.00    +0.000 A 
ATOM      8  C   UNL     1     113.501 128.422 136.838  0.00  0.00    +0.000 A 
ATOM      9  C   UNL     1     113.333 128.889 137.497  0.00  0.00    +0.000 A 
ATOM     10  C   UNL     1     113.830 128.769 136.124  0.00  0.00    +0.000 A 
ATOM     11  C   UNL     1     113.482 129.735 137.487  0.00  0.00    +0.000 A 
ATOM     12  C   UNL     1     113.986 129.613 136.096  0.00  0.00    +0.000 A 
ATOM     13  C   UNL     1     113.810 130.100 136.783  0.00  0.00    +0.000 A 
ENDROOT
BRANCH   6  15
ATOM     14  O   UNL     1     111.610 126.356 140.920  0.00  0.00    +0.000 OA
ATOM     15  C   UNL     1     112.555 127.389 138.878  0.00  0.00    +0.000 A 
ATOM     16  C   UNL     1     111.756 127.490 139.059  0.00  0.00    +0.000 A 
ATOM     17  C   UNL     1     113.039 126.943 139.377  0.00  0.00    +0.000 A 
ATOM     18  C   UNL     1     111.442 127.145 139.740  0.00  0.00    +0.000 A 
ATOM     19  C   UNL     1     112.723 126.600 140.057  0.00  0.00    +0.000 A 
ATOM     20  C   UNL     1     111.925 126.700 140.239  0.00  0.00    +0.000 A 
BRANCH  18  21
ATOM     21  O   UNL     1     110.643 127.246 139.922  0.00  0.00    +0.000 OA
ATOM     22  C   UNL     1     110.248 127.930 139.680  0.00  0.00    +0.000 C 
ENDBRANCH  18  21
ENDBRANCH   6  15
BRANCH  12  23
ATOM     23  O   UNL     1     114.301 129.955 135.415  0.00  0.00    +0.000 OA
ATOM     24  C   UNL     1     115.089 130.199 135.402  0.00  0.00    +0.000 C 
ENDBRANCH  12  23
BRANCH   5  25
ATOM     25  O   UNL     1     112.891 126.455 137.560  0.00  0.00    +0.000 OA
BRANCH  25  34
ATOM     26  O   UNL     1     111.780 126.580 136.670  0.00  0.00    +0.000 OA
ATOM     27  O   UNL     1     110.788 125.103 135.407  0.00  0.00    +0.000 OA
ATOM     28  O   UNL     1     111.958 124.176 136.109  0.00  0.00    +0.000 OA
ATOM     29  O   UNL     1     113.010 124.852 137.186  0.00  0.00    +0.000 OA
ATOM     30  C   UNL     1     111.254 126.242 136.132  0.00  0.00    +0.000 C 
ATOM     31  C   UNL     1     111.314 125.441 135.945  0.00  0.00    +0.000 C 
ATOM     32  C   UNL     1     111.899 124.977 136.296  0.00  0.00    +0.000 C 
ATOM     33  C   UNL     1     112.425 125.315 136.834  0.00  0.00    +0.000 C 
ATOM     34  C   UNL     1     112.366 126.117 137.022  0.00  0.00    +0.000 C 
BRANCH  30  35
ATOM     35  C   UNL     1     110.669 126.706 135.781  0.00  0.00    +0.000 C 
BRANCH  35  36
ATOM     36  O   UNL     1     110.168 127.162 136.251  0.00  0.00    +0.000 OA
BRANCH  36  42
ATOM     37  O   UNL     1     110.305 128.386 135.526  0.00  0.00    +0.000 OA
ATOM     38  O   UNL     1     108.569 127.487 136.496  0.00  0.00    +0.000 OA
ATOM     39  O   UNL     1     107.907 128.873 135.894  0.00  0.00    +0.000 OA
ATOM     40  O   UNL     1     108.844 129.934 135.047  0.00  0.00    +0.000 OA
ATOM     41  C   UNL     1     109.037 128.018 136.073  0.00  0.00    +0.000 C 
ATOM     42  C   UNL     1     109.836 127.855 135.950  0.00  0.00    +0.000 C 
ATOM     43  C   UNL     1     108.706 128.711 135.771  0.00  0.00    +0.000 C 
ATOM     44  C   UNL     1     109.174 129.241 135.348  0.00  0.00    +0.000 C 
ATOM     45  C   UNL     1     109.974 129.079 135.225  0.00  0.00    +0.000 C 
ATOM     46  C   UNL     1     110.443 129.609 134.802  0.00  0.00    +0.000 C 
ENDBRANCH  36  42
ENDBRANCH  35  36
ENDBRANCH  30  35
ENDBRANCH  25  34
ENDBRANCH   5  25
TORSDOF 8
ENDMDL
MODEL 2
REMARK VINA RESULT:     -10.1      0.880      2.687
REMARK  Name = 131752195
REMARK  8 active torsions:
REMARK  status: ('A' for Active; 'I' for Inactive)
REMARK    1  A    between atoms: O_2  and  C_23
REMARK    2  A    between atoms: O_2  and  C_27
REMARK    3  A    between atoms: O_6  and  C_26
REMARK    4  A    between atoms: O_6  and  C_30
REMARK    5  A    between atoms: O_14  and  C_40
REMARK    6  A    between atoms: O_16  and  C_42
REMARK    7  A    between atoms: C_18  and  C_27
REMARK    8  A    between atoms: C_31  and  C_35
REMARK                            x       y       z     vdW  Elec       q    Type
REMARK                         _______ _______ _______ _____ _____    ______ ____
ROOT
ATOM      1  O   UNL     1     113.376 127.148 136.126  0.00  0.00    +0.000 OA
ATOM      2  O   UNL     1     113.198 128.369 138.271  0.00  0.00    +0.000 OA
ATOM      3  O   UNL     1     113.609 129.599 137.639  0.00  0.00    +0.000 OA
ATOM      4  O   UNL     1     114.211 129.592 134.781  0.00  0.00    +0.000 OA
ATOM      5  C   UNL     1     113.083 127.156 137.525  0.00  0.00    +0.000 A 
ATOM      6  C   UNL     1     113.142 126.749 136.810  0.00  0.00    +0.000 A 
ATOM      7  C   UNL     1     113.257 127.962 137.556  0.00  0.00    +0.000 A 
ATOM      8  C   UNL     1     113.491 128.361 136.873  0.00  0.00    +0.000 A 
ATOM      9  C   UNL     1     113.551 127.954 136.158  0.00  0.00    +0.000 A 
ATOM     10  C   UNL     1     113.671 129.200 136.919  0.00  0.00    +0.000 A 
ATOM     11  C   UNL     1     113.794 128.358 135.440  0.00  0.00    +0.000 A 
ATOM     12  C   UNL     1     113.915 129.620 136.211  0.00  0.00    +0.000 A 
ATOM     13  C   UNL     1     113.977 129.196 135.466  0.00  0.00    +0.000 A 
ENDROOT
BRANCH   6  15
ATOM     14  O   UNL     1     112.446 123.526 136.681  0.00  0.00    +0.000 OA
ATOM     15  C   UNL     1     112.967 125.944 136.777  0.00  0.00    +0.000 A 
ATOM     16  C   UNL     1     112.248 125.689 136.463  0.00  0.00    +0.000 A 
ATOM     17  C   UNL     1     113.513 125.392 137.060  0.00  0.00    +0.000 A 
ATOM     18  C   UNL     1     112.075 124.883 136.431  0.00  0.00    +0.000 A 
ATOM     19  C   UNL     1     113.338 124.587 137.027  0.00  0.00    +0.000 A 
ATOM     20  C   UNL     1     112.619 124.332 136.713  0.00  0.00    +0.000 A 
BRANCH  18  21
ATOM     21  O   UNL     1     111.356 124.629 136.116  0.00  0.00    +0.000 OA
ATOM     22  C   UNL     1     110.969 125.086 135.548  0.00  0.00    +0.000 C 
ENDBRANCH  18  21
ENDBRANCH   6  15
BRANCH  12  23
ATOM     23  O   UNL     1     114.089 130.426 136.246  0.00  0.00    +0.000 OA
ATOM     24  C   UNL     1     114.875 130.679 136.232  0.00  0.00    +0.000 C 
ENDBRANCH  12  23
BRANCH   5  25
ATOM     25  O   UNL     1     112.849 126.758 138.208  0.00  0.00    +0.000 OA
BRANCH  25  34
ATOM     26  O   UNL     1     111.572 127.400 138.223  0.00  0.00    +0.000 OA
ATOM     27  O   UNL     1     110.165 127.745 139.855  0.00  0.00    +0.000 OA
ATOM     28  O   UNL     1     111.376 126.954 140.649  0.00  0.00    +0.000 OA
ATOM     29  O   UNL     1     112.718 126.461 139.825  0.00  0.00    +0.000 OA
ATOM     30  C   UNL     1     110.901 127.646 138.635  0.00  0.00    +0.000 C 
ATOM     31  C   UNL     1     110.836 127.498 139.443  0.00  0.00    +0.000 C 
ATOM     32  C   UNL     1     111.441 127.103 139.841  0.00  0.00    +0.000 C 
ATOM     33  C   UNL     1     112.112 126.856 139.429  0.00  0.00    +0.000 C 
ATOM     34  C   UNL     1     112.178 127.005 138.619  0.00  0.00    +0.000 C 
BRANCH  30  35
ATOM     35  C   UNL     1     110.295 128.042 138.237  0.00  0.00    +0.000 C 
BRANCH  35  36
ATOM     36  O   UNL     1     110.034 127.765 137.505  0.00  0.00    +0.000 OA
BRANCH  36  42
ATOM     37  O   UNL     1     110.060 129.016 136.815  0.00  0.00    +0.000 OA
ATOM     38  O   UNL     1     108.647 127.356 136.711  0.00  0.00    +0.000 OA
ATOM     39  O   UNL     1     107.980 128.402 135.624  0.00  0.00    +0.000 OA
ATOM     40  O   UNL     1     108.699 129.857 135.331  0.00  0.00    +0.000 OA
ATOM     41  C   UNL     1     109.007 128.083 136.564  0.00  0.00    +0.000 C 
ATOM     42  C   UNL     1     109.700 128.288 136.962  0.00  0.00    +0.000 C 
ATOM     43  C   UNL     1     108.673 128.607 136.021  0.00  0.00    +0.000 C 
ATOM     44  C   UNL     1     109.033 129.334 135.874  0.00  0.00    +0.000 C 
ATOM     45  C   UNL     1     109.726 129.539 136.272  0.00  0.00    +0.000 C 
ATOM     46  C   UNL     1     110.086 130.266 136.126  0.00  0.00    +0.000 C 
ENDBRANCH  36  42
ENDBRANCH  35  36
ENDBRANCH  30  35
ENDBRANCH  25  34
ENDBRANCH   5  25
TORSDOF 8
ENDMDL
MODEL 3
REMARK VINA RESULT:      -9.8      1.175      4.454
REMARK  Name = 131752195
REMARK  8 active torsions:
REMARK  status: ('A' for Active; 'I' for Inactive)
REMARK    1  A    between atoms: O_2  and  C_23
REMARK    2  A    between atoms: O_2  and  C_27
REMARK    3  A    between atoms: O_6  and  C_26
REMARK    4  A    between atoms: O_6  and  C_30
REMARK    5  A    between atoms: O_14  and  C_40
REMARK    6  A    between atoms: O_16  and  C_42
REMARK    7  A    between atoms: C_18  and  C_27
REMARK    8  A    between atoms: C_31  and  C_35
REMARK                            x       y       z     vdW  Elec       q    Type
REMARK                         _______ _______ _______ _____ _____    ______ ____
ROOT
ATOM      1  O   UNL     1     113.749 127.122 136.821  0.00  0.00    +0.000 OA
ATOM      2  O   UNL     1     111.568 126.371 135.924  0.00  0.00    +0.000 OA
ATOM      3  O   UNL     1     111.928 124.989 136.126  0.00  0.00    +0.000 OA
ATOM      4  O   UNL     1     114.546 124.355 137.258  0.00  0.00    +0.000 OA
ATOM      5  C   UNL     1     112.467 127.427 136.267  0.00  0.00    +0.000 A 
ATOM      6  C   UNL     1     113.194 127.677 136.566  0.00  0.00    +0.000 A 
ATOM      7  C   UNL     1     112.295 126.621 136.223  0.00  0.00    +0.000 A 
ATOM      8  C   UNL     1     112.849 126.066 136.478  0.00  0.00    +0.000 A 
ATOM      9  C   UNL     1     113.576 126.317 136.777  0.00  0.00    +0.000 A 
ATOM     10  C   UNL     1     112.658 125.230 136.427  0.00  0.00    +0.000 A 
ATOM     11  C   UNL     1     114.162 125.748 137.045  0.00  0.00    +0.000 A 
ATOM     12  C   UNL     1     113.231 124.647 136.691  0.00  0.00    +0.000 A 
ATOM     13  C   UNL     1     113.989 124.908 137.002  0.00  0.00    +0.000 A 
ENDROOT
BRANCH   6  15
ATOM     14  O   UNL     1     113.886 130.899 136.740  0.00  0.00    +0.000 OA
ATOM     15  C   UNL     1     113.367 128.483 136.610  0.00  0.00    +0.000 A 
ATOM     16  C   UNL     1     113.348 128.870 137.338  0.00  0.00    +0.000 A 
ATOM     17  C   UNL     1     113.559 128.901 135.925  0.00  0.00    +0.000 A 
ATOM     18  C   UNL     1     113.522 129.675 137.381  0.00  0.00    +0.000 A 
ATOM     19  C   UNL     1     113.732 129.707 135.969  0.00  0.00    +0.000 A 
ATOM     20  C   UNL     1     113.713 130.094 136.697  0.00  0.00    +0.000 A 
BRANCH  18  21
ATOM     21  O   UNL     1     113.503 130.062 138.110  0.00  0.00    +0.000 OA
ATOM     22  C   UNL     1     113.576 129.630 138.809  0.00  0.00    +0.000 C 
ENDBRANCH  18  21
ENDBRANCH   6  15
BRANCH  12  23
ATOM     23  O   UNL     1     113.056 123.842 136.645  0.00  0.00    +0.000 OA
ATOM     24  C   UNL     1     112.675 123.467 137.274  0.00  0.00    +0.000 C 
ENDBRANCH  12  23
BRANCH   5  25
ATOM     25  O   UNL     1     111.913 127.982 136.012  0.00  0.00    +0.000 OA
BRANCH  25  34
ATOM     26  O   UNL     1     111.089 127.916 137.178  0.00  0.00    +0.000 OA
ATOM     27  O   UNL     1     108.927 128.093 137.413  0.00  0.00    +0.000 OA
ATOM     28  O   UNL     1     109.080 128.281 135.781  0.00  0.00    +0.000 OA
ATOM     29  O   UNL     1     110.573 128.226 135.081  0.00  0.00    +0.000 OA
ATOM     30  C   UNL     1     110.343 127.944 137.529  0.00  0.00    +0.000 C 
ATOM     31  C   UNL     1     109.673 128.065 137.063  0.00  0.00    +0.000 C 
ATOM     32  C   UNL     1     109.749 128.160 136.247  0.00  0.00    +0.000 C 
ATOM     33  C   UNL     1     110.496 128.132 135.896  0.00  0.00    +0.000 C 
ATOM     34  C   UNL     1     111.166 128.010 136.363  0.00  0.00    +0.000 C 
BRANCH  30  35
ATOM     35  C   UNL     1     110.267 127.850 138.345  0.00  0.00    +0.000 C 
BRANCH  35  36
ATOM     36  O   UNL     1     110.713 127.277 138.737  0.00  0.00    +0.000 OA
BRANCH  36  42
ATOM     37  O   UNL     1     110.607 127.971 139.981  0.00  0.00    +0.000 OA
ATOM     38  O   UNL     1     111.075 125.885 139.544  0.00  0.00    +0.000 OA
ATOM     39  O   UNL     1     111.150 125.882 141.193  0.00  0.00    +0.000 OA
ATOM     40  O   UNL     1     110.863 127.272 142.033  0.00  0.00    +0.000 OA
ATOM     41  C   UNL     1     110.932 126.579 139.965  0.00  0.00    +0.000 C 
ATOM     42  C   UNL     1     110.751 127.275 139.561  0.00  0.00    +0.000 C 
ATOM     43  C   UNL     1     110.969 126.579 140.789  0.00  0.00    +0.000 C 
ATOM     44  C   UNL     1     110.826 127.273 141.209  0.00  0.00    +0.000 C 
ATOM     45  C   UNL     1     110.645 127.969 140.805  0.00  0.00    +0.000 C 
ATOM     46  C   UNL     1     110.501 128.665 141.225  0.00  0.00    +0.000 C 
ENDBRANCH  36  42
ENDBRANCH  35  36
ENDBRANCH  30  35
ENDBRANCH  25  34
ENDBRANCH   5  25
TORSDOF 8
ENDMDL
MODEL 4
REMARK VINA RESULT:      -9.6      1.230      4.221
REMARK  Name = 131752195
REMARK  8 active torsions:
REMARK  status: ('A' for Active; 'I' for Inactive)
REMARK    1  A    between atoms: O_2  and  C_23
REMARK    2  A    between atoms: O_2  and  C_27
REMARK    3  A    between atoms: O_6  and  C_26
REMARK    4  A    between atoms: O_6  and  C_30
REMARK    5  A    between atoms: O_14  and  C_40
REMARK    6  A    between atoms: O_16  and  C_42
REMARK    7  A    between atoms: C_18  and  C_27
REMARK    8  A    between atoms: C_31  and  C_35
REMARK                            x       y       z     vdW  Elec       q    Type
REMARK                         _______ _______ _______ _____ _____    ______ ____
ROOT
ATOM      1  O   UNL     1     111.687 128.980 135.647  0.00  0.00    +0.000 OA
ATOM      2  O   UNL     1     112.461 129.445 137.952  0.00  0.00    +0.000 OA
ATOM      3  O   UNL     1     113.791 129.740 137.477  0.00  0.00    +0.000 OA
ATOM      4  O   UNL     1     114.348 129.560 134.615  0.00  0.00    +0.000 OA
ATOM      5  C   UNL     1     111.419 129.070 137.049  0.00  0.00    +0.000 A 
ATOM      6  C   UNL     1     111.162 128.915 136.281  0.00  0.00    +0.000 A 
ATOM      7  C   UNL     1     112.203 129.290 137.184  0.00  0.00    +0.000 A 
ATOM      8  C   UNL     1     112.728 129.356 136.552  0.00  0.00    +0.000 A 
ATOM      9  C   UNL     1     112.470 129.201 135.783  0.00  0.00    +0.000 A 
ATOM     10  C   UNL     1     113.542 129.587 136.705  0.00  0.00    +0.000 A 
ATOM     11  C   UNL     1     113.008 129.266 135.116  0.00  0.00    +0.000 A 
ATOM     12  C   UNL     1     114.093 129.657 136.051  0.00  0.00    +0.000 A 
ATOM     13  C   UNL     1     113.825 129.495 135.250  0.00  0.00    +0.000 A 
ENDROOT
BRANCH   6  15
ATOM     14  O   UNL     1     108.028 128.034 135.736  0.00  0.00    +0.000 OA
ATOM     15  C   UNL     1     110.378 128.694 136.145  0.00  0.00    +0.000 A 
ATOM     16  C   UNL     1     110.195 127.909 135.967  0.00  0.00    +0.000 A 
ATOM     17  C   UNL     1     109.778 129.259 136.186  0.00  0.00    +0.000 A 
ATOM     18  C   UNL     1     109.412 127.690 135.831  0.00  0.00    +0.000 A 
ATOM     19  C   UNL     1     108.995 129.038 136.050  0.00  0.00    +0.000 A 
ATOM     20  C   UNL     1     108.812 128.254 135.872  0.00  0.00    +0.000 A 
BRANCH  18  21
ATOM     21  O   UNL     1     109.228 126.905 135.653  0.00  0.00    +0.000 OA
ATOM     22  C   UNL     1     109.693 126.485 135.115  0.00  0.00    +0.000 C 
ENDBRANCH  18  21
ENDBRANCH   6  15
BRANCH  12  23
ATOM     23  O   UNL     1     114.876 129.878 136.189  0.00  0.00    +0.000 OA
ATOM     24  C   UNL     1     115.110 130.661 136.075  0.00  0.00    +0.000 C 
ENDBRANCH  12  23
BRANCH   5  25
ATOM     25  O   UNL     1     110.894 129.004 137.681  0.00  0.00    +0.000 OA
BRANCH  25  34
ATOM     26  O   UNL     1     111.461 127.777 138.145  0.00  0.00    +0.000 OA
ATOM     27  O   UNL     1     111.530 126.898 140.141  0.00  0.00    +0.000 OA
ATOM     28  O   UNL     1     110.715 128.300 140.445  0.00  0.00    +0.000 OA
ATOM     29  O   UNL     1     110.397 129.353 139.215  0.00  0.00    +0.000 OA
ATOM     30  C   UNL     1     111.620 127.250 138.760  0.00  0.00    +0.000 C 
ATOM     31  C   UNL     1     111.371 127.425 139.526  0.00  0.00    +0.000 C 
ATOM     32  C   UNL     1     110.963 128.126 139.679  0.00  0.00    +0.000 C 
ATOM     33  C   UNL     1     110.804 128.652 139.064  0.00  0.00    +0.000 C 
ATOM     34  C   UNL     1     111.053 128.478 138.296  0.00  0.00    +0.000 C 
BRANCH  30  35
ATOM     35  C   UNL     1     112.027 126.549 138.607  0.00  0.00    +0.000 C 
BRANCH  35  36
ATOM     36  O   UNL     1     111.721 126.003 138.069  0.00  0.00    +0.000 OA
BRANCH  36  42
ATOM     37  O   UNL     1     112.995 125.717 137.488  0.00  0.00    +0.000 OA
ATOM     38  O   UNL     1     111.196 124.493 137.663  0.00  0.00    +0.000 OA
ATOM     39  O   UNL     1     112.207 123.451 136.878  0.00  0.00    +0.000 OA
ATOM     40  O   UNL     1     113.743 123.920 136.501  0.00  0.00    +0.000 OA
ATOM     41  C   UNL     1     111.964 124.727 137.474  0.00  0.00    +0.000 C 
ATOM     42  C   UNL     1     112.226 125.482 137.677  0.00  0.00    +0.000 C 
ATOM     43  C   UNL     1     112.470 124.207 137.082  0.00  0.00    +0.000 C 
ATOM     44  C   UNL     1     113.237 124.441 136.893  0.00  0.00    +0.000 C 
ATOM     45  C   UNL     1     113.500 125.196 137.096  0.00  0.00    +0.000 C 
ATOM     46  C   UNL     1     114.268 125.431 136.908  0.00  0.00    +0.000 C 
ENDBRANCH  36  42
ENDBRANCH  35  36
ENDBRANCH  30  35
ENDBRANCH  25  34
ENDBRANCH   5  25
TORSDOF 8
ENDMDL
MODEL 5
REMARK VINA RESULT:      -9.6      1.580      3.459
REMARK  Name = 131752195
REMARK  8 active torsions:
REMARK  status: ('A' for Active; 'I' for Inactive)
REMARK    1  A    between atoms: O_2  and  C_23
REMARK    2  A    between atoms: O_2  and  C_27
REMARK    3  A    between atoms: O_6  and  C_26
REMARK    4  A    between atoms: O_6  and  C_30
REMARK    5  A    between atoms: O_14  and  C_40
REMARK    6  A    between atoms: O_16  and  C_42
REMARK    7  A    between atoms: C_18  and  C_27
REMARK    8  A    between atoms: C_31  and  C_35
REMARK                            x       y       z     vdW  Elec       q    Type
REMARK                         _______ _______ _______ _____ _____    ______ ____
ROOT
ATOM      1  O   UNL     1     112.253 127.981 135.463  0.00  0.00    +0.000 OA
ATOM      2  O   UNL     1     112.236 128.567 137.868  0.00  0.00    +0.000 OA
ATOM      3  O   UNL     1     113.340 129.476 137.685  0.00  0.00    +0.000 OA
ATOM      4  O   UNL     1     114.485 129.798 135.017  0.00  0.00    +0.000 OA
ATOM      5  C   UNL     1     111.697 127.827 136.771  0.00  0.00    +0.000 A 
ATOM      6  C   UNL     1     111.703 127.632 135.969  0.00  0.00    +0.000 A 
ATOM      7  C   UNL     1     112.242 128.372 137.066  0.00  0.00    +0.000 A 
ATOM      8  C   UNL     1     112.792 128.721 136.561  0.00  0.00    +0.000 A 
ATOM      9  C   UNL     1     112.798 128.526 135.760  0.00  0.00    +0.000 A 
ATOM     10  C   UNL     1     113.354 129.287 136.882  0.00  0.00    +0.000 A 
ATOM     11  C   UNL     1     113.366 128.883 135.223  0.00  0.00    +0.000 A 
ATOM     12  C   UNL     1     113.929 129.654 136.360  0.00  0.00    +0.000 A 
ATOM     13  C   UNL     1     113.935 129.451 135.524  0.00  0.00    +0.000 A 
ENDROOT
BRANCH   6  15
ATOM     14  O   UNL     1     109.524 125.456 134.782  0.00  0.00    +0.000 OA
ATOM     15  C   UNL     1     111.159 127.087 135.673  0.00  0.00    +0.000 A 
ATOM     16  C   UNL     1     111.246 126.284 135.838  0.00  0.00    +0.000 A 
ATOM     17  C   UNL     1     110.526 127.347 135.210  0.00  0.00    +0.000 A 
ATOM     18  C   UNL     1     110.701 125.740 135.541  0.00  0.00    +0.000 A 
ATOM     19  C   UNL     1     109.982 126.803 134.913  0.00  0.00    +0.000 A 
ATOM     20  C   UNL     1     110.069 125.999 135.079  0.00  0.00    +0.000 A 
BRANCH  18  21
ATOM     21  O   UNL     1     110.789 124.937 135.706  0.00  0.00    +0.000 OA
ATOM     22  C   UNL     1     111.528 124.637 135.918  0.00  0.00    +0.000 C 
ENDBRANCH  18  21
ENDBRANCH   6  15
BRANCH  12  23
ATOM     23  O   UNL     1     114.473 130.198 136.659  0.00  0.00    +0.000 OA
ATOM     24  C   UNL     1     114.358 131.006 136.535  0.00  0.00    +0.000 C 
ENDBRANCH  12  23
BRANCH   5  25
ATOM     25  O   UNL     1     111.147 127.478 137.276  0.00  0.00    +0.000 OA
BRANCH  25  34
ATOM     26  O   UNL     1     110.338 128.649 137.400  0.00  0.00    +0.000 OA
ATOM     27  O   UNL     1     109.104 129.367 139.051  0.00  0.00    +0.000 OA
ATOM     28  O   UNL     1     109.701 127.968 139.692  0.00  0.00    +0.000 OA
ATOM     29  O   UNL     1     110.722 127.024 138.804  0.00  0.00    +0.000 OA
ATOM     30  C   UNL     1     109.827 129.122 137.843  0.00  0.00    +0.000 C 
ATOM     31  C   UNL     1     109.615 128.895 138.607  0.00  0.00    +0.000 C 
ATOM     32  C   UNL     1     109.913 128.195 138.928  0.00  0.00    +0.000 C 
ATOM     33  C   UNL     1     110.423 127.723 138.484  0.00  0.00    +0.000 C 
ATOM     34  C   UNL     1     110.636 127.950 137.720  0.00  0.00    +0.000 C 
BRANCH  30  35
ATOM     35  C   UNL     1     109.530 129.821 137.522  0.00  0.00    +0.000 C 
BRANCH  35  36
ATOM     36  O   UNL     1     109.254 129.833 136.745  0.00  0.00    +0.000 OA
BRANCH  36  42
ATOM     37  O   UNL     1     109.599 131.203 136.533  0.00  0.00    +0.000 OA
ATOM     38  O   UNL     1     108.029 129.973 135.649  0.00  0.00    +0.000 OA
ATOM     39  O   UNL     1     107.761 131.413 134.889  0.00  0.00    +0.000 OA
ATOM     40  O   UNL     1     108.719 132.713 135.226  0.00  0.00    +0.000 OA
ATOM     41  C   UNL     1     108.507 130.622 135.817  0.00  0.00    +0.000 C 
ATOM     42  C   UNL     1     109.120 130.553 136.365  0.00  0.00    +0.000 C 
ATOM     43  C   UNL     1     108.374 131.343 135.437  0.00  0.00    +0.000 C 
ATOM     44  C   UNL     1     108.852 131.993 135.606  0.00  0.00    +0.000 C 
ATOM     45  C   UNL     1     109.465 131.923 136.154  0.00  0.00    +0.000 C 
ATOM     46  C   UNL     1     109.944 132.573 136.322  0.00  0.00    +0.000 C 
ENDBRANCH  36  42
ENDBRANCH  35  36
ENDBRANCH  30  35
ENDBRANCH  25  34
ENDBRANCH   5  25
TORSDOF 8
ENDMDL
MODEL 6
REMARK VINA RESULT:      -9.6      1.360      4.402
REMARK  Name = 131752195
REMARK  8 active torsions:
REMARK  status: ('A' for Active; 'I' for Inactive)
REMARK    1  A    between atoms: O_2  and  C_23
REMARK    2  A    between atoms: O_2  and  C_27
REMARK    3  A    between atoms: O_6  and  C_26
REMARK    4  A    between atoms: O_6  and  C_30
REMARK    5  A    between atoms: O_14  and  C_40
REMARK    6  A    between atoms: O_16  and  C_42
REMARK    7  A    between atoms: C_18  and  C_27
REMARK    8  A    between atoms: C_31  and  C_35
REMARK                            x       y       z     vdW  Elec       q    Type
REMARK                         _______ _______ _______ _____ _____    ______ ____
ROOT
ATOM      1  O   UNL     1     112.508 127.957 135.452  0.00  0.00    +0.000 OA
ATOM      2  O   UNL     1     111.493 130.038 136.325  0.00  0.00    +0.000 OA
ATOM      3  O   UNL     1     112.780 130.688 136.355  0.00  0.00    +0.000 OA
ATOM      4  O   UNL     1     115.140 129.203 135.484  0.00  0.00    +0.000 OA
ATOM      5  C   UNL     1     111.356 128.688 135.879  0.00  0.00    +0.000 A 
ATOM      6  C   UNL     1     111.695 127.994 135.588  0.00  0.00    +0.000 A 
ATOM      7  C   UNL     1     111.831 129.344 136.034  0.00  0.00    +0.000 A 
ATOM      8  C   UNL     1     112.643 129.308 135.898  0.00  0.00    +0.000 A 
ATOM      9  C   UNL     1     112.982 128.614 135.607  0.00  0.00    +0.000 A 
ATOM     10  C   UNL     1     113.127 129.999 136.064  0.00  0.00    +0.000 A 
ATOM     11  C   UNL     1     113.828 128.563 135.462  0.00  0.00    +0.000 A 
ATOM     12  C   UNL     1     113.974 129.966 135.925  0.00  0.00    +0.000 A 
ATOM     13  C   UNL     1     114.327 129.243 135.621  0.00  0.00    +0.000 A 
ENDROOT
BRANCH   6  15
ATOM     14  O   UNL     1     109.798 125.366 134.963  0.00  0.00    +0.000 OA
ATOM     15  C   UNL     1     111.221 127.337 135.432  0.00  0.00    +0.000 A 
ATOM     16  C   UNL     1     111.236 126.687 135.940  0.00  0.00    +0.000 A 
ATOM     17  C   UNL     1     110.731 127.330 134.768  0.00  0.00    +0.000 A 
ATOM     18  C   UNL     1     110.762 126.030 135.784  0.00  0.00    +0.000 A 
ATOM     19  C   UNL     1     110.257 126.673 134.612  0.00  0.00    +0.000 A 
ATOM     20  C   UNL     1     110.273 126.023 135.120  0.00  0.00    +0.000 A 
BRANCH  18  21
ATOM     21  O   UNL     1     110.777 125.380 136.292  0.00  0.00    +0.000 OA
ATOM     22  C   UNL     1     111.489 125.140 136.633  0.00  0.00    +0.000 C 
ENDBRANCH  18  21
ENDBRANCH   6  15
BRANCH  12  23
ATOM     23  O   UNL     1     114.446 130.624 136.081  0.00  0.00    +0.000 OA
ATOM     24  C   UNL     1     114.839 131.006 135.464  0.00  0.00    +0.000 C 
ENDBRANCH  12  23
BRANCH   5  25
ATOM     25  O   UNL     1     110.544 128.724 136.015  0.00  0.00    +0.000 OA
BRANCH  25  34
ATOM     26  O   UNL     1     110.667 128.654 137.437  0.00  0.00    +0.000 OA
ATOM     27  O   UNL     1     109.406 129.464 139.022  0.00  0.00    +0.000 OA
ATOM     28  O   UNL     1     108.589 129.975 137.683  0.00  0.00    +0.000 OA
ATOM     29  O   UNL     1     109.158 129.605 136.179  0.00  0.00    +0.000 OA
ATOM     30  C   UNL     1     110.382 128.839 138.189  0.00  0.00    +0.000 C 
ATOM     31  C   UNL     1     109.690 129.279 138.270  0.00  0.00    +0.000 C 
ATOM     32  C   UNL     1     109.281 129.535 137.601  0.00  0.00    +0.000 C 
ATOM     33  C   UNL     1     109.566 129.350 136.849  0.00  0.00    +0.000 C 
ATOM     34  C   UNL     1     110.259 128.909 136.767  0.00  0.00    +0.000 C 
BRANCH  30  35
ATOM     35  C   UNL     1     110.791 128.583 138.858  0.00  0.00    +0.000 C 
BRANCH  35  36
ATOM     36  O   UNL     1     111.013 127.791 138.928  0.00  0.00    +0.000 OA
BRANCH  36  42
ATOM     37  O   UNL     1     112.289 127.996 139.538  0.00  0.00    +0.000 OA
ATOM     38  O   UNL     1     110.748 126.497 139.916  0.00  0.00    +0.000 OA
ATOM     39  O   UNL     1     111.892 126.054 141.020  0.00  0.00    +0.000 OA
ATOM     40  O   UNL     1     113.300 126.906 141.135  0.00  0.00    +0.000 OA
ATOM     41  C   UNL     1     111.452 126.922 139.974  0.00  0.00    +0.000 C 
ATOM     42  C   UNL     1     111.584 127.570 139.480  0.00  0.00    +0.000 C 
ATOM     43  C   UNL     1     112.025 126.702 140.526  0.00  0.00    +0.000 C 
ATOM     44  C   UNL     1     112.728 127.127 140.584  0.00  0.00    +0.000 C 
ATOM     45  C   UNL     1     112.860 127.774 140.089  0.00  0.00    +0.000 C 
ATOM     46  C   UNL     1     113.564 128.201 140.147  0.00  0.00    +0.000 C 
ENDBRANCH  36  42
ENDBRANCH  35  36
ENDBRANCH  30  35
ENDBRANCH  25  34
ENDBRANCH   5  25
TORSDOF 8
ENDMDL
MODEL 7
REMARK VINA RESULT:      -9.6      1.644      4.061
REMARK  Name = 131752195
REMARK  8 active torsions:
REMARK  status: ('A' for Active; 'I' for Inactive)
REMARK    1  A    between atoms: O_2  and  C_23
REMARK    2  A    between atoms: O_2  and  C_27
REMARK    3  A    between atoms: O_6  and  C_26
REMARK    4  A    between atoms: O_6  and  C_30
REMARK    5  A    between atoms: O_14  and  C_40
REMARK    6  A    between atoms: O_16  and  C_42
REMARK    7  A    between atoms: C_18  and  C_27
REMARK    8  A    between atoms: C_31  and  C_35
REMARK                            x       y       z     vdW  Elec       q    Type
REMARK                         _______ _______ _______ _____ _____    ______ ____
ROOT
ATOM      1  O   UNL     1     113.449 126.670 139.224  0.00  0.00    +0.000 OA
ATOM      2  O   UNL     1     111.418 126.509 137.819  0.00  0.00    +0.000 OA
ATOM      3  O   UNL     1     112.079 125.598 136.917  0.00  0.00    +0.000 OA
ATOM      4  O   UNL     1     114.848 124.836 137.447  0.00  0.00    +0.000 OA
ATOM      5  C   UNL     1     112.094 127.040 138.960  0.00  0.00    +0.000 A 
ATOM      6  C   UNL     1     112.771 127.094 139.429  0.00  0.00    +0.000 A 
ATOM      7  C   UNL     1     112.095 126.563 138.287  0.00  0.00    +0.000 A 
ATOM      8  C   UNL     1     112.772 126.140 138.083  0.00  0.00    +0.000 A 
ATOM      9  C   UNL     1     113.449 126.193 138.551  0.00  0.00    +0.000 A 
ATOM     10  C   UNL     1     112.761 125.646 137.379  0.00  0.00    +0.000 A 
ATOM     11  C   UNL     1     114.161 125.757 138.348  0.00  0.00    +0.000 A 
ATOM     12  C   UNL     1     113.463 125.202 137.161  0.00  0.00    +0.000 A 
ATOM     13  C   UNL     1     114.169 125.258 137.649  0.00  0.00    +0.000 A 
ENDROOT
BRANCH   6  15
ATOM     14  O   UNL     1     112.769 129.001 142.122  0.00  0.00    +0.000 OA
ATOM     15  C   UNL     1     112.771 127.571 140.102  0.00  0.00    +0.000 A 
ATOM     16  C   UNL     1     113.158 128.299 140.092  0.00  0.00    +0.000 A 
ATOM     17  C   UNL     1     112.382 127.319 140.785  0.00  0.00    +0.000 A 
ATOM     18  C   UNL     1     113.158 128.775 140.766  0.00  0.00    +0.000 A 
ATOM     19  C   UNL     1     112.382 127.796 141.458  0.00  0.00    +0.000 A 
ATOM     20  C   UNL     1     112.770 128.524 141.448  0.00  0.00    +0.000 A 
BRANCH  18  21
ATOM     21  O   UNL     1     113.545 129.504 140.756  0.00  0.00    +0.000 OA
ATOM     22  C   UNL     1     114.265 129.583 140.359  0.00  0.00    +0.000 C 
ENDBRANCH  18  21
ENDBRANCH   6  15
BRANCH  12  23
ATOM     23  O   UNL     1     113.461 124.726 136.488  0.00  0.00    +0.000 OA
ATOM     24  C   UNL     1     113.252 123.930 136.546  0.00  0.00    +0.000 C 
ENDBRANCH  12  23
BRANCH   5  25
ATOM     25  O   UNL     1     111.417 127.464 139.165  0.00  0.00    +0.000 OA
BRANCH  25  34
ATOM     26  O   UNL     1     111.585 128.410 138.107  0.00  0.00    +0.000 OA
ATOM     27  O   UNL     1     110.130 129.642 137.046  0.00  0.00    +0.000 OA
ATOM     28  O   UNL     1     109.148 128.839 138.102  0.00  0.00    +0.000 OA
ATOM     29  O   UNL     1     109.791 127.750 139.161  0.00  0.00    +0.000 OA
ATOM     30  C   UNL     1     111.264 128.955 137.578  0.00  0.00    +0.000 C 
ATOM     31  C   UNL     1     110.452 129.098 137.576  0.00  0.00    +0.000 C 
ATOM     32  C   UNL     1     109.960 128.696 138.104  0.00  0.00    +0.000 C 
ATOM     33  C   UNL     1     110.282 128.152 138.633  0.00  0.00    +0.000 C 
ATOM     34  C   UNL     1     111.095 128.008 138.635  0.00  0.00    +0.000 C 
BRANCH  30  35
ATOM     35  C   UNL     1     111.755 129.356 137.050  0.00  0.00    +0.000 C 
BRANCH  35  36
ATOM     36  O   UNL     1     112.419 129.758 137.330  0.00  0.00    +0.000 OA
BRANCH  36  42
ATOM     37  O   UNL     1     113.375 129.234 136.407  0.00  0.00    +0.000 OA
ATOM     38  O   UNL     1     113.120 131.247 137.212  0.00  0.00    +0.000 OA
ATOM     39  O   UNL     1     114.427 131.467 136.229  0.00  0.00    +0.000 OA
ATOM     40  O   UNL     1     115.032 130.199 135.366  0.00  0.00    +0.000 OA
ATOM     41  C   UNL     1     113.423 130.613 136.780  0.00  0.00    +0.000 C 
ATOM     42  C   UNL     1     113.072 129.869 136.839  0.00  0.00    +0.000 C 
ATOM     43  C   UNL     1     114.077 130.723 136.288  0.00  0.00    +0.000 C 
ATOM     44  C   UNL     1     114.379 130.089 135.857  0.00  0.00    +0.000 C 
ATOM     45  C   UNL     1     114.029 129.345 135.916  0.00  0.00    +0.000 C 
ATOM     46  C   UNL     1     114.331 128.710 135.484  0.00  0.00    +0.000 C 
ENDBRANCH  36  42
ENDBRANCH  35  36
ENDBRANCH  30  35
ENDBRANCH  25  34
ENDBRANCH   5  25
TORSDOF 8
ENDMDL
MODEL 8
REMARK VINA RESULT:      -9.6      1.550      4.419
REMARK  Name = 131752195
REMARK  8 active torsions:
REMARK  status: ('A' for Active; 'I' for Inactive)
REMARK    1  A    between atoms: O_2  and  C_23
REMARK    2  A    between atoms: O_2  and  C_27
REMARK    3  A    between atoms: O_6  and  C_26
REMARK    4  A    between atoms: O_6  and  C_30
REMARK    5  A    between atoms: O_14  and  C_40
REMARK    6  A    between atoms: O_16  and  C_42
REMARK    7  A    between atoms: C_18  and  C_27
REMARK    8  A    between atoms: C_31  and  C_35
REMARK                            x       y       z     vdW  Elec       q    Type
REMARK                         _______ _______ _______ _____ _____    ______ ____
ROOT
ATOM      1  O   UNL     1     111.500 126.712 136.780  0.00  0.00    +0.000 OA
ATOM      2  O   UNL     1     112.007 128.641 135.314  0.00  0.00    +0.000 OA
ATOM      3  O   UNL     1     110.602 128.894 135.112  0.00  0.00    +0.000 OA
ATOM      4  O   UNL     1     108.646 127.162 136.418  0.00  0.00    +0.000 OA
ATOM      5  C   UNL     1     112.454 127.563 136.139  0.00  0.00    +0.000 A 
ATOM      6  C   UNL     1     112.285 126.920 136.627  0.00  0.00    +0.000 A 
ATOM      7  C   UNL     1     111.838 127.998 135.803  0.00  0.00    +0.000 A 
ATOM      8  C   UNL     1     111.055 127.791 135.955  0.00  0.00    +0.000 A 
ATOM      9  C   UNL     1     110.886 127.148 136.444  0.00  0.00    +0.000 A 
ATOM     10  C   UNL     1     110.423 128.252 135.599  0.00  0.00    +0.000 A 
ATOM     11  C   UNL     1     110.073 126.922 136.610  0.00  0.00    +0.000 A 
ATOM     12  C   UNL     1     109.605 128.041 135.754  0.00  0.00    +0.000 A 
ATOM     13  C   UNL     1     109.429 127.371 136.264  0.00  0.00    +0.000 A 
ENDROOT
BRANCH   6  15
ATOM     14  O   UNL     1     114.742 125.175 137.970  0.00  0.00    +0.000 OA
ATOM     15  C   UNL     1     112.899 126.484 136.963  0.00  0.00    +0.000 A 
ATOM     16  C   UNL     1     113.075 126.569 137.765  0.00  0.00    +0.000 A 
ATOM     17  C   UNL     1     113.337 125.962 136.497  0.00  0.00    +0.000 A 
ATOM     18  C   UNL     1     113.690 126.132 138.100  0.00  0.00    +0.000 A 
ATOM     19  C   UNL     1     113.952 125.526 136.833  0.00  0.00    +0.000 A 
ATOM     20  C   UNL     1     114.128 125.611 137.635  0.00  0.00    +0.000 A 
BRANCH  18  21
ATOM     21  O   UNL     1     113.866 126.217 138.902  0.00  0.00    +0.000 OA
ATOM     22  C   UNL     1     113.286 126.481 139.426  0.00  0.00    +0.000 C 
ENDBRANCH  18  21
ENDBRANCH   6  15
BRANCH  12  23
ATOM     23  O   UNL     1     108.992 128.479 135.417  0.00  0.00    +0.000 OA
ATOM     24  C   UNL     1     108.618 129.070 135.854  0.00  0.00    +0.000 C 
ENDBRANCH  12  23
BRANCH   5  25
ATOM     25  O   UNL     1     113.237 127.770 135.986  0.00  0.00    +0.000 OA
BRANCH  25  34
ATOM     26  O   UNL     1     113.177 128.939 136.806  0.00  0.00    +0.000 OA
ATOM     27  O   UNL     1     114.315 130.800 136.726  0.00  0.00    +0.000 OA
ATOM     28  O   UNL     1     114.974 129.976 135.457  0.00  0.00    +0.000 OA
ATOM     29  O   UNL     1     114.435 128.461 135.087  0.00  0.00    +0.000 OA
ATOM     30  C   UNL     1     113.447 129.697 136.990  0.00  0.00    +0.000 C 
ATOM     31  C   UNL     1     114.046 130.042 136.541  0.00  0.00    +0.000 C 
ATOM     32  C   UNL     1     114.376 129.631 135.906  0.00  0.00    +0.000 C 
ATOM     33  C   UNL     1     114.106 128.873 135.721  0.00  0.00    +0.000 C 
ATOM     34  C   UNL     1     113.506 128.527 136.171  0.00  0.00    +0.000 C 
BRANCH  30  35
ATOM     35  C   UNL     1     113.117 130.108 137.625  0.00  0.00    +0.000 C 
BRANCH  35  36
ATOM     36  O   UNL     1     113.107 129.767 138.376  0.00  0.00    +0.000 OA
BRANCH  36  42
ATOM     37  O   UNL     1     111.731 130.003 138.682  0.00  0.00    +0.000 OA
ATOM     38  O   UNL     1     113.517 130.142 139.930  0.00  0.00    +0.000 OA
ATOM     39  O   UNL     1     112.346 130.566 141.013  0.00  0.00    +0.000 OA
ATOM     40  O   UNL     1     110.766 130.615 140.542  0.00  0.00    +0.000 OA
ATOM     41  C   UNL     1     112.727 130.166 139.695  0.00  0.00    +0.000 C 
ATOM     42  C   UNL     1     112.522 129.979 138.918  0.00  0.00    +0.000 C 
ATOM     43  C   UNL     1     112.141 130.378 140.236  0.00  0.00    +0.000 C 
ATOM     44  C   UNL     1     111.351 130.403 140.001  0.00  0.00    +0.000 C 
ATOM     45  C   UNL     1     111.146 130.215 139.224  0.00  0.00    +0.000 C 
ATOM     46  C   UNL     1     110.356 130.239 138.988  0.00  0.00    +0.000 C 
ENDBRANCH  36  42
ENDBRANCH  35  36
ENDBRANCH  30  35
ENDBRANCH  25  34
ENDBRANCH   5  25
TORSDOF 8
ENDMDL
MODEL 9
REMARK VINA RESULT:      -9.6      1.864      4.748
REMARK  Name = 131752195
REMARK  8 active torsions:
REMARK  status: ('A' for Active; 'I' for Inactive)
REMARK    1  A    between atoms: O_2  and  C_23
REMARK    2  A    between atoms: O_2  and  C_27
REMARK    3  A    between atoms: O_6  and  C_26
REMARK    4  A    between atoms: O_6  and  C_30
REMARK    5  A    between atoms: O_14  and  C_40
REMARK    6  A    between atoms: O_16  and  C_42
REMARK    7  A    between atoms: C_18  and  C_27
REMARK    8  A    between atoms: C_31  and  C_35
REMARK                            x       y       z     vdW  Elec       q    Type
REMARK                         _______ _______ _______ _____ _____    ______ ____
ROOT
ATOM      1  O   UNL     1     111.532 129.783 135.665  0.00  0.00    +0.000 OA
ATOM      2  O   UNL     1     112.449 131.042 137.589  0.00  0.00    +0.000 OA
ATOM      3  O   UNL     1     113.799 130.748 137.175  0.00  0.00    +0.000 OA
ATOM      4  O   UNL     1     114.229 129.149 134.769  0.00  0.00    +0.000 OA
ATOM      5  C   UNL     1     111.327 130.566 136.844  0.00  0.00    +0.000 A 
ATOM      6  C   UNL     1     111.021 130.147 136.203  0.00  0.00    +0.000 A 
ATOM      7  C   UNL     1     112.143 130.623 136.948  0.00  0.00    +0.000 A 
ATOM      8  C   UNL     1     112.654 130.260 136.412  0.00  0.00    +0.000 A 
ATOM      9  C   UNL     1     112.348 129.840 135.770  0.00  0.00    +0.000 A 
ATOM     10  C   UNL     1     113.503 130.326 136.531  0.00  0.00    +0.000 A 
ATOM     11  C   UNL     1     112.870 129.458 135.205  0.00  0.00    +0.000 A 
ATOM     12  C   UNL     1     114.040 129.950 135.976  0.00  0.00    +0.000 A 
ATOM     13  C   UNL     1     113.721 129.513 135.307  0.00  0.00    +0.000 A 
ENDROOT
BRANCH   6  15
ATOM     14  O   UNL     1     107.756 129.921 135.782  0.00  0.00    +0.000 OA
ATOM     15  C   UNL     1     110.205 130.090 136.098  0.00  0.00    +0.000 A 
ATOM     16  C   UNL     1     109.818 129.377 136.250  0.00  0.00    +0.000 A 
ATOM     17  C   UNL     1     109.776 130.746 135.839  0.00  0.00    +0.000 A 
ATOM     18  C   UNL     1     109.001 129.322 136.145  0.00  0.00    +0.000 A 
ATOM     19  C   UNL     1     108.960 130.689 135.734  0.00  0.00    +0.000 A 
ATOM     20  C   UNL     1     108.572 129.977 135.887  0.00  0.00    +0.000 A 
BRANCH  18  21
ATOM     21  O   UNL     1     108.614 128.609 136.297  0.00  0.00    +0.000 OA
ATOM     22  C   UNL     1     108.944 127.897 136.043  0.00  0.00    +0.000 C 
ENDBRANCH  18  21
ENDBRANCH   6  15
BRANCH  12  23
ATOM     23  O   UNL     1     114.855 130.008 136.083  0.00  0.00    +0.000 OA
ATOM     24  C   UNL     1     115.292 130.551 135.640  0.00  0.00    +0.000 C 
ENDBRANCH  12  23
BRANCH   5  25
ATOM     25  O   UNL     1     110.816 130.929 137.380  0.00  0.00    +0.000 OA
BRANCH  25  34
ATOM     26  O   UNL     1     111.030 129.946 138.395  0.00  0.00    +0.000 OA
ATOM     27  O   UNL     1     110.902 130.084 140.569  0.00  0.00    +0.000 OA
ATOM     28  O   UNL     1     110.516 131.629 140.134  0.00  0.00    +0.000 OA
ATOM     29  O   UNL     1     110.474 132.051 138.540  0.00  0.00    +0.000 OA
ATOM     30  C   UNL     1     111.052 129.735 139.192  0.00  0.00    +0.000 C 
ATOM     31  C   UNL     1     110.881 130.296 139.772  0.00  0.00    +0.000 C 
ATOM     32  C   UNL     1     110.688 131.068 139.555  0.00  0.00    +0.000 C 
ATOM     33  C   UNL     1     110.666 131.279 138.758  0.00  0.00    +0.000 C 
ATOM     34  C   UNL     1     110.838 130.718 138.177  0.00  0.00    +0.000 C 
BRANCH  30  35
ATOM     35  C   UNL     1     111.245 128.962 139.409  0.00  0.00    +0.000 C 
BRANCH  35  36
ATOM     36  O   UNL     1     110.818 128.328 139.097  0.00  0.00    +0.000 OA
BRANCH  36  42
ATOM     37  O   UNL     1     111.961 127.553 138.729  0.00  0.00    +0.000 OA
ATOM     38  O   UNL     1     109.989 126.944 139.440  0.00  0.00    +0.000 OA
ATOM     39  O   UNL     1     110.717 125.476 139.243  0.00  0.00    +0.000 OA
ATOM     40  O   UNL     1     112.273 125.394 138.704  0.00  0.00    +0.000 OA
ATOM     41  C   UNL     1     110.767 126.902 139.170  0.00  0.00    +0.000 C 
ATOM     42  C   UNL     1     111.181 127.594 138.999  0.00  0.00    +0.000 C 
ATOM     43  C   UNL     1     111.132 126.168 139.072  0.00  0.00    +0.000 C 
ATOM     44  C   UNL     1     111.910 126.127 138.803  0.00  0.00    +0.000 C 
ATOM     45  C   UNL     1     112.324 126.819 138.631  0.00  0.00    +0.000 C 
ATOM     46  C   UNL     1     113.103 126.778 138.362  0.00  0.00    +0.000 C 
ENDBRANCH  36  42
ENDBRANCH  35  36
ENDBRANCH  30  35
ENDBRANCH  25  34
ENDBRANCH   5  25
TORSDOF 8
ENDMDL
MODEL 10
REMARK VINA RESULT:      -9.5      1.265      3.571
REMARK  Name = 131752195
REMARK  8 active torsions:
REMARK  status: ('A' for Active; 'I' for Inactive)
REMARK    1  A    between atoms: O_2  and  C_23
REMARK    2  A    between atoms: O_2  and  C_27
REMARK    3  A    between atoms: O_6  and  C_26
REMARK    4  A    between atoms: O_6  and  C_30
REMARK    5  A    between atoms: O_14  and  C_40
REMARK    6  A    between atoms: O_16  and  C_42
REMARK    7  A    between atoms: C_18  and  C_27
REMARK    8  A    between atoms: C_31  and  C_35
REMARK                            x       y       z     vdW  Elec       q    Type
REMARK                         _______ _______ _______ _____ _____    ______ ____
ROOT
ATOM      1  O   UNL     1     113.002 127.853 138.246  0.00  0.00    +0.000 OA
ATOM      2  O   UNL     1     111.520 125.898 137.918  0.00  0.00    +0.000 OA
ATOM      3  O   UNL     1     111.335 125.763 139.342  0.00  0.00    +0.000 OA
ATOM      4  O   UNL     1     112.675 127.642 141.132  0.00  0.00    +0.000 OA
ATOM      5  C   UNL     1     112.343 126.931 137.374  0.00  0.00    +0.000 A 
ATOM      6  C   UNL     1     112.837 127.583 137.483  0.00  0.00    +0.000 A 
ATOM      7  C   UNL     1     112.014 126.550 138.027  0.00  0.00    +0.000 A 
ATOM      8  C   UNL     1     112.177 126.819 138.789  0.00  0.00    +0.000 A 
ATOM      9  C   UNL     1     112.671 127.471 138.898  0.00  0.00    +0.000 A 
ATOM     10  C   UNL     1     111.828 126.414 139.461  0.00  0.00    +0.000 A 
ATOM     11  C   UNL     1     112.850 127.762 139.687  0.00  0.00    +0.000 A 
ATOM     12  C   UNL     1     111.995 126.690 140.257  0.00  0.00    +0.000 A 
ATOM     13  C   UNL     1     112.510 127.369 140.371  0.00  0.00    +0.000 A 
ENDROOT
BRANCH   6  15
ATOM     14  O   UNL     1     114.160 129.108 134.873  0.00  0.00    +0.000 OA
ATOM     15  C   UNL     1     113.168 127.965 136.831  0.00  0.00    +0.000 A 
ATOM     16  C   UNL     1     112.900 128.713 136.611  0.00  0.00    +0.000 A 
ATOM     17  C   UNL     1     113.767 127.597 136.398  0.00  0.00    +0.000 A 
ATOM     18  C   UNL     1     113.231 129.094 135.958  0.00  0.00    +0.000 A 
ATOM     19  C   UNL     1     114.097 127.979 135.745  0.00  0.00    +0.000 A 
ATOM     20  C   UNL     1     113.829 128.727 135.526  0.00  0.00    +0.000 A 
BRANCH  18  21
ATOM     21  O   UNL     1     112.963 129.843 135.738  0.00  0.00    +0.000 OA
ATOM     22  C   UNL     1     112.736 130.386 136.317  0.00  0.00    +0.000 C 
ENDBRANCH  18  21
ENDBRANCH   6  15
BRANCH  12  23
ATOM     23  O   UNL     1     111.663 126.307 140.908  0.00  0.00    +0.000 OA
ATOM     24  C   UNL     1     111.007 126.632 141.288  0.00  0.00    +0.000 C 
ENDBRANCH  12  23
BRANCH   5  25
ATOM     25  O   UNL     1     112.180 126.661 136.612  0.00  0.00    +0.000 OA
BRANCH  25  34
ATOM     26  O   UNL     1     110.858 127.204 136.566  0.00  0.00    +0.000 OA
ATOM     27  O   UNL     1     109.058 126.498 135.556  0.00  0.00    +0.000 OA
ATOM     28  O   UNL     1     110.138 125.329 135.120  0.00  0.00    +0.000 OA
ATOM     29  O   UNL     1     111.699 125.411 135.648  0.00  0.00    +0.000 OA
ATOM     30  C   UNL     1     110.078 127.163 136.302  0.00  0.00    +0.000 C 
ATOM     31  C   UNL     1     109.838 126.539 135.820  0.00  0.00    +0.000 C 
ATOM     32  C   UNL     1     110.378 125.954 135.602  0.00  0.00    +0.000 C 
ATOM     33  C   UNL     1     111.159 125.995 135.866  0.00  0.00    +0.000 C 
ATOM     34  C   UNL     1     111.399 126.620 136.348  0.00  0.00    +0.000 C 
BRANCH  30  35
ATOM     35  C   UNL     1     109.538 127.748 136.520  0.00  0.00    +0.000 C 
BRANCH  35  36
ATOM     36  O   UNL     1     109.624 128.516 136.233  0.00  0.00    +0.000 OA
BRANCH  36  42
ATOM     37  O   UNL     1     109.587 129.223 137.474  0.00  0.00    +0.000 OA
ATOM     38  O   UNL     1     108.657 129.666 135.550  0.00  0.00    +0.000 OA
ATOM     39  O   UNL     1     108.137 130.947 136.450  0.00  0.00    +0.000 OA
ATOM     40  O   UNL     1     108.583 131.078 138.032  0.00  0.00    +0.000 OA
ATOM     41  C   UNL     1     108.880 129.732 136.341  0.00  0.00    +0.000 C 
ATOM     42  C   UNL     1     109.364 129.157 136.682  0.00  0.00    +0.000 C 
ATOM     43  C   UNL     1     108.620 130.372 136.791  0.00  0.00    +0.000 C 
ATOM     44  C   UNL     1     108.843 130.438 137.582  0.00  0.00    +0.000 C 
ATOM     45  C   UNL     1     109.327 129.863 137.924  0.00  0.00    +0.000 C 
ATOM     46  C   UNL     1     109.550 129.929 138.715  0.00  0.00    +0.000 C 
ENDBRANCH  36  42
ENDBRANCH  35  36
ENDBRANCH  30  35
ENDBRANCH  25  34
ENDBRANCH   5  25
TORSDOF 8
ENDMDL
