MODEL 1
REMARK VINA RESULT:      -9.0      0.000      0.000
REMARK  Name = 44258236
REMARK  6 active torsions:
REMARK  status: ('A' for Active; 'I' for Inactive)
REMARK    1  A    between atoms: S_1  and  O_4
REMARK    2  A    between atoms: S_2  and  O_5
REMARK    3  A    between atoms: O_4  and  C_24
REMARK    4  A    between atoms: O_5  and  C_27
REMARK    5  A    between atoms: O_7  and  C_28
REMARK    6  A    between atoms: C_17  and  C_18
REMARK                            x       y       z     vdW  Elec       q    Type
REMARK                         _______ _______ _______ _____ _____    ______ ____
ROOT
ATOM      1  O   UNL     1     104.194 124.144 146.965  0.00  0.00    +0.000 OA
ATOM      2  O   UNL     1     101.556 125.102 147.652  0.00  0.00    +0.000 OA
ATOM      3  O   UNL     1     102.740 125.772 148.131  0.00  0.00    +0.000 OA
ATOM      4  C   UNL     1     102.889 124.617 147.304  0.00  0.00    +0.000 A 
ATOM      5  C   UNL     1     103.374 124.074 146.915  0.00  0.00    +0.000 A 
ATOM      6  C   UNL     1     104.530 124.757 147.404  0.00  0.00    +0.000 A 
ATOM      7  C   UNL     1     103.225 125.229 147.742  0.00  0.00    +0.000 A 
ATOM      8  C   UNL     1     104.046 125.299 147.793  0.00  0.00    +0.000 A 
ATOM      9  C   UNL     1     102.033 124.555 147.259  0.00  0.00    +0.000 A 
ATOM     10  C   UNL     1     103.036 123.432 146.455  0.00  0.00    +0.000 A 
ATOM     11  C   UNL     1     102.182 123.354 146.399  0.00  0.00    +0.000 A 
ATOM     12  C   UNL     1     101.677 123.919 146.804  0.00  0.00    +0.000 A 
ENDROOT
BRANCH   6  13
ATOM     13  C   UNL     1     105.351 124.826 147.454  0.00  0.00    +0.000 A 
ATOM     14  C   UNL     1     105.789 125.034 146.786  0.00  0.00    +0.000 A 
ATOM     15  C   UNL     1     105.733 124.687 148.172  0.00  0.00    +0.000 A 
ATOM     16  C   UNL     1     106.610 125.103 146.837  0.00  0.00    +0.000 A 
ATOM     17  C   UNL     1     106.992 124.964 147.554  0.00  0.00    +0.000 A 
ATOM     18  C   UNL     1     106.554 124.756 148.222  0.00  0.00    +0.000 A 
BRANCH  17  19
ATOM     19  O   UNL     1     107.813 125.033 147.605  0.00  0.00    +0.000 OA
ATOM     20  C   UNL     1     108.200 124.843 148.308  0.00  0.00    +0.000 C 
ENDBRANCH  17  19
BRANCH  16  21
ATOM     21  O   UNL     1     107.048 125.311 146.170  0.00  0.00    +0.000 OA
BRANCH  21  22
ATOM     22  S   UNL     1     106.663 125.489 145.462  0.00  0.00    +0.000 S 
ATOM     23  O   UNL     1     106.278 125.670 144.755  0.00  0.00    +0.000 OA
ATOM     24  O   UNL     1     106.680 124.693 145.251  0.00  0.00    +0.000 OA
ATOM     25  O   UNL     1     106.646 126.287 145.674  0.00  0.00    +0.000 OA
ENDBRANCH  21  22
ENDBRANCH  16  21
ENDBRANCH   6  13
BRANCH  11  26
ATOM     26  O   UNL     1     101.849 122.740 145.959  0.00  0.00    +0.000 OA
BRANCH  26  27
ATOM     27  S   UNL     1     101.441 122.907 145.262  0.00  0.00    +0.000 S 
ATOM     28  O   UNL     1     101.032 123.075 144.565  0.00  0.00    +0.000 OA
ATOM     29  O   UNL     1     102.157 122.959 144.855  0.00  0.00    +0.000 OA
ATOM     30  O   UNL     1     100.725 122.856 145.669  0.00  0.00    +0.000 OA
ENDBRANCH  26  27
ENDBRANCH  11  26
TORSDOF 6
ENDMDL
MODEL 2
REMARK VINA RESULT:      -8.4     13.122     14.651
REMARK  Name = 44258236
REMARK  6 active torsions:
REMARK  status: ('A' for Active; 'I' for Inactive)
REMARK    1  A    between atoms: S_1  and  O_4
REMARK    2  A    between atoms: S_2  and  O_5
REMARK    3  A    between atoms: O_4  and  C_24
REMARK    4  A    between atoms: O_5  and  C_27
REMARK    5  A    between atoms: O_7  and  C_28
REMARK    6  A    between atoms: C_17  and  C_18
REMARK                            x       y       z     vdW  Elec       q    Type
REMARK                         _______ _______ _______ _____ _____    ______ ____
ROOT
ATOM      1  O   UNL     1     113.726 127.804 136.435  0.00  0.00    +0.000 OA
ATOM      2  O   UNL     1     111.315 126.255 136.064  0.00  0.00    +0.000 OA
ATOM      3  O   UNL     1     111.451 127.571 135.489  0.00  0.00    +0.000 OA
ATOM      4  C   UNL     1     112.534 127.037 136.252  0.00  0.00    +0.000 A 
ATOM      5  C   UNL     1     113.292 127.115 136.568  0.00  0.00    +0.000 A 
ATOM      6  C   UNL     1     113.401 128.416 135.986  0.00  0.00    +0.000 A 
ATOM      7  C   UNL     1     112.209 127.649 135.804  0.00  0.00    +0.000 A 
ATOM      8  C   UNL     1     112.642 128.338 135.671  0.00  0.00    +0.000 A 
ATOM      9  C   UNL     1     112.073 126.324 136.384  0.00  0.00    +0.000 A 
ATOM     10  C   UNL     1     113.642 126.485 137.036  0.00  0.00    +0.000 A 
ATOM     11  C   UNL     1     113.195 125.765 137.178  0.00  0.00    +0.000 A 
ATOM     12  C   UNL     1     112.406 125.684 136.850  0.00  0.00    +0.000 A 
ENDROOT
BRANCH   6  13
ATOM     13  C   UNL     1     113.834 129.105 135.853  0.00  0.00    +0.000 A 
ATOM     14  C   UNL     1     113.798 129.727 136.394  0.00  0.00    +0.000 A 
ATOM     15  C   UNL     1     114.306 129.172 135.179  0.00  0.00    +0.000 A 
ATOM     16  C   UNL     1     114.232 130.416 136.261  0.00  0.00    +0.000 A 
ATOM     17  C   UNL     1     114.703 130.483 135.587  0.00  0.00    +0.000 A 
ATOM     18  C   UNL     1     114.739 129.861 135.046  0.00  0.00    +0.000 A 
BRANCH  17  19
ATOM     19  O   UNL     1     115.137 131.171 135.453  0.00  0.00    +0.000 OA
ATOM     20  C   UNL     1     115.612 131.236 134.782  0.00  0.00    +0.000 C 
ENDBRANCH  17  19
BRANCH  16  21
ATOM     21  O   UNL     1     114.196 131.037 136.801  0.00  0.00    +0.000 OA
BRANCH  21  22
ATOM     22  S   UNL     1     113.700 130.984 137.459  0.00  0.00    +0.000 S 
ATOM     23  O   UNL     1     113.204 130.931 138.116  0.00  0.00    +0.000 OA
ATOM     24  O   UNL     1     114.311 130.638 137.892  0.00  0.00    +0.000 OA
ATOM     25  O   UNL     1     113.089 131.331 137.026  0.00  0.00    +0.000 OA
ENDBRANCH  21  22
ENDBRANCH  16  21
ENDBRANCH   6  13
BRANCH  11  26
ATOM     26  O   UNL     1     113.524 125.155 137.628  0.00  0.00    +0.000 OA
BRANCH  26  27
ATOM     27  S   UNL     1     114.253 124.834 137.415  0.00  0.00    +0.000 S 
ATOM     28  O   UNL     1     114.983 124.513 137.202  0.00  0.00    +0.000 OA
ATOM     29  O   UNL     1     114.624 125.298 137.987  0.00  0.00    +0.000 OA
ATOM     30  O   UNL     1     113.882 124.370 136.843  0.00  0.00    +0.000 OA
ENDBRANCH  26  27
ENDBRANCH  11  26
TORSDOF 6
ENDMDL
MODEL 3
REMARK VINA RESULT:      -8.4      1.178      4.773
REMARK  Name = 44258236
REMARK  6 active torsions:
REMARK  status: ('A' for Active; 'I' for Inactive)
REMARK    1  A    between atoms: S_1  and  O_4
REMARK    2  A    between atoms: S_2  and  O_5
REMARK    3  A    between atoms: O_4  and  C_24
REMARK    4  A    between atoms: O_5  and  C_27
REMARK    5  A    between atoms: O_7  and  C_28
REMARK    6  A    between atoms: C_17  and  C_18
REMARK                            x       y       z     vdW  Elec       q    Type
REMARK                         _______ _______ _______ _____ _____    ______ ____
ROOT
ATOM      1  O   UNL     1     104.172 125.356 146.439  0.00  0.00    +0.000 OA
ATOM      2  O   UNL     1     107.008 124.836 146.629  0.00  0.00    +0.000 OA
ATOM      3  O   UNL     1     106.079 124.250 147.564  0.00  0.00    +0.000 OA
ATOM      4  C   UNL     1     105.575 125.099 146.532  0.00  0.00    +0.000 A 
ATOM      5  C   UNL     1     104.939 125.468 146.157  0.00  0.00    +0.000 A 
ATOM      6  C   UNL     1     104.041 124.874 147.097  0.00  0.00    +0.000 A 
ATOM      7  C   UNL     1     105.443 124.619 147.189  0.00  0.00    +0.000 A 
ATOM      8  C   UNL     1     104.676 124.506 147.472  0.00  0.00    +0.000 A 
ATOM      9  C   UNL     1     106.379 125.208 146.247  0.00  0.00    +0.000 A 
ATOM     10  C   UNL     1     105.063 125.971 145.471  0.00  0.00    +0.000 A 
ATOM     11  C   UNL     1     105.860 126.091 145.173  0.00  0.00    +0.000 A 
ATOM     12  C   UNL     1     106.522 125.708 145.563  0.00  0.00    +0.000 A 
ENDROOT
BRANCH   6  13
ATOM     13  C   UNL     1     103.274 124.762 147.378  0.00  0.00    +0.000 A 
ATOM     14  C   UNL     1     102.755 124.263 146.976  0.00  0.00    +0.000 A 
ATOM     15  C   UNL     1     103.026 125.151 148.064  0.00  0.00    +0.000 A 
ATOM     16  C   UNL     1     101.987 124.152 147.259  0.00  0.00    +0.000 A 
ATOM     17  C   UNL     1     101.739 124.539 147.943  0.00  0.00    +0.000 A 
ATOM     18  C   UNL     1     102.258 125.039 148.346  0.00  0.00    +0.000 A 
BRANCH  17  19
ATOM     19  O   UNL     1     100.972 124.428 148.226  0.00  0.00    +0.000 OA
ATOM     20  C   UNL     1     100.784 124.637 149.001  0.00  0.00    +0.000 C 
ENDBRANCH  17  19
BRANCH  16  21
ATOM     21  O   UNL     1     101.468 123.653 146.857  0.00  0.00    +0.000 OA
BRANCH  21  22
ATOM     22  S   UNL     1     101.633 123.423 146.082  0.00  0.00    +0.000 S 
ATOM     23  O   UNL     1     101.798 123.195 145.306  0.00  0.00    +0.000 OA
ATOM     24  O   UNL     1     102.014 122.748 146.362  0.00  0.00    +0.000 OA
ATOM     25  O   UNL     1     101.252 124.100 145.800  0.00  0.00    +0.000 OA
ENDBRANCH  21  22
ENDBRANCH  16  21
ENDBRANCH   6  13
BRANCH  11  26
ATOM     26  O   UNL     1     105.987 126.573 144.515  0.00  0.00    +0.000 OA
BRANCH  26  27
ATOM     27  S   UNL     1     106.275 126.246 143.814  0.00  0.00    +0.000 S 
ATOM     28  O   UNL     1     106.563 125.918 143.114  0.00  0.00    +0.000 OA
ATOM     29  O   UNL     1     105.511 126.009 143.611  0.00  0.00    +0.000 OA
ATOM     30  O   UNL     1     107.039 126.483 144.017  0.00  0.00    +0.000 OA
ENDBRANCH  26  27
ENDBRANCH  11  26
TORSDOF 6
ENDMDL
MODEL 4
REMARK VINA RESULT:      -8.1      1.129      2.170
REMARK  Name = 44258236
REMARK  6 active torsions:
REMARK  status: ('A' for Active; 'I' for Inactive)
REMARK    1  A    between atoms: S_1  and  O_4
REMARK    2  A    between atoms: S_2  and  O_5
REMARK    3  A    between atoms: O_4  and  C_24
REMARK    4  A    between atoms: O_5  and  C_27
REMARK    5  A    between atoms: O_7  and  C_28
REMARK    6  A    between atoms: C_17  and  C_18
REMARK                            x       y       z     vdW  Elec       q    Type
REMARK                         _______ _______ _______ _____ _____    ______ ____
ROOT
ATOM      1  O   UNL     1     103.833 124.660 147.020  0.00  0.00    +0.000 OA
ATOM      2  O   UNL     1     101.970 122.740 145.928  0.00  0.00    +0.000 OA
ATOM      3  O   UNL     1     103.357 122.740 145.533  0.00  0.00    +0.000 OA
ATOM      4  C   UNL     1     102.911 123.711 146.480  0.00  0.00    +0.000 A 
ATOM      5  C   UNL     1     103.069 124.351 146.976  0.00  0.00    +0.000 A 
ATOM      6  C   UNL     1     104.438 124.328 146.567  0.00  0.00    +0.000 A 
ATOM      7  C   UNL     1     103.516 123.380 146.029  0.00  0.00    +0.000 A 
ATOM      8  C   UNL     1     104.280 123.688 146.072  0.00  0.00    +0.000 A 
ATOM      9  C   UNL     1     102.119 123.380 146.426  0.00  0.00    +0.000 A 
ATOM     10  C   UNL     1     102.447 124.704 147.452  0.00  0.00    +0.000 A 
ATOM     11  C   UNL     1     101.650 124.387 147.411  0.00  0.00    +0.000 A 
ATOM     12  C   UNL     1     101.485 123.721 146.895  0.00  0.00    +0.000 A 
ENDROOT
BRANCH   6  13
ATOM     13  C   UNL     1     105.202 124.638 146.611  0.00  0.00    +0.000 A 
ATOM     14  C   UNL     1     105.522 125.041 145.967  0.00  0.00    +0.000 A 
ATOM     15  C   UNL     1     105.646 124.543 147.301  0.00  0.00    +0.000 A 
ATOM     16  C   UNL     1     106.286 125.350 146.012  0.00  0.00    +0.000 A 
ATOM     17  C   UNL     1     106.729 125.256 146.700  0.00  0.00    +0.000 A 
ATOM     18  C   UNL     1     106.409 124.853 147.345  0.00  0.00    +0.000 A 
BRANCH  17  19
ATOM     19  O   UNL     1     107.493 125.565 146.746  0.00  0.00    +0.000 OA
ATOM     20  C   UNL     1     107.953 125.431 147.416  0.00  0.00    +0.000 C 
ENDBRANCH  17  19
BRANCH  16  21
ATOM     21  O   UNL     1     106.606 125.753 145.367  0.00  0.00    +0.000 OA
BRANCH  21  22
ATOM     22  S   UNL     1     106.118 125.993 144.747  0.00  0.00    +0.000 S 
ATOM     23  O   UNL     1     105.630 126.234 144.127  0.00  0.00    +0.000 OA
ATOM     24  O   UNL     1     106.336 125.325 144.316  0.00  0.00    +0.000 OA
ATOM     25  O   UNL     1     105.899 126.663 145.178  0.00  0.00    +0.000 OA
ENDBRANCH  21  22
ENDBRANCH  16  21
ENDBRANCH   6  13
BRANCH  11  26
ATOM     26  O   UNL     1     101.046 124.721 147.865  0.00  0.00    +0.000 OA
BRANCH  26  27
ATOM     27  S   UNL     1     101.048 124.628 148.685  0.00  0.00    +0.000 S 
ATOM     28  O   UNL     1     101.050 124.534 149.504  0.00  0.00    +0.000 OA
ATOM     29  O   UNL     1     101.386 125.376 148.769  0.00  0.00    +0.000 OA
ATOM     30  O   UNL     1     100.710 123.880 148.600  0.00  0.00    +0.000 OA
ENDBRANCH  26  27
ENDBRANCH  11  26
TORSDOF 6
ENDMDL
MODEL 5
REMARK VINA RESULT:      -8.1     11.187     12.935
REMARK  Name = 44258236
REMARK  6 active torsions:
REMARK  status: ('A' for Active; 'I' for Inactive)
REMARK    1  A    between atoms: S_1  and  O_4
REMARK    2  A    between atoms: S_2  and  O_5
REMARK    3  A    between atoms: O_4  and  C_24
REMARK    4  A    between atoms: O_5  and  C_27
REMARK    5  A    between atoms: O_7  and  C_28
REMARK    6  A    between atoms: C_17  and  C_18
REMARK                            x       y       z     vdW  Elec       q    Type
REMARK                         _______ _______ _______ _____ _____    ______ ____
ROOT
ATOM      1  O   UNL     1     110.632 127.135 136.061  0.00  0.00    +0.000 OA
ATOM      2  O   UNL     1     111.869 129.511 134.980  0.00  0.00    +0.000 OA
ATOM      3  O   UNL     1     112.666 128.403 135.445  0.00  0.00    +0.000 OA
ATOM      4  C   UNL     1     111.243 128.311 135.526  0.00  0.00    +0.000 A 
ATOM      5  C   UNL     1     110.565 127.888 135.731  0.00  0.00    +0.000 A 
ATOM      6  C   UNL     1     111.378 126.804 136.185  0.00  0.00    +0.000 A 
ATOM      7  C   UNL     1     111.988 127.980 135.651  0.00  0.00    +0.000 A 
ATOM      8  C   UNL     1     112.056 127.227 135.980  0.00  0.00    +0.000 A 
ATOM      9  C   UNL     1     111.186 129.096 135.182  0.00  0.00    +0.000 A 
ATOM     10  C   UNL     1     109.782 128.222 135.607  0.00  0.00    +0.000 A 
ATOM     11  C   UNL     1     109.706 129.006 135.264  0.00  0.00    +0.000 A 
ATOM     12  C   UNL     1     110.412 129.446 135.050  0.00  0.00    +0.000 A 
ENDROOT
BRANCH   6  13
ATOM     13  C   UNL     1     111.444 126.051 136.515  0.00  0.00    +0.000 A 
ATOM     14  C   UNL     1     111.308 125.939 137.321  0.00  0.00    +0.000 A 
ATOM     15  C   UNL     1     111.648 125.409 136.037  0.00  0.00    +0.000 A 
ATOM     16  C   UNL     1     111.375 125.185 137.649  0.00  0.00    +0.000 A 
ATOM     17  C   UNL     1     111.578 124.543 137.173  0.00  0.00    +0.000 A 
ATOM     18  C   UNL     1     111.715 124.655 136.367  0.00  0.00    +0.000 A 
BRANCH  17  19
ATOM     19  O   UNL     1     111.645 123.789 137.501  0.00  0.00    +0.000 OA
ATOM     20  C   UNL     1     111.964 123.172 137.057  0.00  0.00    +0.000 C 
ENDBRANCH  17  19
BRANCH  16  21
ATOM     21  O   UNL     1     111.238 125.073 138.455  0.00  0.00    +0.000 OA
BRANCH  21  22
ATOM     22  S   UNL     1     111.097 125.722 138.944  0.00  0.00    +0.000 S 
ATOM     23  O   UNL     1     110.956 126.371 139.433  0.00  0.00    +0.000 OA
ATOM     24  O   UNL     1     111.907 125.797 139.078  0.00  0.00    +0.000 OA
ATOM     25  O   UNL     1     110.286 125.647 138.810  0.00  0.00    +0.000 OA
ENDBRANCH  21  22
ENDBRANCH  16  21
ENDBRANCH   6  13
BRANCH  11  26
ATOM     26  O   UNL     1     108.958 129.334 135.141  0.00  0.00    +0.000 OA
BRANCH  26  27
ATOM     27  S   UNL     1     108.513 129.596 135.784  0.00  0.00    +0.000 S 
ATOM     28  O   UNL     1     108.068 129.859 136.427  0.00  0.00    +0.000 OA
ATOM     29  O   UNL     1     108.114 128.875 135.803  0.00  0.00    +0.000 OA
ATOM     30  O   UNL     1     108.912 130.318 135.765  0.00  0.00    +0.000 OA
ENDBRANCH  26  27
ENDBRANCH  11  26
TORSDOF 6
ENDMDL
MODEL 6
REMARK VINA RESULT:      -8.0     12.533     13.888
REMARK  Name = 44258236
REMARK  6 active torsions:
REMARK  status: ('A' for Active; 'I' for Inactive)
REMARK    1  A    between atoms: S_1  and  O_4
REMARK    2  A    between atoms: S_2  and  O_5
REMARK    3  A    between atoms: O_4  and  C_24
REMARK    4  A    between atoms: O_5  and  C_27
REMARK    5  A    between atoms: O_7  and  C_28
REMARK    6  A    between atoms: C_17  and  C_18
REMARK                            x       y       z     vdW  Elec       q    Type
REMARK                         _______ _______ _______ _____ _____    ______ ____
ROOT
ATOM      1  O   UNL     1     112.341 127.708 136.970  0.00  0.00    +0.000 OA
ATOM      2  O   UNL     1     114.212 129.713 136.059  0.00  0.00    +0.000 OA
ATOM      3  O   UNL     1     114.305 128.346 135.606  0.00  0.00    +0.000 OA
ATOM      4  C   UNL     1     113.266 128.700 136.520  0.00  0.00    +0.000 A 
ATOM      5  C   UNL     1     112.611 128.487 136.975  0.00  0.00    +0.000 A 
ATOM      6  C   UNL     1     112.726 127.141 136.510  0.00  0.00    +0.000 A 
ATOM      7  C   UNL     1     113.650 128.134 136.061  0.00  0.00    +0.000 A 
ATOM      8  C   UNL     1     113.381 127.354 136.055  0.00  0.00    +0.000 A 
ATOM      9  C   UNL     1     113.556 129.509 136.517  0.00  0.00    +0.000 A 
ATOM     10  C   UNL     1     112.202 129.069 137.458  0.00  0.00    +0.000 A 
ATOM     11  C   UNL     1     112.478 129.882 137.467  0.00  0.00    +0.000 A 
ATOM     12  C   UNL     1     113.160 130.104 136.993  0.00  0.00    +0.000 A 
ENDROOT
BRANCH   6  13
ATOM     13  C   UNL     1     112.456 126.361 136.506  0.00  0.00    +0.000 A 
ATOM     14  C   UNL     1     111.773 126.163 136.088  0.00  0.00    +0.000 A 
ATOM     15  C   UNL     1     112.870 125.779 136.920  0.00  0.00    +0.000 A 
ATOM     16  C   UNL     1     111.504 125.383 136.085  0.00  0.00    +0.000 A 
ATOM     17  C   UNL     1     111.917 124.802 136.498  0.00  0.00    +0.000 A 
ATOM     18  C   UNL     1     112.600 125.000 136.916  0.00  0.00    +0.000 A 
BRANCH  17  19
ATOM     19  O   UNL     1     111.648 124.022 136.494  0.00  0.00    +0.000 OA
ATOM     20  C   UNL     1     112.076 123.435 136.884  0.00  0.00    +0.000 C 
ENDBRANCH  17  19
BRANCH  16  21
ATOM     21  O   UNL     1     110.820 125.185 135.667  0.00  0.00    +0.000 OA
BRANCH  21  22
ATOM     22  S   UNL     1     110.336 125.779 135.362  0.00  0.00    +0.000 S 
ATOM     23  O   UNL     1     109.852 126.373 135.056  0.00  0.00    +0.000 OA
ATOM     24  O   UNL     1     109.947 125.835 136.087  0.00  0.00    +0.000 OA
ATOM     25  O   UNL     1     110.725 125.724 134.636  0.00  0.00    +0.000 OA
ENDBRANCH  21  22
ENDBRANCH  16  21
ENDBRANCH   6  13
BRANCH  11  26
ATOM     26  O   UNL     1     112.090 130.447 137.928  0.00  0.00    +0.000 OA
BRANCH  26  27
ATOM     27  S   UNL     1     112.240 130.490 138.738  0.00  0.00    +0.000 S 
ATOM     28  O   UNL     1     112.389 130.532 139.548  0.00  0.00    +0.000 OA
ATOM     29  O   UNL     1     112.890 130.976 138.592  0.00  0.00    +0.000 OA
ATOM     30  O   UNL     1     111.589 130.003 138.883  0.00  0.00    +0.000 OA
ENDBRANCH  26  27
ENDBRANCH  11  26
TORSDOF 6
ENDMDL
MODEL 7
REMARK VINA RESULT:      -8.0      9.538     11.982
REMARK  Name = 44258236
REMARK  6 active torsions:
REMARK  status: ('A' for Active; 'I' for Inactive)
REMARK    1  A    between atoms: S_1  and  O_4
REMARK    2  A    between atoms: S_2  and  O_5
REMARK    3  A    between atoms: O_4  and  C_24
REMARK    4  A    between atoms: O_5  and  C_27
REMARK    5  A    between atoms: O_7  and  C_28
REMARK    6  A    between atoms: C_17  and  C_18
REMARK                            x       y       z     vdW  Elec       q    Type
REMARK                         _______ _______ _______ _____ _____    ______ ____
ROOT
ATOM      1  O   UNL     1     111.696 126.402 138.699  0.00  0.00    +0.000 OA
ATOM      2  O   UNL     1     110.791 126.227 141.438  0.00  0.00    +0.000 OA
ATOM      3  O   UNL     1     110.045 125.614 140.366  0.00  0.00    +0.000 OA
ATOM      4  C   UNL     1     111.249 126.316 140.054  0.00  0.00    +0.000 A 
ATOM      5  C   UNL     1     111.799 126.578 139.498  0.00  0.00    +0.000 A 
ATOM      6  C   UNL     1     111.041 125.962 138.456  0.00  0.00    +0.000 A 
ATOM      7  C   UNL     1     110.595 125.876 139.811  0.00  0.00    +0.000 A 
ATOM      8  C   UNL     1     110.491 125.699 139.012  0.00  0.00    +0.000 A 
ATOM      9  C   UNL     1     111.347 126.494 140.889  0.00  0.00    +0.000 A 
ATOM     10  C   UNL     1     112.485 127.037 139.740  0.00  0.00    +0.000 A 
ATOM     11  C   UNL     1     112.599 127.225 140.570  0.00  0.00    +0.000 A 
ATOM     12  C   UNL     1     112.026 126.952 141.149  0.00  0.00    +0.000 A 
ENDROOT
BRANCH   6  13
ATOM     13  C   UNL     1     110.938 125.785 137.657  0.00  0.00    +0.000 A 
ATOM     14  C   UNL     1     111.365 125.169 137.311  0.00  0.00    +0.000 A 
ATOM     15  C   UNL     1     110.406 126.224 137.203  0.00  0.00    +0.000 A 
ATOM     16  C   UNL     1     111.261 124.994 136.512  0.00  0.00    +0.000 A 
ATOM     17  C   UNL     1     110.730 125.432 136.058  0.00  0.00    +0.000 A 
ATOM     18  C   UNL     1     110.303 126.047 136.404  0.00  0.00    +0.000 A 
BRANCH  17  19
ATOM     19  O   UNL     1     110.626 125.256 135.259  0.00  0.00    +0.000 OA
ATOM     20  C   UNL     1     110.078 125.679 134.811  0.00  0.00    +0.000 C 
ENDBRANCH  17  19
BRANCH  16  21
ATOM     21  O   UNL     1     111.688 124.378 136.166  0.00  0.00    +0.000 OA
BRANCH  21  22
ATOM     22  S   UNL     1     112.298 124.013 136.585  0.00  0.00    +0.000 S 
ATOM     23  O   UNL     1     112.907 123.646 137.004  0.00  0.00    +0.000 OA
ATOM     24  O   UNL     1     112.828 124.582 136.312  0.00  0.00    +0.000 OA
ATOM     25  O   UNL     1     111.767 123.443 136.859  0.00  0.00    +0.000 OA
ENDBRANCH  21  22
ENDBRANCH  16  21
ENDBRANCH   6  13
BRANCH  11  26
ATOM     26  O   UNL     1     113.254 127.665 140.810  0.00  0.00    +0.000 OA
BRANCH  26  27
ATOM     27  S   UNL     1     114.009 127.332 140.776  0.00  0.00    +0.000 S 
ATOM     28  O   UNL     1     114.763 126.999 140.743  0.00  0.00    +0.000 OA
ATOM     29  O   UNL     1     114.145 127.714 140.058  0.00  0.00    +0.000 OA
ATOM     30  O   UNL     1     113.872 126.951 141.495  0.00  0.00    +0.000 OA
ENDBRANCH  26  27
ENDBRANCH  11  26
TORSDOF 6
ENDMDL
MODEL 8
REMARK VINA RESULT:      -8.0     13.004     14.361
REMARK  Name = 44258236
REMARK  6 active torsions:
REMARK  status: ('A' for Active; 'I' for Inactive)
REMARK    1  A    between atoms: S_1  and  O_4
REMARK    2  A    between atoms: S_2  and  O_5
REMARK    3  A    between atoms: O_4  and  C_24
REMARK    4  A    between atoms: O_5  and  C_27
REMARK    5  A    between atoms: O_7  and  C_28
REMARK    6  A    between atoms: C_17  and  C_18
REMARK                            x       y       z     vdW  Elec       q    Type
REMARK                         _______ _______ _______ _____ _____    ______ ____
ROOT
ATOM      1  O   UNL     1     113.029 128.389 137.357  0.00  0.00    +0.000 OA
ATOM      2  O   UNL     1     114.493 130.687 136.396  0.00  0.00    +0.000 OA
ATOM      3  O   UNL     1     114.222 129.563 135.534  0.00  0.00    +0.000 OA
ATOM      4  C   UNL     1     113.753 129.526 136.882  0.00  0.00    +0.000 A 
ATOM      5  C   UNL     1     113.355 129.134 137.490  0.00  0.00    +0.000 A 
ATOM      6  C   UNL     1     113.100 128.034 136.615  0.00  0.00    +0.000 A 
ATOM      7  C   UNL     1     113.824 129.171 136.142  0.00  0.00    +0.000 A 
ATOM      8  C   UNL     1     113.498 128.425 136.007  0.00  0.00    +0.000 A 
ATOM      9  C   UNL     1     114.097 130.303 137.010  0.00  0.00    +0.000 A 
ATOM     10  C   UNL     1     113.274 129.493 138.267  0.00  0.00    +0.000 A 
ATOM     11  C   UNL     1     113.612 130.270 138.412  0.00  0.00    +0.000 A 
ATOM     12  C   UNL     1     114.026 130.677 137.780  0.00  0.00    +0.000 A 
ENDROOT
BRANCH   6  13
ATOM     13  C   UNL     1     112.774 127.288 136.482  0.00  0.00    +0.000 A 
ATOM     14  C   UNL     1     113.198 126.610 136.681  0.00  0.00    +0.000 A 
ATOM     15  C   UNL     1     112.021 127.221 136.148  0.00  0.00    +0.000 A 
ATOM     16  C   UNL     1     112.871 125.864 136.548  0.00  0.00    +0.000 A 
ATOM     17  C   UNL     1     112.120 125.797 136.215  0.00  0.00    +0.000 A 
ATOM     18  C   UNL     1     111.695 126.476 136.015  0.00  0.00    +0.000 A 
BRANCH  17  19
ATOM     19  O   UNL     1     111.792 125.052 136.081  0.00  0.00    +0.000 OA
ATOM     20  C   UNL     1     111.033 124.985 135.765  0.00  0.00    +0.000 C 
ENDBRANCH  17  19
BRANCH  16  21
ATOM     21  O   UNL     1     113.295 125.186 136.748  0.00  0.00    +0.000 OA
BRANCH  21  22
ATOM     22  S   UNL     1     114.022 125.252 137.131  0.00  0.00    +0.000 S 
ATOM     23  O   UNL     1     114.751 125.318 137.514  0.00  0.00    +0.000 OA
ATOM     24  O   UNL     1     113.638 125.264 137.860  0.00  0.00    +0.000 OA
ATOM     25  O   UNL     1     114.408 125.240 136.401  0.00  0.00    +0.000 OA
ENDBRANCH  21  22
ENDBRANCH  16  21
ENDBRANCH   6  13
BRANCH  11  26
ATOM     26  O   UNL     1     113.539 130.621 139.156  0.00  0.00    +0.000 OA
BRANCH  26  27
ATOM     27  S   UNL     1     114.066 130.423 139.759  0.00  0.00    +0.000 S 
ATOM     28  O   UNL     1     114.593 130.225 140.362  0.00  0.00    +0.000 OA
ATOM     29  O   UNL     1     114.575 131.023 139.511  0.00  0.00    +0.000 OA
ATOM     30  O   UNL     1     113.557 129.823 140.006  0.00  0.00    +0.000 OA
ENDBRANCH  26  27
ENDBRANCH  11  26
TORSDOF 6
ENDMDL
MODEL 9
REMARK VINA RESULT:      -8.0     10.189     11.690
REMARK  Name = 44258236
REMARK  6 active torsions:
REMARK  status: ('A' for Active; 'I' for Inactive)
REMARK    1  A    between atoms: S_1  and  O_4
REMARK    2  A    between atoms: S_2  and  O_5
REMARK    3  A    between atoms: O_4  and  C_24
REMARK    4  A    between atoms: O_5  and  C_27
REMARK    5  A    between atoms: O_7  and  C_28
REMARK    6  A    between atoms: C_17  and  C_18
REMARK                            x       y       z     vdW  Elec       q    Type
REMARK                         _______ _______ _______ _____ _____    ______ ____
ROOT
ATOM      1  O   UNL     1     111.688 126.574 137.818  0.00  0.00    +0.000 OA
ATOM      2  O   UNL     1     111.097 124.449 135.951  0.00  0.00    +0.000 OA
ATOM      3  O   UNL     1     111.985 124.234 137.067  0.00  0.00    +0.000 OA
ATOM      4  C   UNL     1     111.395 125.523 136.894  0.00  0.00    +0.000 A 
ATOM      5  C   UNL     1     111.296 126.303 137.144  0.00  0.00    +0.000 A 
ATOM      6  C   UNL     1     112.179 126.064 138.242  0.00  0.00    +0.000 A 
ATOM      7  C   UNL     1     111.886 125.014 137.317  0.00  0.00    +0.000 A 
ATOM      8  C   UNL     1     112.278 125.284 137.991  0.00  0.00    +0.000 A 
ATOM      9  C   UNL     1     110.992 125.230 136.194  0.00  0.00    +0.000 A 
ATOM     10  C   UNL     1     110.786 126.844 136.712  0.00  0.00    +0.000 A 
ATOM     11  C   UNL     1     110.376 126.569 136.009  0.00  0.00    +0.000 A 
ATOM     12  C   UNL     1     110.479 125.757 135.749  0.00  0.00    +0.000 A 
ENDROOT
BRANCH   6  13
ATOM     13  C   UNL     1     112.571 126.334 138.915  0.00  0.00    +0.000 A 
ATOM     14  C   UNL     1     112.156 126.440 139.620  0.00  0.00    +0.000 A 
ATOM     15  C   UNL     1     113.380 126.499 138.883  0.00  0.00    +0.000 A 
ATOM     16  C   UNL     1     112.549 126.711 140.293  0.00  0.00    +0.000 A 
ATOM     17  C   UNL     1     113.356 126.876 140.262  0.00  0.00    +0.000 A 
ATOM     18  C   UNL     1     113.771 126.770 139.557  0.00  0.00    +0.000 A 
BRANCH  17  19
ATOM     19  O   UNL     1     113.749 127.146 140.935  0.00  0.00    +0.000 OA
ATOM     20  C   UNL     1     114.572 127.197 140.940  0.00  0.00    +0.000 C 
ENDBRANCH  17  19
BRANCH  16  21
ATOM     21  O   UNL     1     112.134 126.816 140.998  0.00  0.00    +0.000 OA
BRANCH  21  22
ATOM     22  S   UNL     1     111.315 126.716 141.014  0.00  0.00    +0.000 S 
ATOM     23  O   UNL     1     110.497 126.615 141.031  0.00  0.00    +0.000 OA
ATOM     24  O   UNL     1     111.214 127.505 140.798  0.00  0.00    +0.000 OA
ATOM     25  O   UNL     1     111.417 125.926 141.231  0.00  0.00    +0.000 OA
ENDBRANCH  21  22
ENDBRANCH  16  21
ENDBRANCH   6  13
BRANCH  11  26
ATOM     26  O   UNL     1     109.885 127.081 135.588  0.00  0.00    +0.000 OA
BRANCH  26  27
ATOM     27  S   UNL     1     109.124 127.243 135.864  0.00  0.00    +0.000 S 
ATOM     28  O   UNL     1     108.363 127.404 136.140  0.00  0.00    +0.000 OA
ATOM     29  O   UNL     1     108.843 126.565 135.486  0.00  0.00    +0.000 OA
ATOM     30  O   UNL     1     109.405 127.920 136.242  0.00  0.00    +0.000 OA
ENDBRANCH  26  27
ENDBRANCH  11  26
TORSDOF 6
ENDMDL
MODEL 10
REMARK VINA RESULT:      -7.8     11.647     14.078
REMARK  Name = 44258236
REMARK  6 active torsions:
REMARK  status: ('A' for Active; 'I' for Inactive)
REMARK    1  A    between atoms: S_1  and  O_4
REMARK    2  A    between atoms: S_2  and  O_5
REMARK    3  A    between atoms: O_4  and  C_24
REMARK    4  A    between atoms: O_5  and  C_27
REMARK    5  A    between atoms: O_7  and  C_28
REMARK    6  A    between atoms: C_17  and  C_18
REMARK                            x       y       z     vdW  Elec       q    Type
REMARK                         _______ _______ _______ _____ _____    ______ ____
ROOT
ATOM      1  O   UNL     1     112.622 127.135 136.306  0.00  0.00    +0.000 OA
ATOM      2  O   UNL     1     111.557 129.224 134.618  0.00  0.00    +0.000 OA
ATOM      3  O   UNL     1     110.818 128.008 134.854  0.00  0.00    +0.000 OA
ATOM      4  C   UNL     1     112.096 128.168 135.471  0.00  0.00    +0.000 A 
ATOM      5  C   UNL     1     112.697 127.877 135.956  0.00  0.00    +0.000 A 
ATOM      6  C   UNL     1     111.944 126.683 136.173  0.00  0.00    +0.000 A 
ATOM      7  C   UNL     1     111.419 127.717 135.338  0.00  0.00    +0.000 A 
ATOM      8  C   UNL     1     111.343 126.974 135.688  0.00  0.00    +0.000 A 
ATOM      9  C   UNL     1     112.164 128.941 135.100  0.00  0.00    +0.000 A 
ATOM     10  C   UNL     1     113.408 128.339 136.103  0.00  0.00    +0.000 A 
ATOM     11  C   UNL     1     113.492 129.113 135.740  0.00  0.00    +0.000 A 
ATOM     12  C   UNL     1     112.867 129.416 135.236  0.00  0.00    +0.000 A 
ENDROOT
BRANCH   6  13
ATOM     13  C   UNL     1     111.868 125.940 136.523  0.00  0.00    +0.000 A 
ATOM     14  C   UNL     1     111.558 125.872 137.285  0.00  0.00    +0.000 A 
ATOM     15  C   UNL     1     112.103 125.264 136.112  0.00  0.00    +0.000 A 
ATOM     16  C   UNL     1     111.483 125.129 137.635  0.00  0.00    +0.000 A 
ATOM     17  C   UNL     1     111.718 124.454 137.224  0.00  0.00    +0.000 A 
ATOM     18  C   UNL     1     112.028 124.521 136.462  0.00  0.00    +0.000 A 
BRANCH  17  19
ATOM     19  O   UNL     1     111.643 123.710 137.574  0.00  0.00    +0.000 OA
ATOM     20  C   UNL     1     111.960 123.045 137.203  0.00  0.00    +0.000 C 
ENDBRANCH  17  19
BRANCH  16  21
ATOM     21  O   UNL     1     111.173 125.061 138.396  0.00  0.00    +0.000 OA
BRANCH  21  22
ATOM     22  S   UNL     1     111.003 125.739 138.835  0.00  0.00    +0.000 S 
ATOM     23  O   UNL     1     110.832 126.417 139.273  0.00  0.00    +0.000 OA
ATOM     24  O   UNL     1     111.771 125.739 139.135  0.00  0.00    +0.000 OA
ATOM     25  O   UNL     1     110.234 125.740 138.534  0.00  0.00    +0.000 OA
ENDBRANCH  21  22
ENDBRANCH  16  21
ENDBRANCH   6  13
BRANCH  11  26
ATOM     26  O   UNL     1     114.171 129.562 135.876  0.00  0.00    +0.000 OA
BRANCH  26  27
ATOM     27  S   UNL     1     114.655 129.779 135.244  0.00  0.00    +0.000 S 
ATOM     28  O   UNL     1     115.140 129.995 134.612  0.00  0.00    +0.000 OA
ATOM     29  O   UNL     1     114.957 129.011 135.212  0.00  0.00    +0.000 OA
ATOM     30  O   UNL     1     114.354 130.546 135.276  0.00  0.00    +0.000 OA
ENDBRANCH  26  27
ENDBRANCH  11  26
TORSDOF 6
ENDMDL
