MODEL 1
REMARK VINA RESULT:      -8.5      0.000      0.000
REMARK  Name = 44257525
REMARK  2 active torsions:
REMARK  status: ('A' for Active; 'I' for Inactive)
REMARK    1  A    between atoms: O_3  and  C_15
REMARK    2  A    between atoms: C_6  and  C_8
REMARK                            x       y       z     vdW  Elec       q    Type
REMARK                         _______ _______ _______ _____ _____    ______ ____
ROOT
ATOM      1  O   UNL     1     102.924 123.663 138.371  0.00  0.00    +0.000 OA
ATOM      2  O   UNL     1     102.294 122.875 135.640  0.00  0.00    +0.000 OA
ATOM      3  C   UNL     1     104.282 123.729 138.810  0.00  0.00    +0.000 C 
ATOM      4  C   UNL     1     103.476 123.815 138.965  0.00  0.00    +0.000 C 
ATOM      5  C   UNL     1     103.982 123.341 137.468  0.00  0.00    +0.000 A 
ATOM      6  C   UNL     1     104.535 123.492 138.061  0.00  0.00    +0.000 C 
ATOM      7  C   UNL     1     103.176 123.427 137.623  0.00  0.00    +0.000 A 
ATOM      8  C   UNL     1     104.258 123.095 136.692  0.00  0.00    +0.000 A 
ATOM      9  C   UNL     1     102.591 123.272 137.013  0.00  0.00    +0.000 A 
ATOM     10  C   UNL     1     102.849 123.026 136.231  0.00  0.00    +0.000 A 
ATOM     11  C   UNL     1     103.688 122.937 136.070  0.00  0.00    +0.000 A 
ENDROOT
BRANCH   3  14
ATOM     12  O   UNL     1     104.710 125.283 139.164  0.00  0.00    +0.000 OA
ATOM     13  O   UNL     1     106.495 124.331 141.184  0.00  0.00    +0.000 OA
ATOM     14  C   UNL     1     104.835 123.880 139.403  0.00  0.00    +0.000 A 
ATOM     15  C   UNL     1     105.049 124.657 139.580  0.00  0.00    +0.000 A 
ATOM     16  C   UNL     1     105.174 123.253 139.820  0.00  0.00    +0.000 A 
ATOM     17  C   UNL     1     105.602 124.807 140.174  0.00  0.00    +0.000 A 
ATOM     18  C   UNL     1     105.727 123.404 140.413  0.00  0.00    +0.000 A 
ATOM     19  C   UNL     1     105.941 124.181 140.590  0.00  0.00    +0.000 A 
BRANCH  17  20
ATOM     20  O   UNL     1     105.817 125.583 140.351  0.00  0.00    +0.000 OA
ATOM     21  C   UNL     1     105.583 125.924 141.065  0.00  0.00    +0.000 C 
ENDBRANCH  17  20
ENDBRANCH   3  14
TORSDOF 2
ENDMDL
MODEL 2
REMARK VINA RESULT:      -8.2      0.910      4.341
REMARK  Name = 44257525
REMARK  2 active torsions:
REMARK  status: ('A' for Active; 'I' for Inactive)
REMARK    1  A    between atoms: O_3  and  C_15
REMARK    2  A    between atoms: C_6  and  C_8
REMARK                            x       y       z     vdW  Elec       q    Type
REMARK                         _______ _______ _______ _____ _____    ______ ____
ROOT
ATOM      1  O   UNL     1     105.528 125.065 139.292  0.00  0.00    +0.000 OA
ATOM      2  O   UNL     1     107.432 124.568 141.438  0.00  0.00    +0.000 OA
ATOM      3  C   UNL     1     104.531 124.094 138.970  0.00  0.00    +0.000 C 
ATOM      4  C   UNL     1     104.886 124.826 138.833  0.00  0.00    +0.000 C 
ATOM      5  C   UNL     1     105.461 123.842 140.025  0.00  0.00    +0.000 A 
ATOM      6  C   UNL     1     104.819 123.601 139.567  0.00  0.00    +0.000 C 
ATOM      7  C   UNL     1     105.816 124.574 139.888  0.00  0.00    +0.000 A 
ATOM      8  C   UNL     1     105.752 123.320 140.643  0.00  0.00    +0.000 A 
ATOM      9  C   UNL     1     106.486 124.834 140.359  0.00  0.00    +0.000 A 
ATOM     10  C   UNL     1     106.790 124.326 140.981  0.00  0.00    +0.000 A 
ATOM     11  C   UNL     1     106.420 123.564 141.124  0.00  0.00    +0.000 A 
ENDROOT
BRANCH   3  14
ATOM     12  O   UNL     1     104.783 123.285 137.554  0.00  0.00    +0.000 OA
ATOM     13  O   UNL     1     101.959 123.135 137.138  0.00  0.00    +0.000 OA
ATOM     14  C   UNL     1     103.888 123.854 138.512  0.00  0.00    +0.000 A 
ATOM     15  C   UNL     1     104.014 123.450 137.804  0.00  0.00    +0.000 A 
ATOM     16  C   UNL     1     103.119 124.019 138.762  0.00  0.00    +0.000 A 
ATOM     17  C   UNL     1     103.371 123.210 137.346  0.00  0.00    +0.000 A 
ATOM     18  C   UNL     1     102.477 123.779 138.304  0.00  0.00    +0.000 A 
ATOM     19  C   UNL     1     102.603 123.374 137.596  0.00  0.00    +0.000 A 
BRANCH  17  20
ATOM     20  O   UNL     1     103.497 122.806 136.638  0.00  0.00    +0.000 OA
ATOM     21  C   UNL     1     103.394 123.193 135.917  0.00  0.00    +0.000 C 
ENDBRANCH  17  20
ENDBRANCH   3  14
TORSDOF 2
ENDMDL
MODEL 3
REMARK VINA RESULT:      -8.2      7.328      8.588
REMARK  Name = 44257525
REMARK  2 active torsions:
REMARK  status: ('A' for Active; 'I' for Inactive)
REMARK    1  A    between atoms: O_3  and  C_15
REMARK    2  A    between atoms: C_6  and  C_8
REMARK                            x       y       z     vdW  Elec       q    Type
REMARK                         _______ _______ _______ _____ _____    ______ ____
ROOT
ATOM      1  O   UNL     1     112.231 124.164 136.829  0.00  0.00    +0.000 OA
ATOM      2  O   UNL     1     115.073 124.354 137.435  0.00  0.00    +0.000 OA
ATOM      3  C   UNL     1     111.545 125.264 136.229  0.00  0.00    +0.000 C 
ATOM      4  C   UNL     1     111.537 124.496 136.531  0.00  0.00    +0.000 C 
ATOM      5  C   UNL     1     112.939 125.366 136.523  0.00  0.00    +0.000 A 
ATOM      6  C   UNL     1     112.246 125.700 136.225  0.00  0.00    +0.000 C 
ATOM      7  C   UNL     1     112.932 124.599 136.825  0.00  0.00    +0.000 A 
ATOM      8  C   UNL     1     113.663 125.830 136.513  0.00  0.00    +0.000 A 
ATOM      9  C   UNL     1     113.648 124.241 137.138  0.00  0.00    +0.000 A 
ATOM     10  C   UNL     1     114.381 124.689 137.136  0.00  0.00    +0.000 A 
ATOM     11  C   UNL     1     114.389 125.489 136.822  0.00  0.00    +0.000 A 
ENDROOT
BRANCH   3  14
ATOM     12  O   UNL     1     110.522 126.080 137.234  0.00  0.00    +0.000 OA
ATOM     13  O   UNL     1     108.772 126.596 135.034  0.00  0.00    +0.000 OA
ATOM     14  C   UNL     1     110.851 125.597 135.931  0.00  0.00    +0.000 A 
ATOM     15  C   UNL     1     110.340 126.005 136.433  0.00  0.00    +0.000 A 
ATOM     16  C   UNL     1     110.670 125.522 135.129  0.00  0.00    +0.000 A 
ATOM     17  C   UNL     1     109.647 126.338 136.134  0.00  0.00    +0.000 A 
ATOM     18  C   UNL     1     109.976 125.855 134.831  0.00  0.00    +0.000 A 
ATOM     19  C   UNL     1     109.465 126.263 135.333  0.00  0.00    +0.000 A 
BRANCH  17  20
ATOM     20  O   UNL     1     109.135 126.746 136.636  0.00  0.00    +0.000 OA
ATOM     21  C   UNL     1     109.135 127.571 136.644  0.00  0.00    +0.000 C 
ENDBRANCH  17  20
ENDBRANCH   3  14
TORSDOF 2
ENDMDL
MODEL 4
REMARK VINA RESULT:      -8.1      7.308      9.203
REMARK  Name = 44257525
REMARK  2 active torsions:
REMARK  status: ('A' for Active; 'I' for Inactive)
REMARK    1  A    between atoms: O_3  and  C_15
REMARK    2  A    between atoms: C_6  and  C_8
REMARK                            x       y       z     vdW  Elec       q    Type
REMARK                         _______ _______ _______ _____ _____    ______ ____
ROOT
ATOM      1  O   UNL     1     105.926 125.208 146.183  0.00  0.00    +0.000 OA
ATOM      2  O   UNL     1     108.451 125.458 147.613  0.00  0.00    +0.000 OA
ATOM      3  C   UNL     1     104.787 124.630 146.822  0.00  0.00    +0.000 C 
ATOM      4  C   UNL     1     105.135 124.976 146.159  0.00  0.00    +0.000 C 
ATOM      5  C   UNL     1     106.021 124.748 147.532  0.00  0.00    +0.000 A 
ATOM      6  C   UNL     1     105.230 124.515 147.509  0.00  0.00    +0.000 C 
ATOM      7  C   UNL     1     106.369 125.094 146.869  0.00  0.00    +0.000 A 
ATOM      8  C   UNL     1     106.473 124.624 148.253  0.00  0.00    +0.000 A 
ATOM      9  C   UNL     1     107.193 125.341 146.881  0.00  0.00    +0.000 A 
ATOM     10  C   UNL     1     107.659 125.224 147.593  0.00  0.00    +0.000 A 
ATOM     11  C   UNL     1     107.297 124.864 148.283  0.00  0.00    +0.000 A 
ENDROOT
BRANCH   3  14
ATOM     12  O   UNL     1     104.363 123.213 146.090  0.00  0.00    +0.000 OA
ATOM     13  O   UNL     1     101.621 123.701 146.733  0.00  0.00    +0.000 OA
ATOM     14  C   UNL     1     103.996 124.397 146.799  0.00  0.00    +0.000 A 
ATOM     15  C   UNL     1     103.784 123.689 146.433  0.00  0.00    +0.000 A 
ATOM     16  C   UNL     1     103.416 124.874 147.143  0.00  0.00    +0.000 A 
ATOM     17  C   UNL     1     102.992 123.457 146.411  0.00  0.00    +0.000 A 
ATOM     18  C   UNL     1     102.625 124.641 147.121  0.00  0.00    +0.000 A 
ATOM     19  C   UNL     1     102.413 123.933 146.755  0.00  0.00    +0.000 A 
BRANCH  17  20
ATOM     20  O   UNL     1     102.780 122.749 146.045  0.00  0.00    +0.000 OA
ATOM     21  C   UNL     1     102.406 122.759 145.310  0.00  0.00    +0.000 C 
ENDBRANCH  17  20
ENDBRANCH   3  14
TORSDOF 2
ENDMDL
MODEL 5
REMARK VINA RESULT:      -7.9      5.638      8.893
REMARK  Name = 44257525
REMARK  2 active torsions:
REMARK  status: ('A' for Active; 'I' for Inactive)
REMARK    1  A    between atoms: O_3  and  C_15
REMARK    2  A    between atoms: C_6  and  C_8
REMARK                            x       y       z     vdW  Elec       q    Type
REMARK                         _______ _______ _______ _____ _____    ______ ____
ROOT
ATOM      1  O   UNL     1     105.782 124.698 147.536  0.00  0.00    +0.000 OA
ATOM      2  O   UNL     1     107.749 124.146 149.611  0.00  0.00    +0.000 OA
ATOM      3  C   UNL     1     106.156 125.412 146.355  0.00  0.00    +0.000 C 
ATOM      4  C   UNL     1     105.583 125.025 146.804  0.00  0.00    +0.000 C 
ATOM      5  C   UNL     1     107.128 125.145 147.368  0.00  0.00    +0.000 A 
ATOM      6  C   UNL     1     106.930 125.472 146.638  0.00  0.00    +0.000 C 
ATOM      7  C   UNL     1     106.555 124.759 147.818  0.00  0.00    +0.000 A 
ATOM      8  C   UNL     1     107.937 125.215 147.652  0.00  0.00    +0.000 A 
ATOM      9  C   UNL     1     106.750 124.414 148.581  0.00  0.00    +0.000 A 
ATOM     10  C   UNL     1     107.553 124.474 148.880  0.00  0.00    +0.000 A 
ATOM     11  C   UNL     1     108.150 124.877 148.412  0.00  0.00    +0.000 A 
ENDROOT
BRANCH   3  14
ATOM     12  O   UNL     1     106.062 124.449 145.019  0.00  0.00    +0.000 OA
ATOM     13  O   UNL     1     105.363 126.721 143.432  0.00  0.00    +0.000 OA
ATOM     14  C   UNL     1     105.958 125.738 145.624  0.00  0.00    +0.000 A 
ATOM     15  C   UNL     1     105.911 125.257 144.956  0.00  0.00    +0.000 A 
ATOM     16  C   UNL     1     105.807 126.548 145.562  0.00  0.00    +0.000 A 
ATOM     17  C   UNL     1     105.712 125.585 144.225  0.00  0.00    +0.000 A 
ATOM     18  C   UNL     1     105.608 126.874 144.831  0.00  0.00    +0.000 A 
ATOM     19  C   UNL     1     105.561 126.393 144.163  0.00  0.00    +0.000 A 
BRANCH  17  20
ATOM     20  O   UNL     1     105.665 125.104 143.557  0.00  0.00    +0.000 OA
ATOM     21  C   UNL     1     106.213 125.191 142.946  0.00  0.00    +0.000 C 
ENDBRANCH  17  20
ENDBRANCH   3  14
TORSDOF 2
ENDMDL
MODEL 6
REMARK VINA RESULT:      -7.9      6.320      8.347
REMARK  Name = 44257525
REMARK  2 active torsions:
REMARK  status: ('A' for Active; 'I' for Inactive)
REMARK    1  A    between atoms: O_3  and  C_15
REMARK    2  A    between atoms: C_6  and  C_8
REMARK                            x       y       z     vdW  Elec       q    Type
REMARK                         _______ _______ _______ _____ _____    ______ ____
ROOT
ATOM      1  O   UNL     1     102.741 129.669 140.570  0.00  0.00    +0.000 OA
ATOM      2  O   UNL     1     104.681 127.636 141.337  0.00  0.00    +0.000 OA
ATOM      3  C   UNL     1     102.415 130.732 141.466  0.00  0.00    +0.000 C 
ATOM      4  C   UNL     1     102.315 130.354 140.740  0.00  0.00    +0.000 C 
ATOM      5  C   UNL     1     103.369 129.740 141.851  0.00  0.00    +0.000 A 
ATOM      6  C   UNL     1     102.943 130.425 142.022  0.00  0.00    +0.000 C 
ATOM      7  C   UNL     1     103.268 129.361 141.125  0.00  0.00    +0.000 A 
ATOM      8  C   UNL     1     103.915 129.429 142.438  0.00  0.00    +0.000 A 
ATOM      9  C   UNL     1     103.706 128.647 140.935  0.00  0.00    +0.000 A 
ATOM     10  C   UNL     1     104.256 128.322 141.510  0.00  0.00    +0.000 A 
ATOM     11  C   UNL     1     104.361 128.716 142.266  0.00  0.00    +0.000 A 
ENDROOT
BRANCH   3  14
ATOM     12  O   UNL     1     103.000 132.205 141.005  0.00  0.00    +0.000 OA
ATOM     13  O   UNL     1     100.710 133.473 142.153  0.00  0.00    +0.000 OA
ATOM     14  C   UNL     1     101.990 131.418 141.638  0.00  0.00    +0.000 A 
ATOM     15  C   UNL     1     102.282 132.154 141.407  0.00  0.00    +0.000 A 
ATOM     16  C   UNL     1     101.271 131.367 142.040  0.00  0.00    +0.000 A 
ATOM     17  C   UNL     1     101.855 132.839 141.579  0.00  0.00    +0.000 A 
ATOM     18  C   UNL     1     100.845 132.052 142.211  0.00  0.00    +0.000 A 
ATOM     19  C   UNL     1     101.137 132.788 141.981  0.00  0.00    +0.000 A 
BRANCH  17  20
ATOM     20  O   UNL     1     102.147 133.575 141.348  0.00  0.00    +0.000 OA
ATOM     21  C   UNL     1     102.525 134.060 141.898  0.00  0.00    +0.000 C 
ENDBRANCH  17  20
ENDBRANCH   3  14
TORSDOF 2
ENDMDL
MODEL 7
REMARK VINA RESULT:      -7.8      7.072      7.881
REMARK  Name = 44257525
REMARK  2 active torsions:
REMARK  status: ('A' for Active; 'I' for Inactive)
REMARK    1  A    between atoms: O_3  and  C_15
REMARK    2  A    between atoms: C_6  and  C_8
REMARK                            x       y       z     vdW  Elec       q    Type
REMARK                         _______ _______ _______ _____ _____    ______ ____
ROOT
ATOM      1  O   UNL     1     103.527 123.141 145.919  0.00  0.00    +0.000 OA
ATOM      2  O   UNL     1     100.711 123.120 146.661  0.00  0.00    +0.000 OA
ATOM      3  C   UNL     1     104.362 124.242 146.281  0.00  0.00    +0.000 C 
ATOM      4  C   UNL     1     104.266 123.508 145.916  0.00  0.00    +0.000 C 
ATOM      5  C   UNL     1     102.981 124.241 146.649  0.00  0.00    +0.000 A 
ATOM      6  C   UNL     1     103.720 124.609 146.648  0.00  0.00    +0.000 C 
ATOM      7  C   UNL     1     102.885 123.507 146.285  0.00  0.00    +0.000 A 
ATOM      8  C   UNL     1     102.320 124.632 147.034  0.00  0.00    +0.000 A 
ATOM      9  C   UNL     1     102.120 123.114 146.281  0.00  0.00    +0.000 A 
ATOM     10  C   UNL     1     101.448 123.490 146.660  0.00  0.00    +0.000 A 
ATOM     11  C   UNL     1     101.549 124.254 147.040  0.00  0.00    +0.000 A 
ENDROOT
BRANCH   3  14
ATOM     12  O   UNL     1     104.952 124.905 144.889  0.00  0.00    +0.000 OA
ATOM     13  O   UNL     1     107.316 125.715 146.277  0.00  0.00    +0.000 OA
ATOM     14  C   UNL     1     105.100 124.610 146.279  0.00  0.00    +0.000 A 
ATOM     15  C   UNL     1     105.395 124.942 145.583  0.00  0.00    +0.000 A 
ATOM     16  C   UNL     1     105.544 124.647 146.974  0.00  0.00    +0.000 A 
ATOM     17  C   UNL     1     106.134 125.310 145.583  0.00  0.00    +0.000 A 
ATOM     18  C   UNL     1     106.282 125.015 146.973  0.00  0.00    +0.000 A 
ATOM     19  C   UNL     1     106.577 125.347 146.277  0.00  0.00    +0.000 A 
BRANCH  17  20
ATOM     20  O   UNL     1     106.428 125.641 144.887  0.00  0.00    +0.000 OA
ATOM     21  C   UNL     1     106.329 126.446 144.739  0.00  0.00    +0.000 C 
ENDBRANCH  17  20
ENDBRANCH   3  14
TORSDOF 2
ENDMDL
MODEL 8
REMARK VINA RESULT:      -7.7      7.637      8.245
REMARK  Name = 44257525
REMARK  2 active torsions:
REMARK  status: ('A' for Active; 'I' for Inactive)
REMARK    1  A    between atoms: O_3  and  C_15
REMARK    2  A    between atoms: C_6  and  C_8
REMARK                            x       y       z     vdW  Elec       q    Type
REMARK                         _______ _______ _______ _____ _____    ______ ____
ROOT
ATOM      1  O   UNL     1     102.915 124.860 147.006  0.00  0.00    +0.000 OA
ATOM      2  O   UNL     1     100.749 123.051 146.284  0.00  0.00    +0.000 OA
ATOM      3  C   UNL     1     104.258 124.571 146.616  0.00  0.00    +0.000 C 
ATOM      4  C   UNL     1     103.715 125.062 146.995  0.00  0.00    +0.000 C 
ATOM      5  C   UNL     1     103.202 123.678 146.257  0.00  0.00    +0.000 A 
ATOM      6  C   UNL     1     104.002 123.879 146.246  0.00  0.00    +0.000 C 
ATOM      7  C   UNL     1     102.658 124.168 146.637  0.00  0.00    +0.000 A 
ATOM      8  C   UNL     1     102.948 122.954 145.869  0.00  0.00    +0.000 A 
ATOM      9  C   UNL     1     101.822 123.969 146.655  0.00  0.00    +0.000 A 
ATOM     10  C   UNL     1     101.550 123.250 146.272  0.00  0.00    +0.000 A 
ATOM     11  C   UNL     1     102.116 122.739 145.877  0.00  0.00    +0.000 A 
ENDROOT
BRANCH   3  14
ATOM     12  O   UNL     1     105.212 124.238 147.920  0.00  0.00    +0.000 OA
ATOM     13  O   UNL     1     107.459 125.376 146.569  0.00  0.00    +0.000 OA
ATOM     14  C   UNL     1     105.058 124.772 146.605  0.00  0.00    +0.000 A 
ATOM     15  C   UNL     1     105.535 124.606 147.257  0.00  0.00    +0.000 A 
ATOM     16  C   UNL     1     105.382 125.140 145.940  0.00  0.00    +0.000 A 
ATOM     17  C   UNL     1     106.335 124.807 147.245  0.00  0.00    +0.000 A 
ATOM     18  C   UNL     1     106.182 125.341 145.929  0.00  0.00    +0.000 A 
ATOM     19  C   UNL     1     106.658 125.174 146.581  0.00  0.00    +0.000 A 
BRANCH  17  20
ATOM     20  O   UNL     1     106.812 124.640 147.897  0.00  0.00    +0.000 OA
ATOM     21  C   UNL     1     107.053 125.249 148.398  0.00  0.00    +0.000 C 
ENDBRANCH  17  20
ENDBRANCH   3  14
TORSDOF 2
ENDMDL
MODEL 9
REMARK VINA RESULT:      -7.6      9.088     10.198
REMARK  Name = 44257525
REMARK  2 active torsions:
REMARK  status: ('A' for Active; 'I' for Inactive)
REMARK    1  A    between atoms: O_3  and  C_15
REMARK    2  A    between atoms: C_6  and  C_8
REMARK                            x       y       z     vdW  Elec       q    Type
REMARK                         _______ _______ _______ _____ _____    ______ ____
ROOT
ATOM      1  O   UNL     1     112.359 126.296 136.263  0.00  0.00    +0.000 OA
ATOM      2  O   UNL     1     113.083 123.553 136.919  0.00  0.00    +0.000 OA
ATOM      3  C   UNL     1     113.310 127.351 136.416  0.00  0.00    +0.000 C 
ATOM      4  C   UNL     1     112.555 127.096 136.206  0.00  0.00    +0.000 C 
ATOM      5  C   UNL     1     113.674 126.008 136.741  0.00  0.00    +0.000 A 
ATOM      6  C   UNL     1     113.871 126.807 136.684  0.00  0.00    +0.000 C 
ATOM      7  C   UNL     1     112.919 125.753 136.530  0.00  0.00    +0.000 A 
ATOM      8  C   UNL     1     114.266 125.451 137.021  0.00  0.00    +0.000 A 
ATOM      9  C   UNL     1     112.703 124.922 136.585  0.00  0.00    +0.000 A 
ATOM     10  C   UNL     1     113.281 124.351 136.863  0.00  0.00    +0.000 A 
ATOM     11  C   UNL     1     114.068 124.617 137.082  0.00  0.00    +0.000 A 
ENDROOT
BRANCH   3  14
ATOM     12  O   UNL     1     112.850 128.402 137.603  0.00  0.00    +0.000 OA
ATOM     13  O   UNL     1     114.098 130.548 136.187  0.00  0.00    +0.000 OA
ATOM     14  C   UNL     1     113.507 128.150 136.360  0.00  0.00    +0.000 A 
ATOM     15  C   UNL     1     113.277 128.676 136.953  0.00  0.00    +0.000 A 
ATOM     16  C   UNL     1     113.934 128.425 135.708  0.00  0.00    +0.000 A 
ATOM     17  C   UNL     1     113.474 129.475 136.895  0.00  0.00    +0.000 A 
ATOM     18  C   UNL     1     114.131 129.224 135.652  0.00  0.00    +0.000 A 
ATOM     19  C   UNL     1     113.901 129.749 136.245  0.00  0.00    +0.000 A 
BRANCH  17  20
ATOM     20  O   UNL     1     113.244 130.000 137.488  0.00  0.00    +0.000 OA
ATOM     21  C   UNL     1     113.797 130.271 138.037  0.00  0.00    +0.000 C 
ENDBRANCH  17  20
ENDBRANCH   3  14
TORSDOF 2
ENDMDL
MODEL 10
REMARK VINA RESULT:      -7.6      6.870      7.843
REMARK  Name = 44257525
REMARK  2 active torsions:
REMARK  status: ('A' for Active; 'I' for Inactive)
REMARK    1  A    between atoms: O_3  and  C_15
REMARK    2  A    between atoms: C_6  and  C_8
REMARK                            x       y       z     vdW  Elec       q    Type
REMARK                         _______ _______ _______ _____ _____    ______ ____
ROOT
ATOM      1  O   UNL     1     110.793 125.085 135.300  0.00  0.00    +0.000 OA
ATOM      2  O   UNL     1     112.399 123.315 136.964  0.00  0.00    +0.000 OA
ATOM      3  C   UNL     1     110.233 126.281 135.846  0.00  0.00    +0.000 C 
ATOM      4  C   UNL     1     110.344 125.771 135.207  0.00  0.00    +0.000 C 
ATOM      5  C   UNL     1     111.020 125.418 136.670  0.00  0.00    +0.000 A 
ATOM      6  C   UNL     1     110.571 126.104 136.579  0.00  0.00    +0.000 C 
ATOM      7  C   UNL     1     111.131 124.909 136.031  0.00  0.00    +0.000 A 
ATOM      8  C   UNL     1     111.366 125.245 137.438  0.00  0.00    +0.000 A 
ATOM      9  C   UNL     1     111.596 124.191 136.115  0.00  0.00    +0.000 A 
ATOM     10  C   UNL     1     111.950 124.002 136.874  0.00  0.00    +0.000 A 
ATOM     11  C   UNL     1     111.835 124.532 137.540  0.00  0.00    +0.000 A 
ENDROOT
BRANCH   3  14
ATOM     12  O   UNL     1     110.892 127.608 135.120  0.00  0.00    +0.000 OA
ATOM     13  O   UNL     1     108.435 129.024 135.480  0.00  0.00    +0.000 OA
ATOM     14  C   UNL     1     109.784 126.967 135.755  0.00  0.00    +0.000 A 
ATOM     15  C   UNL     1     110.114 127.630 135.392  0.00  0.00    +0.000 A 
ATOM     16  C   UNL     1     109.005 126.989 136.026  0.00  0.00    +0.000 A 
ATOM     17  C   UNL     1     109.664 128.316 135.300  0.00  0.00    +0.000 A 
ATOM     18  C   UNL     1     108.556 127.675 135.935  0.00  0.00    +0.000 A 
ATOM     19  C   UNL     1     108.885 128.338 135.572  0.00  0.00    +0.000 A 
BRANCH  17  20
ATOM     20  O   UNL     1     109.993 128.980 134.937  0.00  0.00    +0.000 OA
ATOM     21  C   UNL     1     110.276 129.603 135.396  0.00  0.00    +0.000 C 
ENDBRANCH  17  20
ENDBRANCH   3  14
TORSDOF 2
ENDMDL
