MODEL 1
REMARK VINA RESULT:     -10.0      0.000      0.000
REMARK  Name = 131752604
REMARK  6 active torsions:
REMARK  status: ('A' for Active; 'I' for Inactive)
REMARK    1  A    between atoms: O_2  and  C_20
REMARK    2  A    between atoms: O_2  and  C_27
REMARK    3  A    between atoms: O_7  and  C_24
REMARK    4  A    between atoms: O_7  and  C_28
REMARK    5  A    between atoms: O_15  and  C_40
REMARK    6  A    between atoms: C_29  and  C_30
REMARK                            x       y       z     vdW  Elec       q    Type
REMARK                         _______ _______ _______ _____ _____    ______ ____
ROOT
ATOM      1  O   UNL     1     111.859 129.325 135.856  0.00  0.00    +0.000 OA
ATOM      2  O   UNL     1     112.323 131.409 137.108  0.00  0.00    +0.000 OA
ATOM      3  O   UNL     1     113.742 131.249 136.904  0.00  0.00    +0.000 OA
ATOM      4  C   UNL     1     111.390 130.458 136.589  0.00  0.00    +0.000 A 
ATOM      5  C   UNL     1     111.236 129.764 136.172  0.00  0.00    +0.000 A 
ATOM      6  C   UNL     1     112.169 130.715 136.690  0.00  0.00    +0.000 A 
ATOM      7  C   UNL     1     112.791 130.276 136.374  0.00  0.00    +0.000 A 
ATOM      8  C   UNL     1     112.636 129.581 135.957  0.00  0.00    +0.000 A 
ATOM      9  C   UNL     1     113.597 130.553 136.486  0.00  0.00    +0.000 A 
ATOM     10  C   UNL     1     113.277 129.116 135.622  0.00  0.00    +0.000 A 
ATOM     11  C   UNL     1     114.089 129.377 135.724  0.00  0.00    +0.000 A 
ATOM     12  C   UNL     1     114.250 130.100 136.159  0.00  0.00    +0.000 A 
ENDROOT
BRANCH   5  15
ATOM     13  O   UNL     1     108.125 128.739 135.769  0.00  0.00    +0.000 OA
ATOM     14  C   UNL     1     109.386 128.634 136.433  0.00  0.00    +0.000 A 
ATOM     15  C   UNL     1     110.458 129.508 136.071  0.00  0.00    +0.000 A 
ATOM     16  C   UNL     1     110.164 128.891 136.533  0.00  0.00    +0.000 A 
ATOM     17  C   UNL     1     108.903 128.996 135.870  0.00  0.00    +0.000 A 
ATOM     18  C   UNL     1     109.974 129.868 135.509  0.00  0.00    +0.000 A 
ATOM     19  C   UNL     1     109.197 129.613 135.408  0.00  0.00    +0.000 A 
BRANCH  14  20
ATOM     20  O   UNL     1     109.092 128.017 136.895  0.00  0.00    +0.000 OA
BRANCH  20  29
ATOM     21  O   UNL     1     109.732 126.910 136.257  0.00  0.00    +0.000 OA
ATOM     22  O   UNL     1     110.302 125.964 138.472  0.00  0.00    +0.000 OA
ATOM     23  O   UNL     1     110.752 125.172 137.097  0.00  0.00    +0.000 OA
ATOM     24  O   UNL     1     109.472 127.387 138.371  0.00  0.00    +0.000 OA
ATOM     25  C   UNL     1     110.112 126.280 137.734  0.00  0.00    +0.000 C 
ATOM     26  C   UNL     1     110.337 125.883 137.045  0.00  0.00    +0.000 C 
ATOM     27  C   UNL     1     109.697 126.991 137.683  0.00  0.00    +0.000 C 
ATOM     28  C   UNL     1     110.147 126.199 136.307  0.00  0.00    +0.000 C 
ATOM     29  C   UNL     1     109.507 127.306 136.944  0.00  0.00    +0.000 C 
ATOM     30  C   UNL     1     110.372 125.803 135.620  0.00  0.00    +0.000 C 
ENDBRANCH  20  29
ENDBRANCH  14  20
ENDBRANCH   5  15
BRANCH  11  31
ATOM     31  O   UNL     1     114.710 128.937 135.407  0.00  0.00    +0.000 OA
ATOM     32  C   UNL     1     114.922 129.033 134.615  0.00  0.00    +0.000 C 
ENDBRANCH  11  31
BRANCH   4  33
ATOM     33  O   UNL     1     110.768 130.897 136.906  0.00  0.00    +0.000 OA
BRANCH  33  41
ATOM     34  O   UNL     1     111.035 130.496 138.250  0.00  0.00    +0.000 OA
ATOM     35  O   UNL     1     110.070 132.620 139.077  0.00  0.00    +0.000 OA
ATOM     36  O   UNL     1     110.125 132.314 137.456  0.00  0.00    +0.000 OA
ATOM     37  O   UNL     1     110.659 131.511 140.147  0.00  0.00    +0.000 OA
ATOM     38  C   UNL     1     110.392 131.912 138.801  0.00  0.00    +0.000 C 
ATOM     39  C   UNL     1     110.419 131.759 137.991  0.00  0.00    +0.000 C 
ATOM     40  C   UNL     1     110.686 131.357 139.336  0.00  0.00    +0.000 C 
ATOM     41  C   UNL     1     110.741 131.051 137.716  0.00  0.00    +0.000 C 
ATOM     42  C   UNL     1     111.007 130.649 139.061  0.00  0.00    +0.000 C 
ENDBRANCH  33  41
ENDBRANCH   4  33
TORSDOF 6
ENDMDL
MODEL 2
REMARK VINA RESULT:     -10.0      1.424      3.896
REMARK  Name = 131752604
REMARK  6 active torsions:
REMARK  status: ('A' for Active; 'I' for Inactive)
REMARK    1  A    between atoms: O_2  and  C_20
REMARK    2  A    between atoms: O_2  and  C_27
REMARK    3  A    between atoms: O_7  and  C_24
REMARK    4  A    between atoms: O_7  and  C_28
REMARK    5  A    between atoms: O_15  and  C_40
REMARK    6  A    between atoms: C_29  and  C_30
REMARK                            x       y       z     vdW  Elec       q    Type
REMARK                         _______ _______ _______ _____ _____    ______ ____
ROOT
ATOM      1  O   UNL     1     111.769 128.901 135.636  0.00  0.00    +0.000 OA
ATOM      2  O   UNL     1     112.846 126.844 136.492  0.00  0.00    +0.000 OA
ATOM      3  O   UNL     1     114.157 127.398 136.256  0.00  0.00    +0.000 OA
ATOM      4  C   UNL     1     111.664 127.586 136.185  0.00  0.00    +0.000 A 
ATOM      5  C   UNL     1     111.305 128.272 135.900  0.00  0.00    +0.000 A 
ATOM      6  C   UNL     1     112.487 127.529 136.206  0.00  0.00    +0.000 A 
ATOM      7  C   UNL     1     112.950 128.159 135.942  0.00  0.00    +0.000 A 
ATOM      8  C   UNL     1     112.591 128.845 135.657  0.00  0.00    +0.000 A 
ATOM      9  C   UNL     1     113.807 128.088 135.969  0.00  0.00    +0.000 A 
ATOM     10  C   UNL     1     113.064 129.507 135.379  0.00  0.00    +0.000 A 
ATOM     11  C   UNL     1     113.921 129.454 135.398  0.00  0.00    +0.000 A 
ATOM     12  C   UNL     1     114.295 128.739 135.695  0.00  0.00    +0.000 A 
ENDROOT
BRANCH   5  15
ATOM     13  O   UNL     1     108.014 128.498 135.816  0.00  0.00    +0.000 OA
ATOM     14  C   UNL     1     109.259 128.800 136.448  0.00  0.00    +0.000 A 
ATOM     15  C   UNL     1     110.483 128.329 135.879  0.00  0.00    +0.000 A 
ATOM     16  C   UNL     1     110.083 128.744 136.469  0.00  0.00    +0.000 A 
ATOM     17  C   UNL     1     108.837 128.442 135.837  0.00  0.00    +0.000 A 
ATOM     18  C   UNL     1     110.059 127.970 135.268  0.00  0.00    +0.000 A 
ATOM     19  C   UNL     1     109.237 128.027 135.247  0.00  0.00    +0.000 A 
BRANCH  14  20
ATOM     20  O   UNL     1     108.859 129.216 137.038  0.00  0.00    +0.000 OA
BRANCH  20  29
ATOM     21  O   UNL     1     109.126 130.543 136.583  0.00  0.00    +0.000 OA
ATOM     22  O   UNL     1     109.531 131.262 138.916  0.00  0.00    +0.000 OA
ATOM     23  O   UNL     1     109.663 132.351 137.683  0.00  0.00    +0.000 OA
ATOM     24  O   UNL     1     109.129 129.695 138.594  0.00  0.00    +0.000 OA
ATOM     25  C   UNL     1     109.396 131.023 138.139  0.00  0.00    +0.000 C 
ATOM     26  C   UNL     1     109.462 131.567 137.521  0.00  0.00    +0.000 C 
ATOM     27  C   UNL     1     109.195 130.239 137.977  0.00  0.00    +0.000 C 
ATOM     28  C   UNL     1     109.327 131.328 136.744  0.00  0.00    +0.000 C 
ATOM     29  C   UNL     1     109.060 130.000 137.199  0.00  0.00    +0.000 C 
ATOM     30  C   UNL     1     109.394 131.871 136.128  0.00  0.00    +0.000 C 
ENDBRANCH  20  29
ENDBRANCH  14  20
ENDBRANCH   5  15
BRANCH  11  31
ATOM     31  O   UNL     1     114.382 130.084 135.134  0.00  0.00    +0.000 OA
ATOM     32  C   UNL     1     114.727 130.600 135.677  0.00  0.00    +0.000 C 
ENDBRANCH  11  31
BRANCH   4  33
ATOM     33  O   UNL     1     111.201 126.957 136.449  0.00  0.00    +0.000 OA
BRANCH  33  41
ATOM     34  O   UNL     1     111.488 127.211 137.825  0.00  0.00    +0.000 OA
ATOM     35  O   UNL     1     111.069 124.829 138.353  0.00  0.00    +0.000 OA
ATOM     36  O   UNL     1     110.921 125.369 136.801  0.00  0.00    +0.000 OA
ATOM     37  O   UNL     1     111.496 125.877 139.554  0.00  0.00    +0.000 OA
ATOM     38  C   UNL     1     111.209 125.623 138.177  0.00  0.00    +0.000 C 
ATOM     39  C   UNL     1     111.135 125.893 137.401  0.00  0.00    +0.000 C 
ATOM     40  C   UNL     1     111.423 126.147 138.778  0.00  0.00    +0.000 C 
ATOM     41  C   UNL     1     111.275 126.687 137.225  0.00  0.00    +0.000 C 
ATOM     42  C   UNL     1     111.562 126.941 138.601  0.00  0.00    +0.000 C 
ENDBRANCH  33  41
ENDBRANCH   4  33
TORSDOF 6
ENDMDL
MODEL 3
REMARK VINA RESULT:      -9.9      1.536      2.355
REMARK  Name = 131752604
REMARK  6 active torsions:
REMARK  status: ('A' for Active; 'I' for Inactive)
REMARK    1  A    between atoms: O_2  and  C_20
REMARK    2  A    between atoms: O_2  and  C_27
REMARK    3  A    between atoms: O_7  and  C_24
REMARK    4  A    between atoms: O_7  and  C_28
REMARK    5  A    between atoms: O_15  and  C_40
REMARK    6  A    between atoms: C_29  and  C_30
REMARK                            x       y       z     vdW  Elec       q    Type
REMARK                         _______ _______ _______ _____ _____    ______ ____
ROOT
ATOM      1  O   UNL     1     112.087 128.515 135.670  0.00  0.00    +0.000 OA
ATOM      2  O   UNL     1     111.038 130.479 136.750  0.00  0.00    +0.000 OA
ATOM      3  O   UNL     1     112.312 131.152 136.826  0.00  0.00    +0.000 OA
ATOM      4  C   UNL     1     110.925 129.174 136.178  0.00  0.00    +0.000 A 
ATOM      5  C   UNL     1     111.275 128.519 135.818  0.00  0.00    +0.000 A 
ATOM      6  C   UNL     1     111.388 129.825 136.390  0.00  0.00    +0.000 A 
ATOM      7  C   UNL     1     112.199 129.819 136.241  0.00  0.00    +0.000 A 
ATOM      8  C   UNL     1     112.549 129.164 135.881  0.00  0.00    +0.000 A 
ATOM      9  C   UNL     1     112.670 130.502 136.466  0.00  0.00    +0.000 A 
ATOM     10  C   UNL     1     113.393 129.147 135.721  0.00  0.00    +0.000 A 
ATOM     11  C   UNL     1     113.879 129.821 135.939  0.00  0.00    +0.000 A 
ATOM     12  C   UNL     1     113.515 130.503 136.314  0.00  0.00    +0.000 A 
ENDROOT
BRANCH   5  15
ATOM     13  O   UNL     1     109.426 125.919 134.973  0.00  0.00    +0.000 OA
ATOM     14  C   UNL     1     110.126 126.669 135.968  0.00  0.00    +0.000 A 
ATOM     15  C   UNL     1     110.813 127.870 135.607  0.00  0.00    +0.000 A 
ATOM     16  C   UNL     1     110.589 127.320 136.179  0.00  0.00    +0.000 A 
ATOM     17  C   UNL     1     109.889 126.570 135.185  0.00  0.00    +0.000 A 
ATOM     18  C   UNL     1     110.575 127.769 134.823  0.00  0.00    +0.000 A 
ATOM     19  C   UNL     1     110.113 127.120 134.612  0.00  0.00    +0.000 A 
BRANCH  14  20
ATOM     20  O   UNL     1     109.902 126.119 136.541  0.00  0.00    +0.000 OA
BRANCH  20  29
ATOM     21  O   UNL     1     111.108 125.358 136.634  0.00  0.00    +0.000 OA
ATOM     22  O   UNL     1     110.935 125.387 139.103  0.00  0.00    +0.000 OA
ATOM     23  O   UNL     1     112.199 124.617 138.374  0.00  0.00    +0.000 OA
ATOM     24  O   UNL     1     109.787 126.138 138.186  0.00  0.00    +0.000 OA
ATOM     25  C   UNL     1     110.993 125.378 138.280  0.00  0.00    +0.000 C 
ATOM     26  C   UNL     1     111.625 124.992 137.915  0.00  0.00    +0.000 C 
ATOM     27  C   UNL     1     110.419 125.753 137.821  0.00  0.00    +0.000 C 
ATOM     28  C   UNL     1     111.683 124.983 137.092  0.00  0.00    +0.000 C 
ATOM     29  C   UNL     1     110.477 125.743 136.998  0.00  0.00    +0.000 C 
ATOM     30  C   UNL     1     112.314 124.598 136.728  0.00  0.00    +0.000 C 
ENDBRANCH  20  29
ENDBRANCH  14  20
ENDBRANCH   5  15
BRANCH  11  31
ATOM     31  O   UNL     1     114.691 129.813 135.790  0.00  0.00    +0.000 OA
ATOM     32  C   UNL     1     115.002 130.273 135.179  0.00  0.00    +0.000 C 
ENDBRANCH  11  31
BRANCH   4  33
ATOM     33  O   UNL     1     110.114 129.180 136.327  0.00  0.00    +0.000 OA
BRANCH  33  41
ATOM     34  O   UNL     1     109.843 130.090 135.260  0.00  0.00    +0.000 OA
ATOM     35  O   UNL     1     107.785 130.833 136.416  0.00  0.00    +0.000 OA
ATOM     36  O   UNL     1     108.742 129.675 137.098  0.00  0.00    +0.000 OA
ATOM     37  O   UNL     1     108.201 131.497 134.964  0.00  0.00    +0.000 OA
ATOM     38  C   UNL     1     108.471 130.585 136.031  0.00  0.00    +0.000 C 
ATOM     39  C   UNL     1     108.950 130.006 136.372  0.00  0.00    +0.000 C 
ATOM     40  C   UNL     1     108.679 130.918 135.304  0.00  0.00    +0.000 C 
ATOM     41  C   UNL     1     109.636 129.759 135.986  0.00  0.00    +0.000 C 
ATOM     42  C   UNL     1     109.365 130.670 134.920  0.00  0.00    +0.000 C 
ENDBRANCH  33  41
ENDBRANCH   4  33
TORSDOF 6
ENDMDL
MODEL 4
REMARK VINA RESULT:      -9.9      2.060      4.459
REMARK  Name = 131752604
REMARK  6 active torsions:
REMARK  status: ('A' for Active; 'I' for Inactive)
REMARK    1  A    between atoms: O_2  and  C_20
REMARK    2  A    between atoms: O_2  and  C_27
REMARK    3  A    between atoms: O_7  and  C_24
REMARK    4  A    between atoms: O_7  and  C_28
REMARK    5  A    between atoms: O_15  and  C_40
REMARK    6  A    between atoms: C_29  and  C_30
REMARK                            x       y       z     vdW  Elec       q    Type
REMARK                         _______ _______ _______ _____ _____    ______ ____
ROOT
ATOM      1  O   UNL     1     112.419 126.670 136.561  0.00  0.00    +0.000 OA
ATOM      2  O   UNL     1     110.470 126.941 135.060  0.00  0.00    +0.000 OA
ATOM      3  O   UNL     1     110.285 125.513 134.996  0.00  0.00    +0.000 OA
ATOM      4  C   UNL     1     111.526 127.516 135.834  0.00  0.00    +0.000 A 
ATOM      5  C   UNL     1     112.176 127.426 136.334  0.00  0.00    +0.000 A 
ATOM      6  C   UNL     1     111.120 126.851 135.560  0.00  0.00    +0.000 A 
ATOM      7  C   UNL     1     111.364 126.097 135.787  0.00  0.00    +0.000 A 
ATOM      8  C   UNL     1     112.014 126.006 136.288  0.00  0.00    +0.000 A 
ATOM      9  C   UNL     1     110.934 125.412 135.496  0.00  0.00    +0.000 A 
ATOM     10  C   UNL     1     112.278 125.225 136.531  0.00  0.00    +0.000 A 
ATOM     11  C   UNL     1     111.859 124.530 136.250  0.00  0.00    +0.000 A 
ATOM     12  C   UNL     1     111.183 124.624 135.729  0.00  0.00    +0.000 A 
ENDROOT
BRANCH   5  15
ATOM     13  O   UNL     1     113.797 130.083 137.428  0.00  0.00    +0.000 OA
ATOM     14  C   UNL     1     112.834 129.049 137.636  0.00  0.00    +0.000 A 
ATOM     15  C   UNL     1     112.581 128.089 136.607  0.00  0.00    +0.000 A 
ATOM     16  C   UNL     1     112.428 128.384 137.362  0.00  0.00    +0.000 A 
ATOM     17  C   UNL     1     113.392 129.418 137.154  0.00  0.00    +0.000 A 
ATOM     18  C   UNL     1     113.139 128.460 136.126  0.00  0.00    +0.000 A 
ATOM     19  C   UNL     1     113.545 129.124 136.399  0.00  0.00    +0.000 A 
BRANCH  14  20
ATOM     20  O   UNL     1     112.681 129.344 138.391  0.00  0.00    +0.000 OA
BRANCH  20  29
ATOM     21  O   UNL     1     113.275 128.315 139.185  0.00  0.00    +0.000 OA
ATOM     22  O   UNL     1     111.295 128.317 140.670  0.00  0.00    +0.000 OA
ATOM     23  O   UNL     1     112.549 127.287 140.969  0.00  0.00    +0.000 OA
ATOM     24  O   UNL     1     111.361 129.345 139.381  0.00  0.00    +0.000 OA
ATOM     25  C   UNL     1     111.955 128.316 140.175  0.00  0.00    +0.000 C 
ATOM     26  C   UNL     1     112.582 127.801 140.324  0.00  0.00    +0.000 C 
ATOM     27  C   UNL     1     111.988 128.830 139.531  0.00  0.00    +0.000 C 
ATOM     28  C   UNL     1     113.242 127.800 139.829  0.00  0.00    +0.000 C 
ATOM     29  C   UNL     1     112.648 128.829 139.036  0.00  0.00    +0.000 C 
ATOM     30  C   UNL     1     113.869 127.285 139.979  0.00  0.00    +0.000 C 
ENDBRANCH  20  29
ENDBRANCH  14  20
ENDBRANCH   5  15
BRANCH  11  31
ATOM     31  O   UNL     1     112.106 123.776 136.478  0.00  0.00    +0.000 OA
ATOM     32  C   UNL     1     111.913 123.489 137.227  0.00  0.00    +0.000 C 
ENDBRANCH  11  31
BRANCH   4  33
ATOM     33  O   UNL     1     111.281 128.270 135.606  0.00  0.00    +0.000 OA
BRANCH  33  41
ATOM     34  O   UNL     1     110.108 128.222 136.419  0.00  0.00    +0.000 OA
ATOM     35  O   UNL     1     109.008 129.864 134.928  0.00  0.00    +0.000 OA
ATOM     36  O   UNL     1     110.549 129.364 134.612  0.00  0.00    +0.000 OA
ATOM     37  O   UNL     1     108.200 129.269 136.238  0.00  0.00    +0.000 OA
ATOM     38  C   UNL     1     109.375 129.317 135.424  0.00  0.00    +0.000 C 
ATOM     39  C   UNL     1     110.145 129.067 135.267  0.00  0.00    +0.000 C 
ATOM     40  C   UNL     1     108.970 129.019 136.080  0.00  0.00    +0.000 C 
ATOM     41  C   UNL     1     110.511 128.520 135.764  0.00  0.00    +0.000 C 
ATOM     42  C   UNL     1     109.337 128.472 136.577  0.00  0.00    +0.000 C 
ENDBRANCH  33  41
ENDBRANCH   4  33
TORSDOF 6
ENDMDL
MODEL 5
REMARK VINA RESULT:      -9.8      2.035      2.628
REMARK  Name = 131752604
REMARK  6 active torsions:
REMARK  status: ('A' for Active; 'I' for Inactive)
REMARK    1  A    between atoms: O_2  and  C_20
REMARK    2  A    between atoms: O_2  and  C_27
REMARK    3  A    between atoms: O_7  and  C_24
REMARK    4  A    between atoms: O_7  and  C_28
REMARK    5  A    between atoms: O_15  and  C_40
REMARK    6  A    between atoms: C_29  and  C_30
REMARK                            x       y       z     vdW  Elec       q    Type
REMARK                         _______ _______ _______ _____ _____    ______ ____
ROOT
ATOM      1  O   UNL     1     113.055 128.822 135.945  0.00  0.00    +0.000 OA
ATOM      2  O   UNL     1     111.637 130.638 136.848  0.00  0.00    +0.000 OA
ATOM      3  O   UNL     1     112.757 131.546 136.858  0.00  0.00    +0.000 OA
ATOM      4  C   UNL     1     111.783 129.289 136.397  0.00  0.00    +0.000 A 
ATOM      5  C   UNL     1     112.256 128.684 136.096  0.00  0.00    +0.000 A 
ATOM      6  C   UNL     1     112.110 130.033 136.547  0.00  0.00    +0.000 A 
ATOM      7  C   UNL     1     112.909 130.169 136.396  0.00  0.00    +0.000 A 
ATOM      8  C   UNL     1     113.382 129.564 136.095  0.00  0.00    +0.000 A 
ATOM      9  C   UNL     1     113.238 130.947 136.557  0.00  0.00    +0.000 A 
ATOM     10  C   UNL     1     114.216 129.694 135.934  0.00  0.00    +0.000 A 
ATOM     11  C   UNL     1     114.562 130.465 136.089  0.00  0.00    +0.000 A 
ATOM     12  C   UNL     1     114.070 131.096 136.402  0.00  0.00    +0.000 A 
ENDROOT
BRANCH   5  15
ATOM     13  O   UNL     1     110.949 125.714 135.495  0.00  0.00    +0.000 OA
ATOM     14  C   UNL     1     111.741 126.574 136.316  0.00  0.00    +0.000 A 
ATOM     15  C   UNL     1     111.929 127.942 135.946  0.00  0.00    +0.000 A 
ATOM     16  C   UNL     1     112.068 127.317 136.466  0.00  0.00    +0.000 A 
ATOM     17  C   UNL     1     111.276 126.457 135.646  0.00  0.00    +0.000 A 
ATOM     18  C   UNL     1     111.463 127.824 135.275  0.00  0.00    +0.000 A 
ATOM     19  C   UNL     1     111.137 127.082 135.125  0.00  0.00    +0.000 A 
BRANCH  14  20
ATOM     20  O   UNL     1     111.880 125.950 136.837  0.00  0.00    +0.000 OA
BRANCH  20  29
ATOM     21  O   UNL     1     113.234 125.596 136.549  0.00  0.00    +0.000 OA
ATOM     22  O   UNL     1     113.776 125.704 138.961  0.00  0.00    +0.000 OA
ATOM     23  O   UNL     1     114.950 125.315 137.869  0.00  0.00    +0.000 OA
ATOM     24  O   UNL     1     112.241 126.022 138.445  0.00  0.00    +0.000 OA
ATOM     25  C   UNL     1     113.596 125.668 138.157  0.00  0.00    +0.000 C 
ATOM     26  C   UNL     1     114.183 125.473 137.610  0.00  0.00    +0.000 C 
ATOM     27  C   UNL     1     112.829 125.827 137.899  0.00  0.00    +0.000 C 
ATOM     28  C   UNL     1     114.002 125.437 136.806  0.00  0.00    +0.000 C 
ATOM     29  C   UNL     1     112.648 125.791 137.094  0.00  0.00    +0.000 C 
ATOM     30  C   UNL     1     114.589 125.243 136.260  0.00  0.00    +0.000 C 
ENDBRANCH  20  29
ENDBRANCH  14  20
ENDBRANCH   5  15
BRANCH  11  31
ATOM     31  O   UNL     1     115.362 130.600 135.937  0.00  0.00    +0.000 OA
ATOM     32  C   UNL     1     115.596 130.919 135.213  0.00  0.00    +0.000 C 
ENDBRANCH  11  31
BRANCH   4  33
ATOM     33  O   UNL     1     110.984 129.153 136.548  0.00  0.00    +0.000 OA
BRANCH  33  41
ATOM     34  O   UNL     1     111.172 129.129 137.963  0.00  0.00    +0.000 OA
ATOM     35  O   UNL     1     108.811 129.798 138.289  0.00  0.00    +0.000 OA
ATOM     36  O   UNL     1     109.410 129.599 136.764  0.00  0.00    +0.000 OA
ATOM     37  O   UNL     1     109.786 129.550 139.597  0.00  0.00    +0.000 OA
ATOM     38  C   UNL     1     109.598 129.575 138.180  0.00  0.00    +0.000 C 
ATOM     39  C   UNL     1     109.897 129.475 137.418  0.00  0.00    +0.000 C 
ATOM     40  C   UNL     1     110.086 129.451 138.835  0.00  0.00    +0.000 C 
ATOM     41  C   UNL     1     110.684 129.252 137.310  0.00  0.00    +0.000 C 
ATOM     42  C   UNL     1     110.872 129.228 138.726  0.00  0.00    +0.000 C 
ENDBRANCH  33  41
ENDBRANCH   4  33
TORSDOF 6
ENDMDL
MODEL 6
REMARK VINA RESULT:      -9.8      1.551      4.560
REMARK  Name = 131752604
REMARK  6 active torsions:
REMARK  status: ('A' for Active; 'I' for Inactive)
REMARK    1  A    between atoms: O_2  and  C_20
REMARK    2  A    between atoms: O_2  and  C_27
REMARK    3  A    between atoms: O_7  and  C_24
REMARK    4  A    between atoms: O_7  and  C_28
REMARK    5  A    between atoms: O_15  and  C_40
REMARK    6  A    between atoms: C_29  and  C_30
REMARK                            x       y       z     vdW  Elec       q    Type
REMARK                         _______ _______ _______ _____ _____    ______ ____
ROOT
ATOM      1  O   UNL     1     112.589 126.738 136.373  0.00  0.00    +0.000 OA
ATOM      2  O   UNL     1     110.395 126.848 135.235  0.00  0.00    +0.000 OA
ATOM      3  O   UNL     1     110.243 125.417 135.327  0.00  0.00    +0.000 OA
ATOM      4  C   UNL     1     111.555 127.503 135.752  0.00  0.00    +0.000 A 
ATOM      5  C   UNL     1     112.287 127.466 136.132  0.00  0.00    +0.000 A 
ATOM      6  C   UNL     1     111.126 126.811 135.614  0.00  0.00    +0.000 A 
ATOM      7  C   UNL     1     111.430 126.084 135.856  0.00  0.00    +0.000 A 
ATOM      8  C   UNL     1     112.161 126.047 136.236  0.00  0.00    +0.000 A 
ATOM      9  C   UNL     1     110.974 125.370 135.707  0.00  0.00    +0.000 A 
ATOM     10  C   UNL     1     112.487 125.294 136.493  0.00  0.00    +0.000 A 
ATOM     11  C   UNL     1     112.046 124.571 136.352  0.00  0.00    +0.000 A 
ATOM     12  C   UNL     1     111.284 124.609 135.957  0.00  0.00    +0.000 A 
ENDROOT
BRANCH   5  15
ATOM     13  O   UNL     1     114.001 130.232 136.682  0.00  0.00    +0.000 OA
ATOM     14  C   UNL     1     113.208 129.149 137.173  0.00  0.00    +0.000 A 
ATOM     15  C   UNL     1     112.715 128.157 136.269  0.00  0.00    +0.000 A 
ATOM     16  C   UNL     1     112.779 128.457 137.035  0.00  0.00    +0.000 A 
ATOM     17  C   UNL     1     113.572 129.540 136.544  0.00  0.00    +0.000 A 
ATOM     18  C   UNL     1     113.080 128.550 135.641  0.00  0.00    +0.000 A 
ATOM     19  C   UNL     1     113.508 129.240 135.778  0.00  0.00    +0.000 A 
BRANCH  14  20
ATOM     20  O   UNL     1     113.273 129.449 137.939  0.00  0.00    +0.000 OA
BRANCH  20  29
ATOM     21  O   UNL     1     112.214 130.408 137.976  0.00  0.00    +0.000 OA
ATOM     22  O   UNL     1     111.418 129.444 140.113  0.00  0.00    +0.000 OA
ATOM     23  O   UNL     1     110.624 130.724 139.438  0.00  0.00    +0.000 OA
ATOM     24  O   UNL     1     112.742 128.807 139.363  0.00  0.00    +0.000 OA
ATOM     25  C   UNL     1     111.683 129.765 139.401  0.00  0.00    +0.000 C 
ATOM     26  C   UNL     1     111.286 130.406 139.063  0.00  0.00    +0.000 C 
ATOM     27  C   UNL     1     112.345 129.447 139.025  0.00  0.00    +0.000 C 
ATOM     28  C   UNL     1     111.551 130.727 138.351  0.00  0.00    +0.000 C 
ATOM     29  C   UNL     1     112.610 129.768 138.313  0.00  0.00    +0.000 C 
ATOM     30  C   UNL     1     111.155 131.366 138.014  0.00  0.00    +0.000 C 
ENDBRANCH  20  29
ENDBRANCH  14  20
ENDBRANCH   5  15
BRANCH  11  31
ATOM     31  O   UNL     1     112.351 123.844 136.595  0.00  0.00    +0.000 OA
ATOM     32  C   UNL     1     111.998 123.436 137.220  0.00  0.00    +0.000 C 
ENDBRANCH  11  31
BRANCH   4  33
ATOM     33  O   UNL     1     111.252 128.231 135.510  0.00  0.00    +0.000 OA
BRANCH  33  41
ATOM     34  O   UNL     1     110.197 128.178 136.471  0.00  0.00    +0.000 OA
ATOM     35  O   UNL     1     108.889 129.792 135.125  0.00  0.00    +0.000 OA
ATOM     36  O   UNL     1     110.380 129.307 134.612  0.00  0.00    +0.000 OA
ATOM     37  O   UNL     1     108.269 129.201 136.536  0.00  0.00    +0.000 OA
ATOM     38  C   UNL     1     109.325 129.254 135.573  0.00  0.00    +0.000 C 
ATOM     39  C   UNL     1     110.071 129.012 135.317  0.00  0.00    +0.000 C 
ATOM     40  C   UNL     1     109.015 128.959 136.279  0.00  0.00    +0.000 C 
ATOM     41  C   UNL     1     110.506 128.474 135.766  0.00  0.00    +0.000 C 
ATOM     42  C   UNL     1     109.451 128.421 136.728  0.00  0.00    +0.000 C 
ENDBRANCH  33  41
ENDBRANCH   4  33
TORSDOF 6
ENDMDL
MODEL 7
REMARK VINA RESULT:      -9.8      1.523      4.325
REMARK  Name = 131752604
REMARK  6 active torsions:
REMARK  status: ('A' for Active; 'I' for Inactive)
REMARK    1  A    between atoms: O_2  and  C_20
REMARK    2  A    between atoms: O_2  and  C_27
REMARK    3  A    between atoms: O_7  and  C_24
REMARK    4  A    between atoms: O_7  and  C_28
REMARK    5  A    between atoms: O_15  and  C_40
REMARK    6  A    between atoms: C_29  and  C_30
REMARK                            x       y       z     vdW  Elec       q    Type
REMARK                         _______ _______ _______ _____ _____    ______ ____
ROOT
ATOM      1  O   UNL     1     112.208 129.498 136.909  0.00  0.00    +0.000 OA
ATOM      2  O   UNL     1     113.070 127.216 136.486  0.00  0.00    +0.000 OA
ATOM      3  O   UNL     1     114.185 127.746 135.739  0.00  0.00    +0.000 OA
ATOM      4  C   UNL     1     112.091 128.082 137.065  0.00  0.00    +0.000 A 
ATOM      5  C   UNL     1     111.804 128.843 137.206  0.00  0.00    +0.000 A 
ATOM      6  C   UNL     1     112.783 127.977 136.627  0.00  0.00    +0.000 A 
ATOM      7  C   UNL     1     113.186 128.632 136.330  0.00  0.00    +0.000 A 
ATOM      8  C   UNL     1     112.899 129.393 136.471  0.00  0.00    +0.000 A 
ATOM      9  C   UNL     1     113.905 128.510 135.875  0.00  0.00    +0.000 A 
ATOM     10  C   UNL     1     113.311 130.083 136.167  0.00  0.00    +0.000 A 
ATOM     11  C   UNL     1     114.030 129.980 135.710  0.00  0.00    +0.000 A 
ATOM     12  C   UNL     1     114.330 129.188 135.563  0.00  0.00    +0.000 A 
ENDROOT
BRANCH   5  15
ATOM     13  O   UNL     1     109.039 129.263 138.959  0.00  0.00    +0.000 OA
ATOM     14  C   UNL     1     109.719 129.256 137.702  0.00  0.00    +0.000 A 
ATOM     15  C   UNL     1     111.113 128.947 137.644  0.00  0.00    +0.000 A 
ATOM     16  C   UNL     1     110.411 129.151 137.263  0.00  0.00    +0.000 A 
ATOM     17  C   UNL     1     109.731 129.158 138.521  0.00  0.00    +0.000 A 
ATOM     18  C   UNL     1     111.125 128.849 138.464  0.00  0.00    +0.000 A 
ATOM     19  C   UNL     1     110.434 128.954 138.901  0.00  0.00    +0.000 A 
BRANCH  14  20
ATOM     20  O   UNL     1     109.016 129.460 137.321  0.00  0.00    +0.000 OA
BRANCH  20  29
ATOM     21  O   UNL     1     109.242 130.866 137.197  0.00  0.00    +0.000 OA
ATOM     22  O   UNL     1     108.311 130.813 134.904  0.00  0.00    +0.000 OA
ATOM     23  O   UNL     1     108.847 132.236 135.545  0.00  0.00    +0.000 OA
ATOM     24  O   UNL     1     108.395 129.425 135.792  0.00  0.00    +0.000 OA
ATOM     25  C   UNL     1     108.621 130.831 135.669  0.00  0.00    +0.000 C 
ATOM     26  C   UNL     1     108.890 131.543 135.989  0.00  0.00    +0.000 C 
ATOM     27  C   UNL     1     108.664 130.137 136.113  0.00  0.00    +0.000 C 
ATOM     28  C   UNL     1     109.200 131.560 136.754  0.00  0.00    +0.000 C 
ATOM     29  C   UNL     1     108.974 130.155 136.877  0.00  0.00    +0.000 C 
ATOM     30  C   UNL     1     109.467 132.271 137.073  0.00  0.00    +0.000 C 
ENDBRANCH  20  29
ENDBRANCH  14  20
ENDBRANCH   5  15
BRANCH  11  31
ATOM     31  O   UNL     1     114.432 130.637 135.414  0.00  0.00    +0.000 OA
ATOM     32  C   UNL     1     115.154 130.863 135.744  0.00  0.00    +0.000 C 
ENDBRANCH  11  31
BRANCH   4  33
ATOM     33  O   UNL     1     111.688 127.427 137.362  0.00  0.00    +0.000 OA
BRANCH  33  41
ATOM     34  O   UNL     1     111.163 127.055 136.087  0.00  0.00    +0.000 OA
ATOM     35  O   UNL     1     111.045 124.695 136.824  0.00  0.00    +0.000 OA
ATOM     36  O   UNL     1     111.609 125.853 137.854  0.00  0.00    +0.000 OA
ATOM     37  O   UNL     1     110.559 125.109 135.302  0.00  0.00    +0.000 OA
ATOM     38  C   UNL     1     111.084 125.481 136.578  0.00  0.00    +0.000 C 
ATOM     39  C   UNL     1     111.367 126.061 137.093  0.00  0.00    +0.000 C 
ATOM     40  C   UNL     1     110.841 125.689 135.817  0.00  0.00    +0.000 C 
ATOM     41  C   UNL     1     111.406 126.847 136.847  0.00  0.00    +0.000 C 
ATOM     42  C   UNL     1     110.881 126.475 135.572  0.00  0.00    +0.000 C 
ENDBRANCH  33  41
ENDBRANCH   4  33
TORSDOF 6
ENDMDL
MODEL 8
REMARK VINA RESULT:      -9.8      2.194      5.106
REMARK  Name = 131752604
REMARK  6 active torsions:
REMARK  status: ('A' for Active; 'I' for Inactive)
REMARK    1  A    between atoms: O_2  and  C_20
REMARK    2  A    between atoms: O_2  and  C_27
REMARK    3  A    between atoms: O_7  and  C_24
REMARK    4  A    between atoms: O_7  and  C_28
REMARK    5  A    between atoms: O_15  and  C_40
REMARK    6  A    between atoms: C_29  and  C_30
REMARK                            x       y       z     vdW  Elec       q    Type
REMARK                         _______ _______ _______ _____ _____    ______ ____
ROOT
ATOM      1  O   UNL     1     111.997 128.278 138.302  0.00  0.00    +0.000 OA
ATOM      2  O   UNL     1     112.951 126.042 138.763  0.00  0.00    +0.000 OA
ATOM      3  O   UNL     1     112.632 126.163 140.164  0.00  0.00    +0.000 OA
ATOM      4  C   UNL     1     112.638 127.088 137.840  0.00  0.00    +0.000 A 
ATOM      5  C   UNL     1     112.319 127.833 137.687  0.00  0.00    +0.000 A 
ATOM      6  C   UNL     1     112.633 126.787 138.609  0.00  0.00    +0.000 A 
ATOM      7  C   UNL     1     112.310 127.233 139.224  0.00  0.00    +0.000 A 
ATOM      8  C   UNL     1     111.992 127.979 139.070  0.00  0.00    +0.000 A 
ATOM      9  C   UNL     1     112.311 126.910 140.020  0.00  0.00    +0.000 A 
ATOM     10  C   UNL     1     111.653 128.452 139.702  0.00  0.00    +0.000 A 
ATOM     11  C   UNL     1     111.645 128.145 140.504  0.00  0.00    +0.000 A 
ATOM     12  C   UNL     1     111.977 127.369 140.664  0.00  0.00    +0.000 A 
ENDROOT
BRANCH   5  15
ATOM     13  O   UNL     1     112.337 129.033 134.612  0.00  0.00    +0.000 OA
ATOM     14  C   UNL     1     111.641 128.408 135.693  0.00  0.00    +0.000 A 
ATOM     15  C   UNL     1     112.324 128.133 136.919  0.00  0.00    +0.000 A 
ATOM     16  C   UNL     1     111.637 128.108 136.462  0.00  0.00    +0.000 A 
ATOM     17  C   UNL     1     112.333 128.733 135.381  0.00  0.00    +0.000 A 
ATOM     18  C   UNL     1     113.015 128.458 136.606  0.00  0.00    +0.000 A 
ATOM     19  C   UNL     1     113.019 128.758 135.838  0.00  0.00    +0.000 A 
BRANCH  14  20
ATOM     20  O   UNL     1     110.955 128.382 135.236  0.00  0.00    +0.000 OA
BRANCH  20  29
ATOM     21  O   UNL     1     110.241 129.462 135.842  0.00  0.00    +0.000 OA
ATOM     22  O   UNL     1     108.164 128.118 135.792  0.00  0.00    +0.000 OA
ATOM     23  O   UNL     1     108.143 129.646 136.415  0.00  0.00    +0.000 OA
ATOM     24  O   UNL     1     109.570 127.486 135.203  0.00  0.00    +0.000 OA
ATOM     25  C   UNL     1     108.856 128.566 135.809  0.00  0.00    +0.000 C 
ATOM     26  C   UNL     1     108.846 129.330 136.120  0.00  0.00    +0.000 C 
ATOM     27  C   UNL     1     109.560 128.251 135.515  0.00  0.00    +0.000 C 
ATOM     28  C   UNL     1     109.539 129.779 136.137  0.00  0.00    +0.000 C 
ATOM     29  C   UNL     1     110.252 128.699 135.531  0.00  0.00    +0.000 C 
ATOM     30  C   UNL     1     109.528 130.542 136.448  0.00  0.00    +0.000 C 
ENDBRANCH  20  29
ENDBRANCH  14  20
ENDBRANCH   5  15
BRANCH  11  31
ATOM     31  O   UNL     1     111.322 128.593 141.117  0.00  0.00    +0.000 OA
ATOM     32  C   UNL     1     111.810 129.067 141.584  0.00  0.00    +0.000 C 
ENDBRANCH  11  31
BRANCH   4  33
ATOM     33  O   UNL     1     112.960 126.642 137.226  0.00  0.00    +0.000 OA
BRANCH  33  41
ATOM     34  O   UNL     1     111.866 125.725 137.191  0.00  0.00    +0.000 OA
ATOM     35  O   UNL     1     113.364 123.969 136.299  0.00  0.00    +0.000 OA
ATOM     36  O   UNL     1     113.960 125.472 136.631  0.00  0.00    +0.000 OA
ATOM     37  O   UNL     1     111.769 123.637 136.562  0.00  0.00    +0.000 OA
ATOM     38  C   UNL     1     112.865 124.555 136.596  0.00  0.00    +0.000 C 
ATOM     39  C   UNL     1     113.163 125.306 136.762  0.00  0.00    +0.000 C 
ATOM     40  C   UNL     1     112.067 124.388 136.728  0.00  0.00    +0.000 C 
ATOM     41  C   UNL     1     112.663 125.891 137.060  0.00  0.00    +0.000 C 
ATOM     42  C   UNL     1     111.568 124.974 137.026  0.00  0.00    +0.000 C 
ENDBRANCH  33  41
ENDBRANCH   4  33
TORSDOF 6
ENDMDL
MODEL 9
REMARK VINA RESULT:      -9.7      2.690      5.381
REMARK  Name = 131752604
REMARK  6 active torsions:
REMARK  status: ('A' for Active; 'I' for Inactive)
REMARK    1  A    between atoms: O_2  and  C_20
REMARK    2  A    between atoms: O_2  and  C_27
REMARK    3  A    between atoms: O_7  and  C_24
REMARK    4  A    between atoms: O_7  and  C_28
REMARK    5  A    between atoms: O_15  and  C_40
REMARK    6  A    between atoms: C_29  and  C_30
REMARK                            x       y       z     vdW  Elec       q    Type
REMARK                         _______ _______ _______ _____ _____    ______ ____
ROOT
ATOM      1  O   UNL     1     113.772 126.208 138.507  0.00  0.00    +0.000 OA
ATOM      2  O   UNL     1     111.697 124.989 137.931  0.00  0.00    +0.000 OA
ATOM      3  O   UNL     1     112.363 124.311 136.845  0.00  0.00    +0.000 OA
ATOM      4  C   UNL     1     112.393 125.928 138.754  0.00  0.00    +0.000 A 
ATOM      5  C   UNL     1     113.085 126.334 138.946  0.00  0.00    +0.000 A 
ATOM      6  C   UNL     1     112.389 125.395 138.123  0.00  0.00    +0.000 A 
ATOM      7  C   UNL     1     113.076 125.270 137.685  0.00  0.00    +0.000 A 
ATOM      8  C   UNL     1     113.768 125.676 137.877  0.00  0.00    +0.000 A 
ATOM      9  C   UNL     1     113.059 124.713 137.030  0.00  0.00    +0.000 A 
ATOM     10  C   UNL     1     114.491 125.554 137.428  0.00  0.00    +0.000 A 
ATOM     11  C   UNL     1     114.492 125.001 136.771  0.00  0.00    +0.000 A 
ATOM     12  C   UNL     1     113.772 124.578 136.570  0.00  0.00    +0.000 A 
ENDROOT
BRANCH   5  15
ATOM     13  O   UNL     1     113.101 128.462 141.468  0.00  0.00    +0.000 OA
ATOM     14  C   UNL     1     113.180 128.206 140.065  0.00  0.00    +0.000 A 
ATOM     15  C   UNL     1     113.089 126.865 139.576  0.00  0.00    +0.000 A 
ATOM     16  C   UNL     1     113.176 127.673 139.434  0.00  0.00    +0.000 A 
ATOM     17  C   UNL     1     113.097 127.930 140.837  0.00  0.00    +0.000 A 
ATOM     18  C   UNL     1     113.006 126.590 140.350  0.00  0.00    +0.000 A 
ATOM     19  C   UNL     1     113.010 127.122 140.980  0.00  0.00    +0.000 A 
BRANCH  14  20
ATOM     20  O   UNL     1     113.267 129.014 139.922  0.00  0.00    +0.000 OA
BRANCH  20  29
ATOM     21  O   UNL     1     111.906 129.440 139.844  0.00  0.00    +0.000 OA
ATOM     22  O   UNL     1     112.408 130.663 137.752  0.00  0.00    +0.000 OA
ATOM     23  O   UNL     1     110.879 130.682 138.371  0.00  0.00    +0.000 OA
ATOM     24  O   UNL     1     113.602 129.829 138.527  0.00  0.00    +0.000 OA
ATOM     25  C   UNL     1     112.241 130.255 138.449  0.00  0.00    +0.000 C 
ATOM     26  C   UNL     1     111.475 130.265 138.759  0.00  0.00    +0.000 C 
ATOM     27  C   UNL     1     112.837 129.838 138.837  0.00  0.00    +0.000 C 
ATOM     28  C   UNL     1     111.308 129.857 139.457  0.00  0.00    +0.000 C 
ATOM     29  C   UNL     1     112.670 129.431 139.535  0.00  0.00    +0.000 C 
ATOM     30  C   UNL     1     110.544 129.866 139.766  0.00  0.00    +0.000 C 
ENDBRANCH  20  29
ENDBRANCH  14  20
ENDBRANCH   5  15
BRANCH  11  31
ATOM     31  O   UNL     1     115.181 124.877 136.334  0.00  0.00    +0.000 OA
ATOM     32  C   UNL     1     115.370 125.382 135.709  0.00  0.00    +0.000 C 
ENDBRANCH  11  31
BRANCH   4  33
ATOM     33  O   UNL     1     111.705 126.053 139.192  0.00  0.00    +0.000 OA
BRANCH  33  41
ATOM     34  O   UNL     1     111.052 126.722 138.112  0.00  0.00    +0.000 OA
ATOM     35  O   UNL     1     108.851 126.137 139.079  0.00  0.00    +0.000 OA
ATOM     36  O   UNL     1     110.238 125.663 139.837  0.00  0.00    +0.000 OA
ATOM     37  O   UNL     1     108.931 127.001 137.676  0.00  0.00    +0.000 OA
ATOM     38  C   UNL     1     109.585 126.331 138.757  0.00  0.00    +0.000 C 
ATOM     39  C   UNL     1     110.278 126.094 139.136  0.00  0.00    +0.000 C 
ATOM     40  C   UNL     1     109.625 126.764 138.055  0.00  0.00    +0.000 C 
ATOM     41  C   UNL     1     111.012 126.290 138.813  0.00  0.00    +0.000 C 
ATOM     42  C   UNL     1     110.359 126.959 137.733  0.00  0.00    +0.000 C 
ENDBRANCH  33  41
ENDBRANCH   4  33
TORSDOF 6
ENDMDL
MODEL 10
REMARK VINA RESULT:      -9.7      2.981      4.918
REMARK  Name = 131752604
REMARK  6 active torsions:
REMARK  status: ('A' for Active; 'I' for Inactive)
REMARK    1  A    between atoms: O_2  and  C_20
REMARK    2  A    between atoms: O_2  and  C_27
REMARK    3  A    between atoms: O_7  and  C_24
REMARK    4  A    between atoms: O_7  and  C_28
REMARK    5  A    between atoms: O_15  and  C_40
REMARK    6  A    between atoms: C_29  and  C_30
REMARK                            x       y       z     vdW  Elec       q    Type
REMARK                         _______ _______ _______ _____ _____    ______ ____
ROOT
ATOM      1  O   UNL     1     113.644 128.536 139.584  0.00  0.00    +0.000 OA
ATOM      2  O   UNL     1     112.281 128.244 141.629  0.00  0.00    +0.000 OA
ATOM      3  O   UNL     1     112.701 129.531 142.127  0.00  0.00    +0.000 OA
ATOM      4  C   UNL     1     112.747 127.750 140.371  0.00  0.00    +0.000 A 
ATOM      5  C   UNL     1     113.201 127.848 139.689  0.00  0.00    +0.000 A 
ATOM      6  C   UNL     1     112.735 128.341 140.947  0.00  0.00    +0.000 A 
ATOM      7  C   UNL     1     113.178 129.029 140.841  0.00  0.00    +0.000 A 
ATOM      8  C   UNL     1     113.633 129.126 140.159  0.00  0.00    +0.000 A 
ATOM      9  C   UNL     1     113.158 129.637 141.448  0.00  0.00    +0.000 A 
ATOM     10  C   UNL     1     114.098 129.839 140.038  0.00  0.00    +0.000 A 
ATOM     11  C   UNL     1     114.090 130.457 140.634  0.00  0.00    +0.000 A 
ATOM     12  C   UNL     1     113.617 130.356 141.344  0.00  0.00    +0.000 A 
ENDROOT
BRANCH   5  15
ATOM     13  O   UNL     1     113.247 125.485 137.386  0.00  0.00    +0.000 OA
ATOM     14  C   UNL     1     112.781 126.755 137.847  0.00  0.00    +0.000 A 
ATOM     15  C   UNL     1     113.213 127.258 139.114  0.00  0.00    +0.000 A 
ATOM     16  C   UNL     1     112.769 127.346 138.424  0.00  0.00    +0.000 A 
ATOM     17  C   UNL     1     113.235 126.076 137.962  0.00  0.00    +0.000 A 
ATOM     18  C   UNL     1     113.667 126.578 139.227  0.00  0.00    +0.000 A 
ATOM     19  C   UNL     1     113.679 125.988 138.652  0.00  0.00    +0.000 A 
BRANCH  14  20
ATOM     20  O   UNL     1     112.337 126.843 137.157  0.00  0.00    +0.000 OA
BRANCH  20  29
ATOM     21  O   UNL     1     113.194 127.732 136.438  0.00  0.00    +0.000 OA
ATOM     22  O   UNL     1     111.229 129.078 135.762  0.00  0.00    +0.000 OA
ATOM     23  O   UNL     1     112.741 129.519 135.268  0.00  0.00    +0.000 OA
ATOM     24  O   UNL     1     111.027 127.740 136.707  0.00  0.00    +0.000 OA
ATOM     25  C   UNL     1     111.884 128.629 135.988  0.00  0.00    +0.000 C 
ATOM     26  C   UNL     1     112.640 128.850 135.741  0.00  0.00    +0.000 C 
ATOM     27  C   UNL     1     111.784 127.960 136.460  0.00  0.00    +0.000 C 
ATOM     28  C   UNL     1     113.295 128.401 135.966  0.00  0.00    +0.000 C 
ATOM     29  C   UNL     1     112.439 127.512 136.685  0.00  0.00    +0.000 C 
ATOM     30  C   UNL     1     114.050 128.622 135.719  0.00  0.00    +0.000 C 
ENDBRANCH  20  29
ENDBRANCH  14  20
ENDBRANCH   5  15
BRANCH  11  31
ATOM     31  O   UNL     1     114.534 131.144 140.526  0.00  0.00    +0.000 OA
ATOM     32  C   UNL     1     115.294 131.199 140.843  0.00  0.00    +0.000 C 
ENDBRANCH  11  31
BRANCH   4  33
ATOM     33  O   UNL     1     112.304 127.063 140.477  0.00  0.00    +0.000 OA
BRANCH  33  41
ATOM     34  O   UNL     1     111.060 127.715 140.218  0.00  0.00    +0.000 OA
ATOM     35  O   UNL     1     109.890 126.039 141.614  0.00  0.00    +0.000 OA
ATOM     36  O   UNL     1     111.524 125.946 141.408  0.00  0.00    +0.000 OA
ATOM     37  O   UNL     1     109.035 127.250 140.889  0.00  0.00    +0.000 OA
ATOM     38  C   UNL     1     110.280 126.597 141.149  0.00  0.00    +0.000 C 
ATOM     39  C   UNL     1     111.097 126.551 141.046  0.00  0.00    +0.000 C 
ATOM     40  C   UNL     1     109.852 127.203 140.786  0.00  0.00    +0.000 C 
ATOM     41  C   UNL     1     111.487 127.110 140.580  0.00  0.00    +0.000 C 
ATOM     42  C   UNL     1     110.243 127.761 140.321  0.00  0.00    +0.000 C 
ENDBRANCH  33  41
ENDBRANCH   4  33
TORSDOF 6
ENDMDL
