MODEL 1
REMARK VINA RESULT:      -8.2      0.000      0.000
REMARK  Name = 10333337
REMARK  2 active torsions:
REMARK  status: ('A' for Active; 'I' for Inactive)
REMARK    1  A    between atoms: O_2  and  C_10
REMARK    2  A    between atoms: C_5  and  C_9
REMARK                            x       y       z     vdW  Elec       q    Type
REMARK                         _______ _______ _______ _____ _____    ______ ____
ROOT
ATOM      1  O   UNL     1     105.465 124.320 147.264  0.00  0.00    +0.000 OA
ATOM      2  O   UNL     1     103.295 123.492 145.559  0.00  0.00    +0.000 OA
ATOM      3  C   UNL     1     105.172 125.056 148.520  0.00  0.00    +0.000 C 
ATOM      4  C   UNL     1     105.741 124.709 147.978  0.00  0.00    +0.000 C 
ATOM      5  C   UNL     1     104.333 125.010 148.340  0.00  0.00    +0.000 C 
ATOM      6  C   UNL     1     104.075 124.616 147.621  0.00  0.00    +0.000 A 
ATOM      7  C   UNL     1     104.621 124.283 147.101  0.00  0.00    +0.000 A 
ATOM      8  C   UNL     1     103.268 124.575 147.453  0.00  0.00    +0.000 A 
ATOM      9  C   UNL     1     103.008 124.200 146.766  0.00  0.00    +0.000 A 
ATOM     10  C   UNL     1     104.362 123.908 146.413  0.00  0.00    +0.000 A 
ATOM     11  C   UNL     1     103.554 123.867 146.246  0.00  0.00    +0.000 A 
ATOM     12  C   UNL     1     102.202 124.159 146.599  0.00  0.00    +0.000 C 
ENDROOT
BRANCH   4  13
ATOM     13  C   UNL     1     106.549 124.748 148.142  0.00  0.00    +0.000 A 
ATOM     14  C   UNL     1     107.055 125.153 147.632  0.00  0.00    +0.000 A 
ATOM     15  C   UNL     1     106.851 124.383 148.818  0.00  0.00    +0.000 A 
ATOM     16  C   UNL     1     107.863 125.192 147.796  0.00  0.00    +0.000 A 
ATOM     17  C   UNL     1     107.658 124.422 148.983  0.00  0.00    +0.000 A 
ATOM     18  C   UNL     1     108.164 124.827 148.472  0.00  0.00    +0.000 A 
ENDBRANCH   4  13
BRANCH   8  19
ATOM     19  O   UNL     1     102.722 124.908 147.974  0.00  0.00    +0.000 OA
ATOM     20  C   UNL     1     102.201 124.423 148.392  0.00  0.00    +0.000 C 
ENDBRANCH   8  19
TORSDOF 2
ENDMDL
MODEL 2
REMARK VINA RESULT:      -8.0     13.369     13.787
REMARK  Name = 10333337
REMARK  2 active torsions:
REMARK  status: ('A' for Active; 'I' for Inactive)
REMARK    1  A    between atoms: O_2  and  C_10
REMARK    2  A    between atoms: C_5  and  C_9
REMARK                            x       y       z     vdW  Elec       q    Type
REMARK                         _______ _______ _______ _____ _____    ______ ____
ROOT
ATOM      1  O   UNL     1     112.223 125.596 136.150  0.00  0.00    +0.000 OA
ATOM      2  O   UNL     1     109.648 125.490 134.863  0.00  0.00    +0.000 OA
ATOM      3  C   UNL     1     112.841 126.913 136.451  0.00  0.00    +0.000 C 
ATOM      4  C   UNL     1     112.874 126.055 136.473  0.00  0.00    +0.000 C 
ATOM      5  C   UNL     1     112.156 127.301 136.106  0.00  0.00    +0.000 C 
ATOM      6  C   UNL     1     111.514 126.826 135.788  0.00  0.00    +0.000 A 
ATOM      7  C   UNL     1     111.547 126.002 135.809  0.00  0.00    +0.000 A 
ATOM      8  C   UNL     1     110.860 127.205 135.458  0.00  0.00    +0.000 A 
ATOM      9  C   UNL     1     110.237 126.760 135.150  0.00  0.00    +0.000 A 
ATOM     10  C   UNL     1     110.925 125.557 135.501  0.00  0.00    +0.000 A 
ATOM     11  C   UNL     1     110.270 125.936 135.171  0.00  0.00    +0.000 A 
ATOM     12  C   UNL     1     109.583 127.138 134.820  0.00  0.00    +0.000 C 
ENDROOT
BRANCH   4  13
ATOM     13  C   UNL     1     113.528 125.673 136.802  0.00  0.00    +0.000 A 
ATOM     14  C   UNL     1     114.093 125.325 136.312  0.00  0.00    +0.000 A 
ATOM     15  C   UNL     1     113.615 125.638 137.622  0.00  0.00    +0.000 A 
ATOM     16  C   UNL     1     114.746 124.943 136.642  0.00  0.00    +0.000 A 
ATOM     17  C   UNL     1     114.268 125.257 137.951  0.00  0.00    +0.000 A 
ATOM     18  C   UNL     1     114.833 124.909 137.461  0.00  0.00    +0.000 A 
ENDBRANCH   4  13
BRANCH   8  19
ATOM     19  O   UNL     1     110.828 128.029 135.437  0.00  0.00    +0.000 OA
ATOM     20  C   UNL     1     110.853 128.424 134.713  0.00  0.00    +0.000 C 
ENDBRANCH   8  19
TORSDOF 2
ENDMDL
MODEL 3
REMARK VINA RESULT:      -7.9      2.402      3.076
REMARK  Name = 10333337
REMARK  2 active torsions:
REMARK  status: ('A' for Active; 'I' for Inactive)
REMARK    1  A    between atoms: O_2  and  C_10
REMARK    2  A    between atoms: C_5  and  C_9
REMARK                            x       y       z     vdW  Elec       q    Type
REMARK                         _______ _______ _______ _____ _____    ______ ____
ROOT
ATOM      1  O   UNL     1     106.534 124.873 146.830  0.00  0.00    +0.000 OA
ATOM      2  O   UNL     1     105.460 124.723 144.161  0.00  0.00    +0.000 OA
ATOM      3  C   UNL     1     107.044 126.168 147.345  0.00  0.00    +0.000 C 
ATOM      4  C   UNL     1     106.890 125.332 147.463  0.00  0.00    +0.000 C 
ATOM      5  C   UNL     1     106.840 126.536 146.596  0.00  0.00    +0.000 C 
ATOM      6  C   UNL     1     106.485 126.061 145.974  0.00  0.00    +0.000 A 
ATOM      7  C   UNL     1     106.337 125.257 146.087  0.00  0.00    +0.000 A 
ATOM      8  C   UNL     1     106.291 126.418 145.257  0.00  0.00    +0.000 A 
ATOM      9  C   UNL     1     105.949 125.973 144.652  0.00  0.00    +0.000 A 
ATOM     10  C   UNL     1     105.995 124.811 145.483  0.00  0.00    +0.000 A 
ATOM     11  C   UNL     1     105.801 125.169 144.765  0.00  0.00    +0.000 A 
ATOM     12  C   UNL     1     105.756 126.330 143.935  0.00  0.00    +0.000 C 
ENDROOT
BRANCH   4  13
ATOM     13  C   UNL     1     107.083 124.970 148.180  0.00  0.00    +0.000 A 
ATOM     14  C   UNL     1     106.486 124.753 148.706  0.00  0.00    +0.000 A 
ATOM     15  C   UNL     1     107.873 124.826 148.369  0.00  0.00    +0.000 A 
ATOM     16  C   UNL     1     106.680 124.391 149.422  0.00  0.00    +0.000 A 
ATOM     17  C   UNL     1     108.066 124.465 149.085  0.00  0.00    +0.000 A 
ATOM     18  C   UNL     1     107.470 124.248 149.612  0.00  0.00    +0.000 A 
ENDBRANCH   4  13
BRANCH   8  19
ATOM     19  O   UNL     1     106.439 127.222 145.143  0.00  0.00    +0.000 OA
ATOM     20  C   UNL     1     105.810 127.749 145.057  0.00  0.00    +0.000 C 
ENDBRANCH   8  19
TORSDOF 2
ENDMDL
MODEL 4
REMARK VINA RESULT:      -7.9     12.954     14.375
REMARK  Name = 10333337
REMARK  2 active torsions:
REMARK  status: ('A' for Active; 'I' for Inactive)
REMARK    1  A    between atoms: O_2  and  C_10
REMARK    2  A    between atoms: C_5  and  C_9
REMARK                            x       y       z     vdW  Elec       q    Type
REMARK                         _______ _______ _______ _____ _____    ______ ____
ROOT
ATOM      1  O   UNL     1     113.975 127.050 136.597  0.00  0.00    +0.000 OA
ATOM      2  O   UNL     1     114.585 124.329 137.321  0.00  0.00    +0.000 OA
ATOM      3  C   UNL     1     112.610 127.397 136.130  0.00  0.00    +0.000 C 
ATOM      4  C   UNL     1     113.414 127.636 136.316  0.00  0.00    +0.000 C 
ATOM      5  C   UNL     1     112.378 126.576 136.228  0.00  0.00    +0.000 C 
ATOM      6  C   UNL     1     112.953 126.003 136.510  0.00  0.00    +0.000 A 
ATOM      7  C   UNL     1     113.726 126.232 136.689  0.00  0.00    +0.000 A 
ATOM      8  C   UNL     1     112.725 125.216 136.602  0.00  0.00    +0.000 A 
ATOM      9  C   UNL     1     113.269 124.657 136.872  0.00  0.00    +0.000 A 
ATOM     10  C   UNL     1     114.270 125.674 136.959  0.00  0.00    +0.000 A 
ATOM     11  C   UNL     1     114.041 124.886 137.051  0.00  0.00    +0.000 A 
ATOM     12  C   UNL     1     113.041 123.871 136.964  0.00  0.00    +0.000 C 
ENDROOT
BRANCH   4  13
ATOM     13  C   UNL     1     113.646 128.423 136.225  0.00  0.00    +0.000 A 
ATOM     14  C   UNL     1     113.455 128.979 136.804  0.00  0.00    +0.000 A 
ATOM     15  C   UNL     1     114.069 128.653 135.556  0.00  0.00    +0.000 A 
ATOM     16  C   UNL     1     113.687 129.765 136.713  0.00  0.00    +0.000 A 
ATOM     17  C   UNL     1     114.301 129.439 135.464  0.00  0.00    +0.000 A 
ATOM     18  C   UNL     1     114.110 129.995 136.043  0.00  0.00    +0.000 A 
ENDBRANCH   4  13
BRANCH   8  19
ATOM     19  O   UNL     1     111.953 124.987 136.423  0.00  0.00    +0.000 OA
ATOM     20  C   UNL     1     111.450 124.729 137.024  0.00  0.00    +0.000 C 
ENDBRANCH   8  19
TORSDOF 2
ENDMDL
MODEL 5
REMARK VINA RESULT:      -7.8      1.153      4.110
REMARK  Name = 10333337
REMARK  2 active torsions:
REMARK  status: ('A' for Active; 'I' for Inactive)
REMARK    1  A    between atoms: O_2  and  C_10
REMARK    2  A    between atoms: C_5  and  C_9
REMARK                            x       y       z     vdW  Elec       q    Type
REMARK                         _______ _______ _______ _____ _____    ______ ____
ROOT
ATOM      1  O   UNL     1     104.057 124.347 146.035  0.00  0.00    +0.000 OA
ATOM      2  O   UNL     1     106.689 125.302 145.357  0.00  0.00    +0.000 OA
ATOM      3  C   UNL     1     103.677 124.192 147.462  0.00  0.00    +0.000 C 
ATOM      4  C   UNL     1     103.476 124.130 146.629  0.00  0.00    +0.000 C 
ATOM      5  C   UNL     1     104.457 124.470 147.690  0.00  0.00    +0.000 C 
ATOM      6  C   UNL     1     105.026 124.683 147.082  0.00  0.00    +0.000 A 
ATOM      7  C   UNL     1     104.833 124.623 146.282  0.00  0.00    +0.000 A 
ATOM      8  C   UNL     1     105.774 124.949 147.307  0.00  0.00    +0.000 A 
ATOM      9  C   UNL     1     106.329 125.155 146.732  0.00  0.00    +0.000 A 
ATOM     10  C   UNL     1     105.387 124.830 145.707  0.00  0.00    +0.000 A 
ATOM     11  C   UNL     1     106.135 125.096 145.932  0.00  0.00    +0.000 A 
ATOM     12  C   UNL     1     107.076 125.421 146.957  0.00  0.00    +0.000 C 
ENDROOT
BRANCH   4  13
ATOM     13  C   UNL     1     102.729 123.864 146.400  0.00  0.00    +0.000 A 
ATOM     14  C   UNL     1     102.055 124.289 146.616  0.00  0.00    +0.000 A 
ATOM     15  C   UNL     1     102.656 123.173 145.956  0.00  0.00    +0.000 A 
ATOM     16  C   UNL     1     101.308 124.022 146.387  0.00  0.00    +0.000 A 
ATOM     17  C   UNL     1     101.909 122.907 145.727  0.00  0.00    +0.000 A 
ATOM     18  C   UNL     1     101.236 123.331 145.943  0.00  0.00    +0.000 A 
ENDBRANCH   4  13
BRANCH   8  19
ATOM     19  O   UNL     1     105.967 125.008 148.106  0.00  0.00    +0.000 OA
ATOM     20  C   UNL     1     106.542 124.512 148.430  0.00  0.00    +0.000 C 
ENDBRANCH   8  19
TORSDOF 2
ENDMDL
MODEL 6
REMARK VINA RESULT:      -7.6     13.579     14.656
REMARK  Name = 10333337
REMARK  2 active torsions:
REMARK  status: ('A' for Active; 'I' for Inactive)
REMARK    1  A    between atoms: O_2  and  C_10
REMARK    2  A    between atoms: C_5  and  C_9
REMARK                            x       y       z     vdW  Elec       q    Type
REMARK                         _______ _______ _______ _____ _____    ______ ____
ROOT
ATOM      1  O   UNL     1     113.917 127.136 136.225  0.00  0.00    +0.000 OA
ATOM      2  O   UNL     1     114.489 129.658 134.955  0.00  0.00    +0.000 OA
ATOM      3  C   UNL     1     113.151 127.111 137.496  0.00  0.00    +0.000 C 
ATOM      4  C   UNL     1     113.562 126.692 136.869  0.00  0.00    +0.000 C 
ATOM      5  C   UNL     1     113.100 127.968 137.471  0.00  0.00    +0.000 C 
ATOM      6  C   UNL     1     113.461 128.396 136.819  0.00  0.00    +0.000 A 
ATOM      7  C   UNL     1     113.856 127.993 136.216  0.00  0.00    +0.000 A 
ATOM      8  C   UNL     1     113.409 129.218 136.800  0.00  0.00    +0.000 A 
ATOM      9  C   UNL     1     113.751 129.640 136.179  0.00  0.00    +0.000 A 
ATOM     10  C   UNL     1     114.198 128.414 135.595  0.00  0.00    +0.000 A 
ATOM     11  C   UNL     1     114.146 129.238 135.576  0.00  0.00    +0.000 A 
ATOM     12  C   UNL     1     113.699 130.462 136.160  0.00  0.00    +0.000 C 
ENDROOT
BRANCH   4  13
ATOM     13  C   UNL     1     113.616 125.869 136.884  0.00  0.00    +0.000 A 
ATOM     14  C   UNL     1     113.012 125.409 136.561  0.00  0.00    +0.000 A 
ATOM     15  C   UNL     1     114.274 125.506 137.224  0.00  0.00    +0.000 A 
ATOM     16  C   UNL     1     113.067 124.586 136.576  0.00  0.00    +0.000 A 
ATOM     17  C   UNL     1     114.329 124.683 137.240  0.00  0.00    +0.000 A 
ATOM     18  C   UNL     1     113.726 124.223 136.916  0.00  0.00    +0.000 A 
ENDBRANCH   4  13
BRANCH   8  19
ATOM     19  O   UNL     1     113.014 129.620 137.402  0.00  0.00    +0.000 OA
ATOM     20  C   UNL     1     113.435 130.110 137.917  0.00  0.00    +0.000 C 
ENDBRANCH   8  19
TORSDOF 2
ENDMDL
