MODEL 1
REMARK VINA RESULT:      -9.0      0.000      0.000
REMARK  Name = 44259818
REMARK  7 active torsions:
REMARK  status: ('A' for Active; 'I' for Inactive)
REMARK    1  A    between atoms: O_2  and  C_18
REMARK    2  A    between atoms: O_2  and  C_20
REMARK    3  A    between atoms: O_8  and  C_22
REMARK    4  A    between atoms: O_10  and  C_27
REMARK    5  A    between atoms: O_12  and  C_33
REMARK    6  A    between atoms: C_17  and  C_19
REMARK    7  A    between atoms: C_28  and  C_29
REMARK                            x       y       z     vdW  Elec       q    Type
REMARK                         _______ _______ _______ _____ _____    ______ ____
ROOT
ATOM      1  O   UNL     1     113.680 127.210 136.197  0.00  0.00    +0.000 OA
ATOM      2  O   UNL     1     114.601 129.622 134.849  0.00  0.00    +0.000 OA
ATOM      3  O   UNL     1     112.755 128.575 138.043  0.00  0.00    +0.000 OA
ATOM      4  C   UNL     1     113.508 129.344 136.785  0.00  0.00    +0.000 A 
ATOM      5  C   UNL     1     113.442 128.487 136.793  0.00  0.00    +0.000 A 
ATOM      6  C   UNL     1     113.901 129.732 136.126  0.00  0.00    +0.000 A 
ATOM      7  C   UNL     1     113.751 128.032 136.177  0.00  0.00    +0.000 A 
ATOM      8  C   UNL     1     113.064 128.120 137.428  0.00  0.00    +0.000 A 
ATOM      9  C   UNL     1     114.222 129.258 135.486  0.00  0.00    +0.000 A 
ATOM     10  C   UNL     1     114.146 128.403 135.512  0.00  0.00    +0.000 A 
ATOM     11  C   UNL     1     112.994 127.298 137.448  0.00  0.00    +0.000 A 
ATOM     12  C   UNL     1     113.302 126.844 136.832  0.00  0.00    +0.000 A 
ENDROOT
BRANCH  12  14
ATOM     13  O   UNL     1     113.024 123.556 136.912  0.00  0.00    +0.000 OA
ATOM     14  C   UNL     1     113.232 126.021 136.852  0.00  0.00    +0.000 A 
ATOM     15  C   UNL     1     112.553 125.658 136.558  0.00  0.00    +0.000 A 
ATOM     16  C   UNL     1     113.843 125.564 137.165  0.00  0.00    +0.000 A 
ATOM     17  C   UNL     1     112.484 124.836 136.578  0.00  0.00    +0.000 A 
ATOM     18  C   UNL     1     113.773 124.742 137.185  0.00  0.00    +0.000 A 
ATOM     19  C   UNL     1     113.094 124.378 136.892  0.00  0.00    +0.000 A 
BRANCH  17  20
ATOM     20  O   UNL     1     111.804 124.472 136.285  0.00  0.00    +0.000 OA
ATOM     21  C   UNL     1     111.265 124.906 135.836  0.00  0.00    +0.000 C 
ENDBRANCH  17  20
ENDBRANCH  12  14
BRANCH   6  22
ATOM     22  O   UNL     1     113.969 130.554 136.110  0.00  0.00    +0.000 OA
ATOM     23  C   UNL     1     114.675 130.904 135.867  0.00  0.00    +0.000 C 
ENDBRANCH   6  22
BRANCH  11  24
ATOM     24  O   UNL     1     112.616 126.931 138.082  0.00  0.00    +0.000 OA
ATOM     25  C   UNL     1     112.673 127.253 138.839  0.00  0.00    +0.000 C 
ENDBRANCH  11  24
BRANCH   4  26
ATOM     26  O   UNL     1     113.197 129.791 137.405  0.00  0.00    +0.000 OA
BRANCH  26  35
ATOM     27  O   UNL     1     111.985 130.002 136.677  0.00  0.00    +0.000 OA
ATOM     28  O   UNL     1     111.348 131.797 138.258  0.00  0.00    +0.000 OA
ATOM     29  O   UNL     1     110.350 131.409 137.004  0.00  0.00    +0.000 OA
ATOM     30  O   UNL     1     112.772 130.988 138.458  0.00  0.00    +0.000 OA
ATOM     31  C   UNL     1     111.561 131.198 137.731  0.00  0.00    +0.000 C 
ATOM     32  C   UNL     1     111.061 131.004 137.104  0.00  0.00    +0.000 C 
ATOM     33  C   UNL     1     112.273 130.793 137.831  0.00  0.00    +0.000 C 
ATOM     34  C   UNL     1     111.273 130.406 136.577  0.00  0.00    +0.000 C 
ATOM     35  C   UNL     1     112.485 130.195 137.304  0.00  0.00    +0.000 C 
BRANCH  34  37
ATOM     36  O   UNL     1     110.388 129.483 135.939  0.00  0.00    +0.000 OA
ATOM     37  C   UNL     1     110.774 130.212 135.950  0.00  0.00    +0.000 C 
ENDBRANCH  34  37
ENDBRANCH  26  35
ENDBRANCH   4  26
TORSDOF 7
ENDMDL
MODEL 2
REMARK VINA RESULT:      -8.6      1.717      4.640
REMARK  Name = 44259818
REMARK  7 active torsions:
REMARK  status: ('A' for Active; 'I' for Inactive)
REMARK    1  A    between atoms: O_2  and  C_18
REMARK    2  A    between atoms: O_2  and  C_20
REMARK    3  A    between atoms: O_8  and  C_22
REMARK    4  A    between atoms: O_10  and  C_27
REMARK    5  A    between atoms: O_12  and  C_33
REMARK    6  A    between atoms: C_17  and  C_19
REMARK    7  A    between atoms: C_28  and  C_29
REMARK                            x       y       z     vdW  Elec       q    Type
REMARK                         _______ _______ _______ _____ _____    ______ ____
ROOT
ATOM      1  O   UNL     1     113.887 127.682 136.215  0.00  0.00    +0.000 OA
ATOM      2  O   UNL     1     113.654 124.954 137.208  0.00  0.00    +0.000 OA
ATOM      3  O   UNL     1     111.446 127.762 135.813  0.00  0.00    +0.000 OA
ATOM      4  C   UNL     1     112.105 126.377 136.436  0.00  0.00    +0.000 A 
ATOM      5  C   UNL     1     112.604 127.053 136.257  0.00  0.00    +0.000 A 
ATOM      6  C   UNL     1     112.459 125.663 136.759  0.00  0.00    +0.000 A 
ATOM      7  C   UNL     1     113.418 127.026 136.391  0.00  0.00    +0.000 A 
ATOM      8  C   UNL     1     112.259 127.735 135.947  0.00  0.00    +0.000 A 
ATOM      9  C   UNL     1     113.306 125.635 136.898  0.00  0.00    +0.000 A 
ATOM     10  C   UNL     1     113.788 126.321 136.713  0.00  0.00    +0.000 A 
ATOM     11  C   UNL     1     112.728 128.392 135.771  0.00  0.00    +0.000 A 
ATOM     12  C   UNL     1     113.541 128.364 135.905  0.00  0.00    +0.000 A 
ENDROOT
BRANCH  12  14
ATOM     13  O   UNL     1     115.415 130.988 135.199  0.00  0.00    +0.000 OA
ATOM     14  C   UNL     1     114.010 129.021 135.729  0.00  0.00    +0.000 A 
ATOM     15  C   UNL     1     114.117 129.614 136.291  0.00  0.00    +0.000 A 
ATOM     16  C   UNL     1     114.372 129.082 134.990  0.00  0.00    +0.000 A 
ATOM     17  C   UNL     1     114.585 130.270 136.115  0.00  0.00    +0.000 A 
ATOM     18  C   UNL     1     114.840 129.738 134.814  0.00  0.00    +0.000 A 
ATOM     19  C   UNL     1     114.947 130.332 135.376  0.00  0.00    +0.000 A 
BRANCH  17  20
ATOM     20  O   UNL     1     114.692 130.864 136.677  0.00  0.00    +0.000 OA
ATOM     21  C   UNL     1     114.325 130.806 137.414  0.00  0.00    +0.000 C 
ENDBRANCH  17  20
ENDBRANCH  12  14
BRANCH   6  22
ATOM     22  O   UNL     1     111.987 125.009 136.934  0.00  0.00    +0.000 OA
ATOM     23  C   UNL     1     112.235 124.252 136.718  0.00  0.00    +0.000 C 
ENDBRANCH   6  22
BRANCH  11  24
ATOM     24  O   UNL     1     112.383 129.074 135.462  0.00  0.00    +0.000 OA
ATOM     25  C   UNL     1     111.745 129.015 134.944  0.00  0.00    +0.000 C 
ENDBRANCH  11  24
BRANCH   4  26
ATOM     26  O   UNL     1     111.292 126.412 136.299  0.00  0.00    +0.000 OA
BRANCH  26  35
ATOM     27  O   UNL     1     111.065 126.778 137.662  0.00  0.00    +0.000 OA
ATOM     28  O   UNL     1     108.632 126.460 137.342  0.00  0.00    +0.000 OA
ATOM     29  O   UNL     1     109.216 126.931 138.810  0.00  0.00    +0.000 OA
ATOM     30  O   UNL     1     109.670 126.200 136.086  0.00  0.00    +0.000 OA
ATOM     31  C   UNL     1     109.443 126.566 137.449  0.00  0.00    +0.000 C 
ATOM     32  C   UNL     1     109.736 126.802 138.183  0.00  0.00    +0.000 C 
ATOM     33  C   UNL     1     109.963 126.436 136.820  0.00  0.00    +0.000 C 
ATOM     34  C   UNL     1     110.547 126.908 138.289  0.00  0.00    +0.000 C 
ATOM     35  C   UNL     1     110.774 126.542 136.927  0.00  0.00    +0.000 C 
BRANCH  34  37
ATOM     36  O   UNL     1     111.167 127.895 139.116  0.00  0.00    +0.000 OA
ATOM     37  C   UNL     1     110.839 127.143 139.023  0.00  0.00    +0.000 C 
ENDBRANCH  34  37
ENDBRANCH  26  35
ENDBRANCH   4  26
TORSDOF 7
ENDMDL
MODEL 3
REMARK VINA RESULT:      -8.5      1.787      4.896
REMARK  Name = 44259818
REMARK  7 active torsions:
REMARK  status: ('A' for Active; 'I' for Inactive)
REMARK    1  A    between atoms: O_2  and  C_18
REMARK    2  A    between atoms: O_2  and  C_20
REMARK    3  A    between atoms: O_8  and  C_22
REMARK    4  A    between atoms: O_10  and  C_27
REMARK    5  A    between atoms: O_12  and  C_33
REMARK    6  A    between atoms: C_17  and  C_19
REMARK    7  A    between atoms: C_28  and  C_29
REMARK                            x       y       z     vdW  Elec       q    Type
REMARK                         _______ _______ _______ _____ _____    ______ ____
ROOT
ATOM      1  O   UNL     1     112.409 128.697 135.339  0.00  0.00    +0.000 OA
ATOM      2  O   UNL     1     109.725 127.724 134.765  0.00  0.00    +0.000 OA
ATOM      3  O   UNL     1     113.001 126.518 136.353  0.00  0.00    +0.000 OA
ATOM      4  C   UNL     1     111.474 126.725 135.745  0.00  0.00    +0.000 A 
ATOM      5  C   UNL     1     112.048 127.365 135.707  0.00  0.00    +0.000 A 
ATOM      6  C   UNL     1     110.685 126.844 135.426  0.00  0.00    +0.000 A 
ATOM      7  C   UNL     1     111.850 128.091 135.369  0.00  0.00    +0.000 A 
ATOM      8  C   UNL     1     112.803 127.244 136.015  0.00  0.00    +0.000 A 
ATOM      9  C   UNL     1     110.480 127.600 135.074  0.00  0.00    +0.000 A 
ATOM     10  C   UNL     1     111.066 128.228 135.045  0.00  0.00    +0.000 A 
ATOM     11  C   UNL     1     113.363 127.850 135.984  0.00  0.00    +0.000 A 
ATOM     12  C   UNL     1     113.165 128.576 135.646  0.00  0.00    +0.000 A 
ENDROOT
BRANCH  12  14
ATOM     13  O   UNL     1     115.402 130.999 135.524  0.00  0.00    +0.000 OA
ATOM     14  C   UNL     1     113.724 129.183 135.616  0.00  0.00    +0.000 A 
ATOM     15  C   UNL     1     113.779 129.725 136.234  0.00  0.00    +0.000 A 
ATOM     16  C   UNL     1     114.229 129.245 134.967  0.00  0.00    +0.000 A 
ATOM     17  C   UNL     1     114.338 130.331 136.203  0.00  0.00    +0.000 A 
ATOM     18  C   UNL     1     114.788 129.850 134.936  0.00  0.00    +0.000 A 
ATOM     19  C   UNL     1     114.843 130.394 135.554  0.00  0.00    +0.000 A 
BRANCH  17  20
ATOM     20  O   UNL     1     114.392 130.874 136.822  0.00  0.00    +0.000 OA
ATOM     21  C   UNL     1     113.728 131.046 137.280  0.00  0.00    +0.000 C 
ENDBRANCH  17  20
ENDBRANCH  12  14
BRANCH   6  22
ATOM     22  O   UNL     1     110.128 126.236 135.457  0.00  0.00    +0.000 OA
ATOM     23  C   UNL     1     109.672 126.060 134.794  0.00  0.00    +0.000 C 
ENDBRANCH   6  22
BRANCH  11  24
ATOM     24  O   UNL     1     114.118 127.730 136.292  0.00  0.00    +0.000 OA
ATOM     25  C   UNL     1     114.453 126.977 136.283  0.00  0.00    +0.000 C 
ENDBRANCH  11  24
BRANCH   4  26
ATOM     26  O   UNL     1     111.680 126.002 136.085  0.00  0.00    +0.000 OA
BRANCH  26  35
ATOM     27  O   UNL     1     111.135 126.416 137.339  0.00  0.00    +0.000 OA
ATOM     28  O   UNL     1     111.301 124.094 138.178  0.00  0.00    +0.000 OA
ATOM     29  O   UNL     1     110.700 125.282 139.152  0.00  0.00    +0.000 OA
ATOM     30  O   UNL     1     111.791 124.454 136.644  0.00  0.00    +0.000 OA
ATOM     31  C   UNL     1     111.246 124.868 137.898  0.00  0.00    +0.000 C 
ATOM     32  C   UNL     1     110.945 125.462 138.385  0.00  0.00    +0.000 C 
ATOM     33  C   UNL     1     111.491 125.048 137.131  0.00  0.00    +0.000 C 
ATOM     34  C   UNL     1     110.890 126.237 138.105  0.00  0.00    +0.000 C 
ATOM     35  C   UNL     1     111.435 125.822 136.851  0.00  0.00    +0.000 C 
BRANCH  34  37
ATOM     36  O   UNL     1     111.088 127.422 138.878  0.00  0.00    +0.000 OA
ATOM     37  C   UNL     1     110.589 126.830 138.592  0.00  0.00    +0.000 C 
ENDBRANCH  34  37
ENDBRANCH  26  35
ENDBRANCH   4  26
TORSDOF 7
ENDMDL
MODEL 4
REMARK VINA RESULT:      -8.4      1.497      2.040
REMARK  Name = 44259818
REMARK  7 active torsions:
REMARK  status: ('A' for Active; 'I' for Inactive)
REMARK    1  A    between atoms: O_2  and  C_18
REMARK    2  A    between atoms: O_2  and  C_20
REMARK    3  A    between atoms: O_8  and  C_22
REMARK    4  A    between atoms: O_10  and  C_27
REMARK    5  A    between atoms: O_12  and  C_33
REMARK    6  A    between atoms: C_17  and  C_19
REMARK    7  A    between atoms: C_28  and  C_29
REMARK                            x       y       z     vdW  Elec       q    Type
REMARK                         _______ _______ _______ _____ _____    ______ ____
ROOT
ATOM      1  O   UNL     1     112.307 127.003 136.271  0.00  0.00    +0.000 OA
ATOM      2  O   UNL     1     112.948 129.720 135.440  0.00  0.00    +0.000 OA
ATOM      3  O   UNL     1     110.752 127.877 137.987  0.00  0.00    +0.000 OA
ATOM      4  C   UNL     1     111.566 128.955 137.028  0.00  0.00    +0.000 A 
ATOM      5  C   UNL     1     111.684 128.109 136.928  0.00  0.00    +0.000 A 
ATOM      6  C   UNL     1     111.994 129.503 136.524  0.00  0.00    +0.000 A 
ATOM      7  C   UNL     1     112.202 127.818 136.356  0.00  0.00    +0.000 A 
ATOM      8  C   UNL     1     111.271 127.587 137.415  0.00  0.00    +0.000 A 
ATOM      9  C   UNL     1     112.533 129.200 135.928  0.00  0.00    +0.000 A 
ATOM     10  C   UNL     1     112.638 128.352 135.844  0.00  0.00    +0.000 A 
ATOM     11  C   UNL     1     111.375 126.772 137.330  0.00  0.00    +0.000 A 
ATOM     12  C   UNL     1     111.894 126.482 136.757  0.00  0.00    +0.000 A 
ENDROOT
BRANCH  12  14
ATOM     13  O   UNL     1     112.310 123.226 136.416  0.00  0.00    +0.000 OA
ATOM     14  C   UNL     1     111.998 125.667 136.672  0.00  0.00    +0.000 A 
ATOM     15  C   UNL     1     112.669 125.302 136.983  0.00  0.00    +0.000 A 
ATOM     16  C   UNL     1     111.431 125.218 136.276  0.00  0.00    +0.000 A 
ATOM     17  C   UNL     1     112.773 124.489 136.897  0.00  0.00    +0.000 A 
ATOM     18  C   UNL     1     111.535 124.405 136.190  0.00  0.00    +0.000 A 
ATOM     19  C   UNL     1     112.206 124.039 136.501  0.00  0.00    +0.000 A 
BRANCH  17  20
ATOM     20  O   UNL     1     113.445 124.124 137.208  0.00  0.00    +0.000 OA
ATOM     21  C   UNL     1     114.156 124.539 137.255  0.00  0.00    +0.000 C 
ENDBRANCH  17  20
ENDBRANCH  12  14
BRANCH   6  22
ATOM     22  O   UNL     1     111.887 130.317 136.612  0.00  0.00    +0.000 OA
ATOM     23  C   UNL     1     112.541 130.819 136.635  0.00  0.00    +0.000 C 
ENDBRANCH   6  22
BRANCH  11  24
ATOM     24  O   UNL     1     110.962 126.250 137.816  0.00  0.00    +0.000 OA
ATOM     25  C   UNL     1     110.819 126.445 138.604  0.00  0.00    +0.000 C 
ENDBRANCH  11  24
BRANCH   4  26
ATOM     26  O   UNL     1     111.046 129.237 137.602  0.00  0.00    +0.000 OA
BRANCH  26  35
ATOM     27  O   UNL     1     109.988 129.322 136.645  0.00  0.00    +0.000 OA
ATOM     28  O   UNL     1     108.696 130.749 138.200  0.00  0.00    +0.000 OA
ATOM     29  O   UNL     1     108.069 130.359 136.725  0.00  0.00    +0.000 OA
ATOM     30  O   UNL     1     110.184 130.189 138.639  0.00  0.00    +0.000 OA
ATOM     31  C   UNL     1     109.126 130.274 137.682  0.00  0.00    +0.000 C 
ATOM     32  C   UNL     1     108.813 130.078 136.944  0.00  0.00    +0.000 C 
ATOM     33  C   UNL     1     109.871 129.993 137.901  0.00  0.00    +0.000 C 
ATOM     34  C   UNL     1     109.244 129.602 136.426  0.00  0.00    +0.000 C 
ATOM     35  C   UNL     1     110.302 129.517 137.383  0.00  0.00    +0.000 C 
BRANCH  34  37
ATOM     36  O   UNL     1     108.630 128.650 135.555  0.00  0.00    +0.000 OA
ATOM     37  C   UNL     1     108.931 129.407 135.689  0.00  0.00    +0.000 C 
ENDBRANCH  34  37
ENDBRANCH  26  35
ENDBRANCH   4  26
TORSDOF 7
ENDMDL
MODEL 5
REMARK VINA RESULT:      -8.4      1.879      3.402
REMARK  Name = 44259818
REMARK  7 active torsions:
REMARK  status: ('A' for Active; 'I' for Inactive)
REMARK    1  A    between atoms: O_2  and  C_18
REMARK    2  A    between atoms: O_2  and  C_20
REMARK    3  A    between atoms: O_8  and  C_22
REMARK    4  A    between atoms: O_10  and  C_27
REMARK    5  A    between atoms: O_12  and  C_33
REMARK    6  A    between atoms: C_17  and  C_19
REMARK    7  A    between atoms: C_28  and  C_29
REMARK                            x       y       z     vdW  Elec       q    Type
REMARK                         _______ _______ _______ _____ _____    ______ ____
ROOT
ATOM      1  O   UNL     1     111.175 126.986 138.074  0.00  0.00    +0.000 OA
ATOM      2  O   UNL     1     109.944 128.998 139.784  0.00  0.00    +0.000 OA
ATOM      3  O   UNL     1     113.095 128.492 137.656  0.00  0.00    +0.000 OA
ATOM      4  C   UNL     1     111.871 129.017 138.641  0.00  0.00    +0.000 A 
ATOM      5  C   UNL     1     111.837 128.235 138.284  0.00  0.00    +0.000 A 
ATOM      6  C   UNL     1     111.231 129.278 139.151  0.00  0.00    +0.000 A 
ATOM      7  C   UNL     1     111.197 127.734 138.424  0.00  0.00    +0.000 A 
ATOM      8  C   UNL     1     112.455 127.990 137.796  0.00  0.00    +0.000 A 
ATOM      9  C   UNL     1     110.564 128.755 139.296  0.00  0.00    +0.000 A 
ATOM     10  C   UNL     1     110.547 127.978 138.930  0.00  0.00    +0.000 A 
ATOM     11  C   UNL     1     112.433 127.243 137.447  0.00  0.00    +0.000 A 
ATOM     12  C   UNL     1     111.793 126.741 137.587  0.00  0.00    +0.000 A 
ENDROOT
BRANCH  12  14
ATOM     13  O   UNL     1     111.709 123.751 136.192  0.00  0.00    +0.000 OA
ATOM     14  C   UNL     1     111.772 125.993 137.237  0.00  0.00    +0.000 A 
ATOM     15  C   UNL     1     111.349 125.875 136.540  0.00  0.00    +0.000 A 
ATOM     16  C   UNL     1     112.174 125.364 137.587  0.00  0.00    +0.000 A 
ATOM     17  C   UNL     1     111.328 125.128 136.191  0.00  0.00    +0.000 A 
ATOM     18  C   UNL     1     112.153 124.617 137.239  0.00  0.00    +0.000 A 
ATOM     19  C   UNL     1     111.730 124.498 136.541  0.00  0.00    +0.000 A 
BRANCH  17  20
ATOM     20  O   UNL     1     110.904 125.010 135.493  0.00  0.00    +0.000 OA
ATOM     21  C   UNL     1     110.316 125.545 135.272  0.00  0.00    +0.000 C 
ENDBRANCH  17  20
ENDBRANCH  12  14
BRANCH   6  22
ATOM     22  O   UNL     1     111.255 130.026 139.498  0.00  0.00    +0.000 OA
ATOM     23  C   UNL     1     110.568 130.479 139.550  0.00  0.00    +0.000 C 
ENDBRANCH   6  22
BRANCH  11  24
ATOM     24  O   UNL     1     113.051 126.997 136.959  0.00  0.00    +0.000 OA
ATOM     25  C   UNL     1     113.442 127.544 136.481  0.00  0.00    +0.000 C 
ENDBRANCH  11  24
BRANCH   4  26
ATOM     26  O   UNL     1     112.515 129.512 138.496  0.00  0.00    +0.000 OA
BRANCH  26  35
ATOM     27  O   UNL     1     113.186 129.059 139.674  0.00  0.00    +0.000 OA
ATOM     28  O   UNL     1     114.630 131.068 139.624  0.00  0.00    +0.000 OA
ATOM     29  O   UNL     1     114.819 129.946 140.818  0.00  0.00    +0.000 OA
ATOM     30  O   UNL     1     113.478 130.851 138.463  0.00  0.00    +0.000 OA
ATOM     31  C   UNL     1     114.149 130.398 139.641  0.00  0.00    +0.000 C 
ATOM     32  C   UNL     1     114.243 129.837 140.238  0.00  0.00    +0.000 C 
ATOM     33  C   UNL     1     113.572 130.290 139.060  0.00  0.00    +0.000 C 
ATOM     34  C   UNL     1     113.762 129.167 140.254  0.00  0.00    +0.000 C 
ATOM     35  C   UNL     1     113.091 129.620 139.076  0.00  0.00    +0.000 C 
BRANCH  34  37
ATOM     36  O   UNL     1     114.163 127.861 140.672  0.00  0.00    +0.000 OA
ATOM     37  C   UNL     1     113.856 128.606 140.851  0.00  0.00    +0.000 C 
ENDBRANCH  34  37
ENDBRANCH  26  35
ENDBRANCH   4  26
TORSDOF 7
ENDMDL
MODEL 6
REMARK VINA RESULT:      -8.4      1.646      2.524
REMARK  Name = 44259818
REMARK  7 active torsions:
REMARK  status: ('A' for Active; 'I' for Inactive)
REMARK    1  A    between atoms: O_2  and  C_18
REMARK    2  A    between atoms: O_2  and  C_20
REMARK    3  A    between atoms: O_8  and  C_22
REMARK    4  A    between atoms: O_10  and  C_27
REMARK    5  A    between atoms: O_12  and  C_33
REMARK    6  A    between atoms: C_17  and  C_19
REMARK    7  A    between atoms: C_28  and  C_29
REMARK                            x       y       z     vdW  Elec       q    Type
REMARK                         _______ _______ _______ _____ _____    ______ ____
ROOT
ATOM      1  O   UNL     1     112.722 127.332 136.741  0.00  0.00    +0.000 OA
ATOM      2  O   UNL     1     114.212 129.811 136.402  0.00  0.00    +0.000 OA
ATOM      3  O   UNL     1     111.461 128.327 138.624  0.00  0.00    +0.000 OA
ATOM      4  C   UNL     1     112.605 129.247 137.857  0.00  0.00    +0.000 A 
ATOM      5  C   UNL     1     112.455 128.439 137.603  0.00  0.00    +0.000 A 
ATOM      6  C   UNL     1     113.201 129.715 137.451  0.00  0.00    +0.000 A 
ATOM      7  C   UNL     1     112.875 128.108 136.975  0.00  0.00    +0.000 A 
ATOM      8  C   UNL     1     111.882 127.996 137.996  0.00  0.00    +0.000 A 
ATOM      9  C   UNL     1     113.638 129.369 136.797  0.00  0.00    +0.000 A 
ATOM     10  C   UNL     1     113.474 128.561 136.558  0.00  0.00    +0.000 A 
ATOM     11  C   UNL     1     111.728 127.219 137.762  0.00  0.00    +0.000 A 
ATOM     12  C   UNL     1     112.149 126.888 137.134  0.00  0.00    +0.000 A 
ENDROOT
BRANCH  12  14
ATOM     13  O   UNL     1     111.537 123.782 136.199  0.00  0.00    +0.000 OA
ATOM     14  C   UNL     1     111.995 126.111 136.900  0.00  0.00    +0.000 A 
ATOM     15  C   UNL     1     111.460 125.962 136.292  0.00  0.00    +0.000 A 
ATOM     16  C   UNL     1     112.379 125.485 137.276  0.00  0.00    +0.000 A 
ATOM     17  C   UNL     1     111.307 125.186 136.058  0.00  0.00    +0.000 A 
ATOM     18  C   UNL     1     112.226 124.709 137.042  0.00  0.00    +0.000 A 
ATOM     19  C   UNL     1     111.690 124.558 136.433  0.00  0.00    +0.000 A 
BRANCH  17  20
ATOM     20  O   UNL     1     110.770 125.036 135.449  0.00  0.00    +0.000 OA
ATOM     21  C   UNL     1     110.437 125.663 135.030  0.00  0.00    +0.000 C 
ENDBRANCH  17  20
ENDBRANCH  12  14
BRANCH   6  22
ATOM     22  O   UNL     1     113.352 130.491 137.688  0.00  0.00    +0.000 OA
ATOM     23  C   UNL     1     113.500 131.073 137.122  0.00  0.00    +0.000 C 
ENDBRANCH   6  22
BRANCH  11  24
ATOM     24  O   UNL     1     111.155 126.776 138.155  0.00  0.00    +0.000 OA
ATOM     25  C   UNL     1     110.491 127.147 138.471  0.00  0.00    +0.000 C 
ENDBRANCH  11  24
BRANCH   4  26
ATOM     26  O   UNL     1     112.180 129.571 138.485  0.00  0.00    +0.000 OA
BRANCH  26  35
ATOM     27  O   UNL     1     113.192 129.196 139.422  0.00  0.00    +0.000 OA
ATOM     28  O   UNL     1     112.298 130.836 141.045  0.00  0.00    +0.000 OA
ATOM     29  O   UNL     1     113.608 129.914 141.440  0.00  0.00    +0.000 OA
ATOM     30  O   UNL     1     111.584 130.664 139.568  0.00  0.00    +0.000 OA
ATOM     31  C   UNL     1     112.596 130.289 140.504  0.00  0.00    +0.000 C 
ATOM     32  C   UNL     1     113.251 129.828 140.701  0.00  0.00    +0.000 C 
ATOM     33  C   UNL     1     112.239 130.203 139.765  0.00  0.00    +0.000 C 
ATOM     34  C   UNL     1     113.549 129.281 140.160  0.00  0.00    +0.000 C 
ATOM     35  C   UNL     1     112.537 129.656 139.223  0.00  0.00    +0.000 C 
BRANCH  34  37
ATOM     36  O   UNL     1     114.112 128.014 140.503  0.00  0.00    +0.000 OA
ATOM     37  C   UNL     1     114.203 128.821 140.357  0.00  0.00    +0.000 C 
ENDBRANCH  34  37
ENDBRANCH  26  35
ENDBRANCH   4  26
TORSDOF 7
ENDMDL
MODEL 7
REMARK VINA RESULT:      -8.3      1.682      2.739
REMARK  Name = 44259818
REMARK  7 active torsions:
REMARK  status: ('A' for Active; 'I' for Inactive)
REMARK    1  A    between atoms: O_2  and  C_18
REMARK    2  A    between atoms: O_2  and  C_20
REMARK    3  A    between atoms: O_8  and  C_22
REMARK    4  A    between atoms: O_10  and  C_27
REMARK    5  A    between atoms: O_12  and  C_33
REMARK    6  A    between atoms: C_17  and  C_19
REMARK    7  A    between atoms: C_28  and  C_29
REMARK                            x       y       z     vdW  Elec       q    Type
REMARK                         _______ _______ _______ _____ _____    ______ ____
ROOT
ATOM      1  O   UNL     1     112.180 127.860 135.719  0.00  0.00    +0.000 OA
ATOM      2  O   UNL     1     114.650 129.399 135.832  0.00  0.00    +0.000 OA
ATOM      3  O   UNL     1     111.263 129.159 137.616  0.00  0.00    +0.000 OA
ATOM      4  C   UNL     1     112.786 129.514 137.070  0.00  0.00    +0.000 A 
ATOM      5  C   UNL     1     112.326 128.890 136.699  0.00  0.00    +0.000 A 
ATOM      6  C   UNL     1     113.575 129.689 136.778  0.00  0.00    +0.000 A 
ATOM      7  C   UNL     1     112.632 128.457 136.066  0.00  0.00    +0.000 A 
ATOM      8  C   UNL     1     111.569 128.726 136.984  0.00  0.00    +0.000 A 
ATOM      9  C   UNL     1     113.893 129.238 136.119  0.00  0.00    +0.000 A 
ATOM     10  C   UNL     1     113.418 128.618 135.761  0.00  0.00    +0.000 A 
ATOM     11  C   UNL     1     111.117 128.130 136.636  0.00  0.00    +0.000 A 
ATOM     12  C   UNL     1     111.423 127.697 136.003  0.00  0.00    +0.000 A 
ENDROOT
BRANCH  12  14
ATOM     13  O   UNL     1     109.615 125.312 134.612  0.00  0.00    +0.000 OA
ATOM     14  C   UNL     1     110.971 127.100 135.656  0.00  0.00    +0.000 A 
ATOM     15  C   UNL     1     111.043 126.322 135.918  0.00  0.00    +0.000 A 
ATOM     16  C   UNL     1     110.447 127.283 135.045  0.00  0.00    +0.000 A 
ATOM     17  C   UNL     1     110.591 125.726 135.570  0.00  0.00    +0.000 A 
ATOM     18  C   UNL     1     109.996 126.687 134.697  0.00  0.00    +0.000 A 
ATOM     19  C   UNL     1     110.067 125.908 134.960  0.00  0.00    +0.000 A 
BRANCH  17  20
ATOM     20  O   UNL     1     110.663 124.947 135.833  0.00  0.00    +0.000 OA
ATOM     21  C   UNL     1     111.396 124.661 136.079  0.00  0.00    +0.000 C 
ENDBRANCH  17  20
ENDBRANCH  12  14
BRANCH   6  22
ATOM     22  O   UNL     1     114.024 130.286 137.128  0.00  0.00    +0.000 OA
ATOM     23  C   UNL     1     114.467 130.799 136.657  0.00  0.00    +0.000 C 
ENDBRANCH   6  22
BRANCH  11  24
ATOM     24  O   UNL     1     110.361 127.966 136.921  0.00  0.00    +0.000 OA
ATOM     25  C   UNL     1     109.897 128.572 137.233  0.00  0.00    +0.000 C 
ENDBRANCH  11  24
BRANCH   4  26
ATOM     26  O   UNL     1     112.473 129.942 137.702  0.00  0.00    +0.000 OA
BRANCH  26  35
ATOM     27  O   UNL     1     113.086 129.060 138.645  0.00  0.00    +0.000 OA
ATOM     28  O   UNL     1     112.713 130.721 140.441  0.00  0.00    +0.000 OA
ATOM     29  O   UNL     1     113.450 129.287 140.784  0.00  0.00    +0.000 OA
ATOM     30  O   UNL     1     112.224 131.049 138.900  0.00  0.00    +0.000 OA
ATOM     31  C   UNL     1     112.837 130.168 139.842  0.00  0.00    +0.000 C 
ATOM     32  C   UNL     1     113.206 129.450 140.013  0.00  0.00    +0.000 C 
ATOM     33  C   UNL     1     112.593 130.331 139.071  0.00  0.00    +0.000 C 
ATOM     34  C   UNL     1     113.330 128.896 139.415  0.00  0.00    +0.000 C 
ATOM     35  C   UNL     1     112.717 129.778 138.472  0.00  0.00    +0.000 C 
BRANCH  34  37
ATOM     36  O   UNL     1     113.273 127.474 139.540  0.00  0.00    +0.000 OA
ATOM     37  C   UNL     1     113.699 128.179 139.587  0.00  0.00    +0.000 C 
ENDBRANCH  34  37
ENDBRANCH  26  35
ENDBRANCH   4  26
TORSDOF 7
ENDMDL
MODEL 8
REMARK VINA RESULT:      -8.3      1.670      2.859
REMARK  Name = 44259818
REMARK  7 active torsions:
REMARK  status: ('A' for Active; 'I' for Inactive)
REMARK    1  A    between atoms: O_2  and  C_18
REMARK    2  A    between atoms: O_2  and  C_20
REMARK    3  A    between atoms: O_8  and  C_22
REMARK    4  A    between atoms: O_10  and  C_27
REMARK    5  A    between atoms: O_12  and  C_33
REMARK    6  A    between atoms: C_17  and  C_19
REMARK    7  A    between atoms: C_28  and  C_29
REMARK                            x       y       z     vdW  Elec       q    Type
REMARK                         _______ _______ _______ _____ _____    ______ ____
ROOT
ATOM      1  O   UNL     1     113.227 126.505 138.893  0.00  0.00    +0.000 OA
ATOM      2  O   UNL     1     112.889 127.681 141.536  0.00  0.00    +0.000 OA
ATOM      3  O   UNL     1     112.812 128.707 137.842  0.00  0.00    +0.000 OA
ATOM      4  C   UNL     1     112.775 128.594 139.494  0.00  0.00    +0.000 A 
ATOM      5  C   UNL     1     112.935 127.899 139.014  0.00  0.00    +0.000 A 
ATOM      6  C   UNL     1     112.759 128.523 140.350  0.00  0.00    +0.000 A 
ATOM      7  C   UNL     1     113.074 127.165 139.365  0.00  0.00    +0.000 A 
ATOM      8  C   UNL     1     112.950 127.973 138.193  0.00  0.00    +0.000 A 
ATOM      9  C   UNL     1     112.903 127.759 140.715  0.00  0.00    +0.000 A 
ATOM     10  C   UNL     1     113.061 127.076 140.219  0.00  0.00    +0.000 A 
ATOM     11  C   UNL     1     113.103 127.313 137.721  0.00  0.00    +0.000 A 
ATOM     12  C   UNL     1     113.241 126.580 138.072  0.00  0.00    +0.000 A 
ENDROOT
BRANCH  12  14
ATOM     13  O   UNL     1     113.854 123.941 136.186  0.00  0.00    +0.000 OA
ATOM     14  C   UNL     1     113.394 125.920 137.600  0.00  0.00    +0.000 A 
ATOM     15  C   UNL     1     112.772 125.446 137.339  0.00  0.00    +0.000 A 
ATOM     16  C   UNL     1     114.170 125.734 137.391  0.00  0.00    +0.000 A 
ATOM     17  C   UNL     1     112.925 124.787 136.868  0.00  0.00    +0.000 A 
ATOM     18  C   UNL     1     114.323 125.075 136.919  0.00  0.00    +0.000 A 
ATOM     19  C   UNL     1     113.701 124.601 136.658  0.00  0.00    +0.000 A 
BRANCH  17  20
ATOM     20  O   UNL     1     112.302 124.313 136.606  0.00  0.00    +0.000 OA
ATOM     21  C   UNL     1     111.689 124.116 137.122  0.00  0.00    +0.000 C 
ENDBRANCH  17  20
ENDBRANCH  12  14
BRANCH   6  22
ATOM     22  O   UNL     1     112.606 129.185 140.818  0.00  0.00    +0.000 OA
ATOM     23  C   UNL     1     113.035 129.308 141.512  0.00  0.00    +0.000 C 
ENDBRANCH   6  22
BRANCH  11  24
ATOM     24  O   UNL     1     113.117 127.388 136.900  0.00  0.00    +0.000 OA
ATOM     25  C   UNL     1     113.370 128.091 136.554  0.00  0.00    +0.000 C 
ENDBRANCH  11  24
BRANCH   4  26
ATOM     26  O   UNL     1     112.638 129.324 139.135  0.00  0.00    +0.000 OA
BRANCH  26  35
ATOM     27  O   UNL     1     111.224 129.123 139.173  0.00  0.00    +0.000 OA
ATOM     28  O   UNL     1     110.870 131.549 138.834  0.00  0.00    +0.000 OA
ATOM     29  O   UNL     1     109.574 130.540 138.985  0.00  0.00    +0.000 OA
ATOM     30  O   UNL     1     112.402 130.942 138.909  0.00  0.00    +0.000 OA
ATOM     31  C   UNL     1     110.988 130.740 138.947  0.00  0.00    +0.000 C 
ATOM     32  C   UNL     1     110.340 130.235 139.022  0.00  0.00    +0.000 C 
ATOM     33  C   UNL     1     111.754 130.436 138.984  0.00  0.00    +0.000 C 
ATOM     34  C   UNL     1     110.458 129.427 139.135  0.00  0.00    +0.000 C 
ATOM     35  C   UNL     1     111.872 129.628 139.097  0.00  0.00    +0.000 C 
BRANCH  34  37
ATOM     36  O   UNL     1     109.618 128.402 138.599  0.00  0.00    +0.000 OA
ATOM     37  C   UNL     1     109.810 128.922 139.211  0.00  0.00    +0.000 C 
ENDBRANCH  34  37
ENDBRANCH  26  35
ENDBRANCH   4  26
TORSDOF 7
ENDMDL
MODEL 9
REMARK VINA RESULT:      -8.2      1.579      2.943
REMARK  Name = 44259818
REMARK  7 active torsions:
REMARK  status: ('A' for Active; 'I' for Inactive)
REMARK    1  A    between atoms: O_2  and  C_18
REMARK    2  A    between atoms: O_2  and  C_20
REMARK    3  A    between atoms: O_8  and  C_22
REMARK    4  A    between atoms: O_10  and  C_27
REMARK    5  A    between atoms: O_12  and  C_33
REMARK    6  A    between atoms: C_17  and  C_19
REMARK    7  A    between atoms: C_28  and  C_29
REMARK                            x       y       z     vdW  Elec       q    Type
REMARK                         _______ _______ _______ _____ _____    ______ ____
ROOT
ATOM      1  O   UNL     1     112.059 126.795 138.247  0.00  0.00    +0.000 OA
ATOM      2  O   UNL     1     109.895 128.137 139.662  0.00  0.00    +0.000 OA
ATOM      3  O   UNL     1     112.180 128.662 136.626  0.00  0.00    +0.000 OA
ATOM      4  C   UNL     1     111.062 128.738 137.847  0.00  0.00    +0.000 A 
ATOM      5  C   UNL     1     111.589 128.061 137.781  0.00  0.00    +0.000 A 
ATOM      6  C   UNL     1     110.487 128.766 138.484  0.00  0.00    +0.000 A 
ATOM      7  C   UNL     1     111.548 127.439 138.321  0.00  0.00    +0.000 A 
ATOM      8  C   UNL     1     112.139 128.040 137.167  0.00  0.00    +0.000 A 
ATOM      9  C   UNL     1     110.445 128.118 139.046  0.00  0.00    +0.000 A 
ATOM     10  C   UNL     1     110.979 127.451 138.964  0.00  0.00    +0.000 A 
ATOM     11  C   UNL     1     112.650 127.395 137.093  0.00  0.00    +0.000 A 
ATOM     12  C   UNL     1     112.609 126.773 137.634  0.00  0.00    +0.000 A 
ENDROOT
BRANCH  12  14
ATOM     13  O   UNL     1     114.653 124.199 137.339  0.00  0.00    +0.000 OA
ATOM     14  C   UNL     1     113.120 126.129 137.560  0.00  0.00    +0.000 A 
ATOM     15  C   UNL     1     112.902 125.480 137.101  0.00  0.00    +0.000 A 
ATOM     16  C   UNL     1     113.849 126.136 137.945  0.00  0.00    +0.000 A 
ATOM     17  C   UNL     1     113.413 124.837 137.027  0.00  0.00    +0.000 A 
ATOM     18  C   UNL     1     114.360 125.492 137.872  0.00  0.00    +0.000 A 
ATOM     19  C   UNL     1     114.142 124.842 137.413  0.00  0.00    +0.000 A 
BRANCH  17  20
ATOM     20  O   UNL     1     113.194 124.187 136.568  0.00  0.00    +0.000 OA
ATOM     21  C   UNL     1     112.433 123.874 136.632  0.00  0.00    +0.000 C 
ENDBRANCH  17  20
ENDBRANCH  12  14
BRANCH   6  22
ATOM     22  O   UNL     1     109.978 129.412 138.555  0.00  0.00    +0.000 OA
ATOM     23  C   UNL     1     109.789 129.708 139.301  0.00  0.00    +0.000 C 
ENDBRANCH   6  22
BRANCH  11  24
ATOM     24  O   UNL     1     113.200 127.374 136.479  0.00  0.00    +0.000 OA
ATOM     25  C   UNL     1     113.534 128.073 136.200  0.00  0.00    +0.000 C 
ENDBRANCH  11  24
BRANCH   4  26
ATOM     26  O   UNL     1     111.110 129.356 137.302  0.00  0.00    +0.000 OA
BRANCH  26  35
ATOM     27  O   UNL     1     110.097 128.765 136.486  0.00  0.00    +0.000 OA
ATOM     28  O   UNL     1     109.758 130.931 135.337  0.00  0.00    +0.000 OA
ATOM     29  O   UNL     1     108.858 129.618 134.904  0.00  0.00    +0.000 OA
ATOM     30  O   UNL     1     110.884 130.800 136.536  0.00  0.00    +0.000 OA
ATOM     31  C   UNL     1     109.871 130.209 135.720  0.00  0.00    +0.000 C 
ATOM     32  C   UNL     1     109.421 129.552 135.504  0.00  0.00    +0.000 C 
ATOM     33  C   UNL     1     110.435 130.143 136.320  0.00  0.00    +0.000 C 
ATOM     34  C   UNL     1     109.534 128.830 135.887  0.00  0.00    +0.000 C 
ATOM     35  C   UNL     1     110.547 129.421 136.703  0.00  0.00    +0.000 C 
BRANCH  34  37
ATOM     36  O   UNL     1     108.462 127.922 136.151  0.00  0.00    +0.000 OA
ATOM     37  C   UNL     1     109.084 128.174 135.670  0.00  0.00    +0.000 C 
ENDBRANCH  34  37
ENDBRANCH  26  35
ENDBRANCH   4  26
TORSDOF 7
ENDMDL
MODEL 10
REMARK VINA RESULT:      -8.2      1.636      2.312
REMARK  Name = 44259818
REMARK  7 active torsions:
REMARK  status: ('A' for Active; 'I' for Inactive)
REMARK    1  A    between atoms: O_2  and  C_18
REMARK    2  A    between atoms: O_2  and  C_20
REMARK    3  A    between atoms: O_8  and  C_22
REMARK    4  A    between atoms: O_10  and  C_27
REMARK    5  A    between atoms: O_12  and  C_33
REMARK    6  A    between atoms: C_17  and  C_19
REMARK    7  A    between atoms: C_28  and  C_29
REMARK                            x       y       z     vdW  Elec       q    Type
REMARK                         _______ _______ _______ _____ _____    ______ ____
ROOT
ATOM      1  O   UNL     1     112.488 127.070 136.312  0.00  0.00    +0.000 OA
ATOM      2  O   UNL     1     111.340 129.139 134.614  0.00  0.00    +0.000 OA
ATOM      3  O   UNL     1     110.935 127.684 138.139  0.00  0.00    +0.000 OA
ATOM      4  C   UNL     1     110.855 128.521 136.712  0.00  0.00    +0.000 A 
ATOM      5  C   UNL     1     111.427 127.886 136.812  0.00  0.00    +0.000 A 
ATOM      6  C   UNL     1     110.824 128.948 135.967  0.00  0.00    +0.000 A 
ATOM      7  C   UNL     1     111.944 127.682 136.203  0.00  0.00    +0.000 A 
ATOM      8  C   UNL     1     111.452 127.480 137.529  0.00  0.00    +0.000 A 
ATOM      9  C   UNL     1     111.363 128.735 135.333  0.00  0.00    +0.000 A 
ATOM     10  C   UNL     1     111.927 128.098 135.452  0.00  0.00    +0.000 A 
ATOM     11  C   UNL     1     111.996 126.868 137.638  0.00  0.00    +0.000 A 
ATOM     12  C   UNL     1     112.513 126.664 137.029  0.00  0.00    +0.000 A 
ENDROOT
BRANCH  12  14
ATOM     13  O   UNL     1     114.689 124.221 137.466  0.00  0.00    +0.000 OA
ATOM     14  C   UNL     1     113.057 126.053 137.138  0.00  0.00    +0.000 A 
ATOM     15  C   UNL     1     112.891 125.297 136.855  0.00  0.00    +0.000 A 
ATOM     16  C   UNL     1     113.768 126.199 137.531  0.00  0.00    +0.000 A 
ATOM     17  C   UNL     1     113.435 124.686 136.964  0.00  0.00    +0.000 A 
ATOM     18  C   UNL     1     114.311 125.588 137.641  0.00  0.00    +0.000 A 
ATOM     19  C   UNL     1     114.145 124.832 137.357  0.00  0.00    +0.000 A 
BRANCH  17  20
ATOM     20  O   UNL     1     113.268 123.930 136.680  0.00  0.00    +0.000 OA
ATOM     21  C   UNL     1     112.492 123.650 136.683  0.00  0.00    +0.000 C 
ENDBRANCH  17  20
ENDBRANCH  12  14
BRANCH   6  22
ATOM     22  O   UNL     1     110.279 129.558 135.861  0.00  0.00    +0.000 OA
ATOM     23  C   UNL     1     109.880 129.636 135.143  0.00  0.00    +0.000 C 
ENDBRANCH   6  22
BRANCH  11  24
ATOM     24  O   UNL     1     112.022 126.462 138.356  0.00  0.00    +0.000 OA
ATOM     25  C   UNL     1     111.333 126.358 138.796  0.00  0.00    +0.000 C 
ENDBRANCH  11  24
BRANCH   4  26
ATOM     26  O   UNL     1     110.342 128.719 137.326  0.00  0.00    +0.000 OA
BRANCH  26  35
ATOM     27  O   UNL     1     111.221 129.755 137.766  0.00  0.00    +0.000 OA
ATOM     28  O   UNL     1     109.405 130.709 139.150  0.00  0.00    +0.000 OA
ATOM     29  O   UNL     1     110.890 131.427 139.129  0.00  0.00    +0.000 OA
ATOM     30  O   UNL     1     109.131 129.355 138.249  0.00  0.00    +0.000 OA
ATOM     31  C   UNL     1     110.011 130.391 138.689  0.00  0.00    +0.000 C 
ATOM     32  C   UNL     1     110.753 130.750 138.678  0.00  0.00    +0.000 C 
ATOM     33  C   UNL     1     109.873 129.713 138.238  0.00  0.00    +0.000 C 
ATOM     34  C   UNL     1     111.359 130.432 138.216  0.00  0.00    +0.000 C 
ATOM     35  C   UNL     1     110.479 129.395 137.776  0.00  0.00    +0.000 C 
BRANCH  34  37
ATOM     36  O   UNL     1     112.746 130.417 138.560  0.00  0.00    +0.000 OA
ATOM     37  C   UNL     1     112.101 130.791 138.206  0.00  0.00    +0.000 C 
ENDBRANCH  34  37
ENDBRANCH  26  35
ENDBRANCH   4  26
TORSDOF 7
ENDMDL
