MODEL 1
REMARK VINA RESULT:     -10.4      0.000      0.000
REMARK  Name = 14374725
REMARK  7 active torsions:
REMARK  status: ('A' for Active; 'I' for Inactive)
REMARK    1  A    between atoms: O_3  and  C_21
REMARK    2  A    between atoms: O_3  and  C_26
REMARK    3  A    between atoms: O_6  and  C_24
REMARK    4  A    between atoms: O_6  and  C_28
REMARK    5  A    between atoms: O_14  and  C_40
REMARK    6  A    between atoms: C_16  and  C_26
REMARK    7  A    between atoms: C_35  and  C_37
REMARK                            x       y       z     vdW  Elec       q    Type
REMARK                         _______ _______ _______ _____ _____    ______ ____
ROOT
ATOM      1  O   UNL     1     110.402 128.766 135.151  0.00  0.00    +0.000 OA
ENDROOT
BRANCH   1   5
ATOM      2  O   UNL     1     112.145 126.680 136.197  0.00  0.00    +0.000 OA
ATOM      3  O   UNL     1     109.644 125.953 134.947  0.00  0.00    +0.000 OA
ATOM      4  O   UNL     1     110.532 124.947 135.476  0.00  0.00    +0.000 OA
ATOM      5  C   UNL     1     110.562 127.968 135.288  0.00  0.00    +0.000 A 
ATOM      6  C   UNL     1     111.288 127.733 135.681  0.00  0.00    +0.000 A 
ATOM      7  C   UNL     1     110.001 127.366 135.037  0.00  0.00    +0.000 A 
ATOM      8  C   UNL     1     111.445 126.900 135.819  0.00  0.00    +0.000 A 
ATOM      9  C   UNL     1     110.176 126.537 135.184  0.00  0.00    +0.000 A 
ATOM     10  C   UNL     1     110.908 126.322 135.579  0.00  0.00    +0.000 A 
ATOM     11  C   UNL     1     111.069 125.525 135.716  0.00  0.00    +0.000 A 
ATOM     12  C   UNL     1     112.306 125.883 136.335  0.00  0.00    +0.000 A 
ATOM     13  C   UNL     1     111.769 125.305 136.094  0.00  0.00    +0.000 A 
BRANCH  12  15
ATOM     14  O   UNL     1     115.104 125.004 137.849  0.00  0.00    +0.000 OA
ATOM     15  C   UNL     1     113.006 125.663 136.713  0.00  0.00    +0.000 A 
ATOM     16  C   UNL     1     113.123 125.854 137.508  0.00  0.00    +0.000 A 
ATOM     17  C   UNL     1     113.588 125.252 136.298  0.00  0.00    +0.000 A 
ATOM     18  C   UNL     1     113.822 125.634 137.887  0.00  0.00    +0.000 A 
ATOM     19  C   UNL     1     114.288 125.033 136.677  0.00  0.00    +0.000 A 
ATOM     20  C   UNL     1     114.405 125.224 137.471  0.00  0.00    +0.000 A 
BRANCH  18  21
ATOM     21  O   UNL     1     113.939 125.825 138.681  0.00  0.00    +0.000 OA
ATOM     22  C   UNL     1     113.525 126.453 139.020  0.00  0.00    +0.000 C 
ENDBRANCH  18  21
ENDBRANCH  12  15
ENDBRANCH   1   5
BRANCH   1  31
ATOM     23  O   UNL     1     110.142 129.221 136.480  0.00  0.00    +0.000 OA
ATOM     24  O   UNL     1     108.531 130.463 137.275  0.00  0.00    +0.000 OA
ATOM     25  O   UNL     1     108.118 130.401 135.678  0.00  0.00    +0.000 OA
ATOM     26  O   UNL     1     109.054 129.552 134.617  0.00  0.00    +0.000 OA
ATOM     27  C   UNL     1     109.674 129.645 137.011  0.00  0.00    +0.000 C 
ATOM     28  C   UNL     1     108.999 130.039 136.744  0.00  0.00    +0.000 C 
ATOM     29  C   UNL     1     108.793 130.007 135.946  0.00  0.00    +0.000 C 
ATOM     30  C   UNL     1     109.261 129.583 135.415  0.00  0.00    +0.000 C 
ATOM     31  C   UNL     1     109.935 129.190 135.682  0.00  0.00    +0.000 C 
BRANCH  27  32
ATOM     32  C   UNL     1     109.879 129.676 137.810  0.00  0.00    +0.000 C 
BRANCH  32  33
ATOM     33  O   UNL     1     110.638 129.913 138.032  0.00  0.00    +0.000 OA
BRANCH  33  39
ATOM     34  O   UNL     1     110.619 129.158 139.244  0.00  0.00    +0.000 OA
ATOM     35  O   UNL     1     111.700 130.978 138.711  0.00  0.00    +0.000 OA
ATOM     36  O   UNL     1     112.212 130.755 140.263  0.00  0.00    +0.000 OA
ATOM     37  O   UNL     1     111.663 129.467 141.137  0.00  0.00    +0.000 OA
ATOM     38  C   UNL     1     111.425 130.334 139.148  0.00  0.00    +0.000 C 
ATOM     39  C   UNL     1     110.894 129.801 138.808  0.00  0.00    +0.000 C 
ATOM     40  C   UNL     1     111.681 130.223 139.924  0.00  0.00    +0.000 C 
ATOM     41  C   UNL     1     111.406 129.579 140.360  0.00  0.00    +0.000 C 
ATOM     42  C   UNL     1     110.875 129.046 140.020  0.00  0.00    +0.000 C 
ATOM     43  C   UNL     1     110.601 128.403 140.457  0.00  0.00    +0.000 C 
ENDBRANCH  33  39
ENDBRANCH  32  33
ENDBRANCH  27  32
ENDBRANCH   1  31
TORSDOF 7
ENDMDL
MODEL 2
REMARK VINA RESULT:     -10.4      1.770      2.323
REMARK  Name = 14374725
REMARK  7 active torsions:
REMARK  status: ('A' for Active; 'I' for Inactive)
REMARK    1  A    between atoms: O_3  and  C_21
REMARK    2  A    between atoms: O_3  and  C_26
REMARK    3  A    between atoms: O_6  and  C_24
REMARK    4  A    between atoms: O_6  and  C_28
REMARK    5  A    between atoms: O_14  and  C_40
REMARK    6  A    between atoms: C_16  and  C_26
REMARK    7  A    between atoms: C_35  and  C_37
REMARK                            x       y       z     vdW  Elec       q    Type
REMARK                         _______ _______ _______ _____ _____    ______ ____
ROOT
ATOM      1  O   UNL     1     109.114 128.182 136.684  0.00  0.00    +0.000 OA
ENDROOT
BRANCH   1   5
ATOM      2  O   UNL     1     111.232 126.185 136.594  0.00  0.00    +0.000 OA
ATOM      3  O   UNL     1     109.094 126.084 134.652  0.00  0.00    +0.000 OA
ATOM      4  O   UNL     1     110.160 125.112 134.638  0.00  0.00    +0.000 OA
ATOM      5  C   UNL     1     109.455 127.515 136.338  0.00  0.00    +0.000 A 
ATOM      6  C   UNL     1     110.184 127.189 136.654  0.00  0.00    +0.000 A 
ATOM      7  C   UNL     1     109.082 127.142 135.659  0.00  0.00    +0.000 A 
ATOM      8  C   UNL     1     110.531 126.494 136.286  0.00  0.00    +0.000 A 
ATOM      9  C   UNL     1     109.444 126.448 135.305  0.00  0.00    +0.000 A 
ATOM     10  C   UNL     1     110.174 126.136 135.634  0.00  0.00    +0.000 A 
ATOM     11  C   UNL     1     110.516 125.470 135.290  0.00  0.00    +0.000 A 
ATOM     12  C   UNL     1     111.574 125.518 136.250  0.00  0.00    +0.000 A 
ATOM     13  C   UNL     1     111.217 125.161 135.598  0.00  0.00    +0.000 A 
BRANCH  12  15
ATOM     14  O   UNL     1     114.376 124.282 137.479  0.00  0.00    +0.000 OA
ATOM     15  C   UNL     1     112.275 125.209 136.557  0.00  0.00    +0.000 A 
ATOM     16  C   UNL     1     112.966 125.659 136.543  0.00  0.00    +0.000 A 
ATOM     17  C   UNL     1     112.284 124.450 136.879  0.00  0.00    +0.000 A 
ATOM     18  C   UNL     1     113.667 125.351 136.850  0.00  0.00    +0.000 A 
ATOM     19  C   UNL     1     112.985 124.141 137.187  0.00  0.00    +0.000 A 
ATOM     20  C   UNL     1     113.676 124.592 137.172  0.00  0.00    +0.000 A 
BRANCH  18  21
ATOM     21  O   UNL     1     114.358 125.801 136.836  0.00  0.00    +0.000 OA
ATOM     22  C   UNL     1     114.596 126.169 136.136  0.00  0.00    +0.000 C 
ENDBRANCH  18  21
ENDBRANCH  12  15
ENDBRANCH   1   5
BRANCH   1  31
ATOM     23  O   UNL     1     110.070 129.196 136.371  0.00  0.00    +0.000 OA
ATOM     24  O   UNL     1     109.811 131.188 135.515  0.00  0.00    +0.000 OA
ATOM     25  O   UNL     1     108.248 130.662 135.558  0.00  0.00    +0.000 OA
ATOM     26  O   UNL     1     107.899 129.159 136.143  0.00  0.00    +0.000 OA
ATOM     27  C   UNL     1     110.245 129.948 136.078  0.00  0.00    +0.000 C 
ATOM     28  C   UNL     1     109.637 130.437 135.807  0.00  0.00    +0.000 C 
ATOM     29  C   UNL     1     108.856 130.173 135.829  0.00  0.00    +0.000 C 
ATOM     30  C   UNL     1     108.681 129.422 136.121  0.00  0.00    +0.000 C 
ATOM     31  C   UNL     1     109.288 128.934 136.392  0.00  0.00    +0.000 C 
BRANCH  27  32
ATOM     32  C   UNL     1     111.026 130.212 136.056  0.00  0.00    +0.000 C 
BRANCH  32  33
ATOM     33  O   UNL     1     111.512 130.118 136.716  0.00  0.00    +0.000 OA
BRANCH  33  39
ATOM     34  O   UNL     1     112.715 129.875 135.984  0.00  0.00    +0.000 OA
ATOM     35  O   UNL     1     112.378 130.911 137.876  0.00  0.00    +0.000 OA
ATOM     36  O   UNL     1     114.014 131.064 137.723  0.00  0.00    +0.000 OA
ATOM     37  O   UNL     1     114.784 130.425 136.412  0.00  0.00    +0.000 OA
ATOM     38  C   UNL     1     112.763 130.591 137.219  0.00  0.00    +0.000 C 
ATOM     39  C   UNL     1     112.330 130.194 136.640  0.00  0.00    +0.000 C 
ATOM     40  C   UNL     1     113.581 130.668 137.144  0.00  0.00    +0.000 C 
ATOM     41  C   UNL     1     113.965 130.348 136.488  0.00  0.00    +0.000 C 
ATOM     42  C   UNL     1     113.532 129.951 135.908  0.00  0.00    +0.000 C 
ATOM     43  C   UNL     1     113.918 129.632 135.252  0.00  0.00    +0.000 C 
ENDBRANCH  33  39
ENDBRANCH  32  33
ENDBRANCH  27  32
ENDBRANCH   1  31
TORSDOF 7
ENDMDL
MODEL 3
REMARK VINA RESULT:     -10.2      2.224      3.193
REMARK  Name = 14374725
REMARK  7 active torsions:
REMARK  status: ('A' for Active; 'I' for Inactive)
REMARK    1  A    between atoms: O_3  and  C_21
REMARK    2  A    between atoms: O_3  and  C_26
REMARK    3  A    between atoms: O_6  and  C_24
REMARK    4  A    between atoms: O_6  and  C_28
REMARK    5  A    between atoms: O_14  and  C_40
REMARK    6  A    between atoms: C_16  and  C_26
REMARK    7  A    between atoms: C_35  and  C_37
REMARK                            x       y       z     vdW  Elec       q    Type
REMARK                         _______ _______ _______ _____ _____    ______ ____
ROOT
ATOM      1  O   UNL     1     113.037 129.396 134.949  0.00  0.00    +0.000 OA
ENDROOT
BRANCH   1   5
ATOM      2  O   UNL     1     111.915 126.907 135.964  0.00  0.00    +0.000 OA
ATOM      3  O   UNL     1     110.198 128.797 134.612  0.00  0.00    +0.000 OA
ATOM      4  O   UNL     1     109.678 127.554 135.127  0.00  0.00    +0.000 OA
ATOM      5  C   UNL     1     112.391 128.893 135.059  0.00  0.00    +0.000 A 
ATOM      6  C   UNL     1     112.491 128.143 135.464  0.00  0.00    +0.000 A 
ATOM      7  C   UNL     1     111.614 129.118 134.769  0.00  0.00    +0.000 A 
ATOM      8  C   UNL     1     111.813 127.626 135.574  0.00  0.00    +0.000 A 
ATOM      9  C   UNL     1     110.948 128.589 134.887  0.00  0.00    +0.000 A 
ATOM     10  C   UNL     1     111.067 127.843 135.295  0.00  0.00    +0.000 A 
ATOM     11  C   UNL     1     110.424 127.339 135.406  0.00  0.00    +0.000 A 
ATOM     12  C   UNL     1     111.271 126.403 136.075  0.00  0.00    +0.000 A 
ATOM     13  C   UNL     1     110.526 126.619 135.796  0.00  0.00    +0.000 A 
BRANCH  12  15
ATOM     14  O   UNL     1     111.680 123.524 137.635  0.00  0.00    +0.000 OA
ATOM     15  C   UNL     1     111.374 125.683 136.464  0.00  0.00    +0.000 A 
ATOM     16  C   UNL     1     111.234 125.630 137.276  0.00  0.00    +0.000 A 
ATOM     17  C   UNL     1     111.615 125.016 136.043  0.00  0.00    +0.000 A 
ATOM     18  C   UNL     1     111.336 124.910 137.667  0.00  0.00    +0.000 A 
ATOM     19  C   UNL     1     111.717 124.296 136.434  0.00  0.00    +0.000 A 
ATOM     20  C   UNL     1     111.577 124.244 137.245  0.00  0.00    +0.000 A 
BRANCH  18  21
ATOM     21  O   UNL     1     111.197 124.857 138.478  0.00  0.00    +0.000 OA
ATOM     22  C   UNL     1     110.860 125.493 138.881  0.00  0.00    +0.000 C 
ENDBRANCH  18  21
ENDBRANCH  12  15
ENDBRANCH   1   5
BRANCH   1  31
ATOM     23  O   UNL     1     112.802 130.138 136.148  0.00  0.00    +0.000 OA
ATOM     24  O   UNL     1     114.185 131.184 137.474  0.00  0.00    +0.000 OA
ATOM     25  O   UNL     1     115.228 130.593 136.340  0.00  0.00    +0.000 OA
ATOM     26  O   UNL     1     114.654 129.700 135.077  0.00  0.00    +0.000 OA
ATOM     27  C   UNL     1     113.089 130.585 136.779  0.00  0.00    +0.000 C 
ATOM     28  C   UNL     1     113.898 130.737 136.843  0.00  0.00    +0.000 C 
ATOM     29  C   UNL     1     114.419 130.441 136.275  0.00  0.00    +0.000 C 
ATOM     30  C   UNL     1     114.132 129.994 135.644  0.00  0.00    +0.000 C 
ATOM     31  C   UNL     1     113.324 129.843 135.580  0.00  0.00    +0.000 C 
BRANCH  27  32
ATOM     32  C   UNL     1     112.569 130.880 137.346  0.00  0.00    +0.000 C 
BRANCH  32  33
ATOM     33  O   UNL     1     111.927 131.345 137.116  0.00  0.00    +0.000 OA
BRANCH  33  39
ATOM     34  O   UNL     1     111.108 130.878 138.190  0.00  0.00    +0.000 OA
ATOM     35  O   UNL     1     111.027 132.726 137.030  0.00  0.00    +0.000 OA
ATOM     36  O   UNL     1     109.758 132.949 138.061  0.00  0.00    +0.000 OA
ATOM     37  O   UNL     1     109.389 131.792 139.178  0.00  0.00    +0.000 OA
ATOM     38  C   UNL     1     110.843 132.146 137.589  0.00  0.00    +0.000 C 
ATOM     39  C   UNL     1     111.293 131.456 137.632  0.00  0.00    +0.000 C 
ATOM     40  C   UNL     1     110.208 132.259 138.104  0.00  0.00    +0.000 C 
ATOM     41  C   UNL     1     110.024 131.680 138.662  0.00  0.00    +0.000 C 
ATOM     42  C   UNL     1     110.474 130.990 138.705  0.00  0.00    +0.000 C 
ATOM     43  C   UNL     1     110.289 130.411 139.264  0.00  0.00    +0.000 C 
ENDBRANCH  33  39
ENDBRANCH  32  33
ENDBRANCH  27  32
ENDBRANCH   1  31
TORSDOF 7
ENDMDL
MODEL 4
REMARK VINA RESULT:     -10.1      8.576     11.826
REMARK  Name = 14374725
REMARK  7 active torsions:
REMARK  status: ('A' for Active; 'I' for Inactive)
REMARK    1  A    between atoms: O_3  and  C_21
REMARK    2  A    between atoms: O_3  and  C_26
REMARK    3  A    between atoms: O_6  and  C_24
REMARK    4  A    between atoms: O_6  and  C_28
REMARK    5  A    between atoms: O_14  and  C_40
REMARK    6  A    between atoms: C_16  and  C_26
REMARK    7  A    between atoms: C_35  and  C_37
REMARK                            x       y       z     vdW  Elec       q    Type
REMARK                         _______ _______ _______ _____ _____    ______ ____
ROOT
ATOM      1  O   UNL     1     107.311 126.129 146.352  0.00  0.00    +0.000 OA
ENDROOT
BRANCH   1   5
ATOM      2  O   UNL     1     105.829 127.555 144.290  0.00  0.00    +0.000 OA
ATOM      3  O   UNL     1     106.119 128.736 146.910  0.00  0.00    +0.000 OA
ATOM      4  O   UNL     1     105.392 129.413 145.864  0.00  0.00    +0.000 OA
ATOM      5  C   UNL     1     106.875 126.786 146.108  0.00  0.00    +0.000 A 
ATOM      6  C   UNL     1     106.571 126.830 145.306  0.00  0.00    +0.000 A 
ATOM      7  C   UNL     1     106.724 127.432 146.655  0.00  0.00    +0.000 A 
ATOM      8  C   UNL     1     106.119 127.518 145.061  0.00  0.00    +0.000 A 
ATOM      9  C   UNL     1     106.269 128.112 146.392  0.00  0.00    +0.000 A 
ATOM     10  C   UNL     1     105.973 128.138 145.586  0.00  0.00    +0.000 A 
ATOM     11  C   UNL     1     105.538 128.794 145.340  0.00  0.00    +0.000 A 
ATOM     12  C   UNL     1     105.393 128.211 144.043  0.00  0.00    +0.000 A 
ATOM     13  C   UNL     1     105.248 128.830 144.569  0.00  0.00    +0.000 A 
BRANCH  12  15
ATOM     14  O   UNL     1     104.234 128.356 140.957  0.00  0.00    +0.000 OA
ATOM     15  C   UNL     1     105.103 128.247 143.272  0.00  0.00    +0.000 A 
ATOM     16  C   UNL     1     105.371 127.711 142.705  0.00  0.00    +0.000 A 
ATOM     17  C   UNL     1     104.546 128.820 143.068  0.00  0.00    +0.000 A 
ATOM     18  C   UNL     1     105.081 127.747 141.933  0.00  0.00    +0.000 A 
ATOM     19  C   UNL     1     104.256 128.856 142.295  0.00  0.00    +0.000 A 
ATOM     20  C   UNL     1     104.524 128.320 141.729  0.00  0.00    +0.000 A 
BRANCH  18  21
ATOM     21  O   UNL     1     105.349 127.211 141.366  0.00  0.00    +0.000 OA
ATOM     22  C   UNL     1     105.593 126.457 141.594  0.00  0.00    +0.000 C 
ENDBRANCH  18  21
ENDBRANCH  12  15
ENDBRANCH   1   5
BRANCH   1  31
ATOM     23  O   UNL     1     106.225 125.350 146.856  0.00  0.00    +0.000 OA
ATOM     24  O   UNL     1     106.077 124.084 148.630  0.00  0.00    +0.000 OA
ATOM     25  O   UNL     1     107.632 124.621 148.758  0.00  0.00    +0.000 OA
ATOM     26  O   UNL     1     108.249 125.643 147.619  0.00  0.00    +0.000 OA
ATOM     27  C   UNL     1     105.916 124.838 147.426  0.00  0.00    +0.000 C 
ATOM     28  C   UNL     1     106.386 124.595 148.060  0.00  0.00    +0.000 C 
ATOM     29  C   UNL     1     107.163 124.864 148.124  0.00  0.00    +0.000 C 
ATOM     30  C   UNL     1     107.471 125.375 147.554  0.00  0.00    +0.000 C 
ATOM     31  C   UNL     1     107.003 125.618 146.921  0.00  0.00    +0.000 C 
BRANCH  27  32
ATOM     32  C   UNL     1     105.139 124.570 147.362  0.00  0.00    +0.000 C 
BRANCH  32  33
ATOM     33  O   UNL     1     104.895 124.170 146.683  0.00  0.00    +0.000 OA
BRANCH  33  39
ATOM     34  O   UNL     1     103.524 124.384 147.026  0.00  0.00    +0.000 OA
ATOM     35  O   UNL     1     104.437 123.074 145.538  0.00  0.00    +0.000 OA
ATOM     36  O   UNL     1     102.838 122.739 145.309  0.00  0.00    +0.000 OA
ATOM     37  O   UNL     1     101.696 123.501 146.224  0.00  0.00    +0.000 OA
ATOM     38  C   UNL     1     103.866 123.455 145.997  0.00  0.00    +0.000 C 
ATOM     39  C   UNL     1     104.095 124.003 146.569  0.00  0.00    +0.000 C 
ATOM     40  C   UNL     1     103.066 123.287 145.881  0.00  0.00    +0.000 C 
ATOM     41  C   UNL     1     102.496 123.669 146.339  0.00  0.00    +0.000 C 
ATOM     42  C   UNL     1     102.725 124.217 146.912  0.00  0.00    +0.000 C 
ATOM     43  C   UNL     1     102.153 124.598 147.369  0.00  0.00    +0.000 C 
ENDBRANCH  33  39
ENDBRANCH  32  33
ENDBRANCH  27  32
ENDBRANCH   1  31
TORSDOF 7
ENDMDL
MODEL 5
REMARK VINA RESULT:     -10.1      1.609      5.861
REMARK  Name = 14374725
REMARK  7 active torsions:
REMARK  status: ('A' for Active; 'I' for Inactive)
REMARK    1  A    between atoms: O_3  and  C_21
REMARK    2  A    between atoms: O_3  and  C_26
REMARK    3  A    between atoms: O_6  and  C_24
REMARK    4  A    between atoms: O_6  and  C_28
REMARK    5  A    between atoms: O_14  and  C_40
REMARK    6  A    between atoms: C_16  and  C_26
REMARK    7  A    between atoms: C_35  and  C_37
REMARK                            x       y       z     vdW  Elec       q    Type
REMARK                         _______ _______ _______ _____ _____    ______ ____
ROOT
ATOM      1  O   UNL     1     112.995 129.273 139.470  0.00  0.00    +0.000 OA
ENDROOT
BRANCH   1   5
ATOM      2  O   UNL     1     110.972 129.801 137.442  0.00  0.00    +0.000 OA
ATOM      3  O   UNL     1     113.755 129.659 136.676  0.00  0.00    +0.000 OA
ATOM      4  O   UNL     1     112.725 129.919 135.699  0.00  0.00    +0.000 OA
ATOM      5  C   UNL     1     112.791 129.422 138.684  0.00  0.00    +0.000 A 
ATOM      6  C   UNL     1     111.968 129.537 138.466  0.00  0.00    +0.000 A 
ATOM      7  C   UNL     1     113.400 129.463 138.079  0.00  0.00    +0.000 A 
ATOM      8  C   UNL     1     111.764 129.691 137.645  0.00  0.00    +0.000 A 
ATOM      9  C   UNL     1     113.177 129.618 137.263  0.00  0.00    +0.000 A 
ATOM     10  C   UNL     1     112.349 129.731 137.065  0.00  0.00    +0.000 A 
ATOM     11  C   UNL     1     112.142 129.880 136.280  0.00  0.00    +0.000 A 
ATOM     12  C   UNL     1     110.765 129.950 136.657  0.00  0.00    +0.000 A 
ATOM     13  C   UNL     1     111.350 129.989 136.076  0.00  0.00    +0.000 A 
BRANCH  12  15
ATOM     14  O   UNL     1     107.597 130.388 135.842  0.00  0.00    +0.000 OA
ATOM     15  C   UNL     1     109.973 130.060 136.454  0.00  0.00    +0.000 A 
ATOM     16  C   UNL     1     109.499 129.409 136.277  0.00  0.00    +0.000 A 
ATOM     17  C   UNL     1     109.656 130.821 136.427  0.00  0.00    +0.000 A 
ATOM     18  C   UNL     1     108.707 129.517 136.073  0.00  0.00    +0.000 A 
ATOM     19  C   UNL     1     108.863 130.930 136.223  0.00  0.00    +0.000 A 
ATOM     20  C   UNL     1     108.389 130.278 136.046  0.00  0.00    +0.000 A 
BRANCH  18  21
ATOM     21  O   UNL     1     108.232 128.866 135.897  0.00  0.00    +0.000 OA
ATOM     22  C   UNL     1     108.576 128.127 135.769  0.00  0.00    +0.000 C 
ENDBRANCH  18  21
ENDBRANCH  12  15
ENDBRANCH   1   5
BRANCH   1  31
ATOM     23  O   UNL     1     112.925 127.851 139.347  0.00  0.00    +0.000 OA
ATOM     24  O   UNL     1     112.384 126.317 140.803  0.00  0.00    +0.000 OA
ATOM     25  O   UNL     1     112.219 127.683 141.714  0.00  0.00    +0.000 OA
ATOM     26  O   UNL     1     112.525 129.161 141.047  0.00  0.00    +0.000 OA
ATOM     27  C   UNL     1     112.772 127.112 139.680  0.00  0.00    +0.000 C 
ATOM     28  C   UNL     1     112.537 127.056 140.470  0.00  0.00    +0.000 C 
ATOM     29  C   UNL     1     112.455 127.739 140.924  0.00  0.00    +0.000 C 
ATOM     30  C   UNL     1     112.608 128.478 140.591  0.00  0.00    +0.000 C 
ATOM     31  C   UNL     1     112.842 128.534 139.803  0.00  0.00    +0.000 C 
BRANCH  27  32
ATOM     32  C   UNL     1     112.854 126.429 139.225  0.00  0.00    +0.000 C 
BRANCH  32  33
ATOM     33  O   UNL     1     113.516 126.332 138.742  0.00  0.00    +0.000 OA
BRANCH  33  39
ATOM     34  O   UNL     1     112.811 125.551 137.774  0.00  0.00    +0.000 OA
ATOM     35  O   UNL     1     114.923 125.578 138.324  0.00  0.00    +0.000 OA
ATOM     36  O   UNL     1     114.922 124.421 137.148  0.00  0.00    +0.000 OA
ATOM     37  O   UNL     1     113.513 124.017 136.389  0.00  0.00    +0.000 OA
ATOM     38  C   UNL     1     114.218 125.376 137.945  0.00  0.00    +0.000 C 
ATOM     39  C   UNL     1     113.514 125.753 138.153  0.00  0.00    +0.000 C 
ATOM     40  C   UNL     1     114.218 124.798 137.357  0.00  0.00    +0.000 C 
ATOM     41  C   UNL     1     113.514 124.596 136.978  0.00  0.00    +0.000 C 
ATOM     42  C   UNL     1     112.810 124.973 137.187  0.00  0.00    +0.000 C 
ATOM     43  C   UNL     1     112.106 124.770 136.807  0.00  0.00    +0.000 C 
ENDBRANCH  33  39
ENDBRANCH  32  33
ENDBRANCH  27  32
ENDBRANCH   1  31
TORSDOF 7
ENDMDL
MODEL 6
REMARK VINA RESULT:     -10.1      1.678      2.595
REMARK  Name = 14374725
REMARK  7 active torsions:
REMARK  status: ('A' for Active; 'I' for Inactive)
REMARK    1  A    between atoms: O_3  and  C_21
REMARK    2  A    between atoms: O_3  and  C_26
REMARK    3  A    between atoms: O_6  and  C_24
REMARK    4  A    between atoms: O_6  and  C_28
REMARK    5  A    between atoms: O_14  and  C_40
REMARK    6  A    between atoms: C_16  and  C_26
REMARK    7  A    between atoms: C_35  and  C_37
REMARK                            x       y       z     vdW  Elec       q    Type
REMARK                         _______ _______ _______ _____ _____    ______ ____
ROOT
ATOM      1  O   UNL     1     110.437 130.672 135.928  0.00  0.00    +0.000 OA
ENDROOT
BRANCH   1   5
ATOM      2  O   UNL     1     110.397 127.761 136.007  0.00  0.00    +0.000 OA
ATOM      3  O   UNL     1     107.911 129.214 135.773  0.00  0.00    +0.000 OA
ATOM      4  O   UNL     1     107.930 127.772 135.815  0.00  0.00    +0.000 OA
ATOM      5  C   UNL     1     110.018 129.961 135.916  0.00  0.00    +0.000 A 
ATOM      6  C   UNL     1     110.435 129.212 135.969  0.00  0.00    +0.000 A 
ATOM      7  C   UNL     1     109.161 129.965 135.849  0.00  0.00    +0.000 A 
ATOM      8  C   UNL     1     109.991 128.477 135.956  0.00  0.00    +0.000 A 
ATOM      9  C   UNL     1     108.733 129.220 135.837  0.00  0.00    +0.000 A 
ATOM     10  C   UNL     1     109.168 128.481 135.891  0.00  0.00    +0.000 A 
ATOM     11  C   UNL     1     108.752 127.769 135.879  0.00  0.00    +0.000 A 
ATOM     12  C   UNL     1     109.981 127.049 135.995  0.00  0.00    +0.000 A 
ATOM     13  C   UNL     1     109.158 127.053 135.931  0.00  0.00    +0.000 A 
BRANCH  12  15
ATOM     14  O   UNL     1     111.606 124.184 136.204  0.00  0.00    +0.000 OA
ATOM     15  C   UNL     1     110.387 126.333 136.047  0.00  0.00    +0.000 A 
ATOM     16  C   UNL     1     110.568 126.014 136.786  0.00  0.00    +0.000 A 
ATOM     17  C   UNL     1     110.612 125.935 135.360  0.00  0.00    +0.000 A 
ATOM     18  C   UNL     1     110.974 125.298 136.839  0.00  0.00    +0.000 A 
ATOM     19  C   UNL     1     111.019 125.218 135.413  0.00  0.00    +0.000 A 
ATOM     20  C   UNL     1     111.200 124.900 136.152  0.00  0.00    +0.000 A 
BRANCH  18  21
ATOM     21  O   UNL     1     111.156 124.979 137.578  0.00  0.00    +0.000 OA
ATOM     22  C   UNL     1     111.362 125.476 138.203  0.00  0.00    +0.000 C 
ENDBRANCH  18  21
ENDBRANCH  12  15
ENDBRANCH   1   5
BRANCH   1  31
ATOM     23  O   UNL     1     110.746 130.768 137.320  0.00  0.00    +0.000 OA
ATOM     24  O   UNL     1     110.591 132.449 138.705  0.00  0.00    +0.000 OA
ATOM     25  O   UNL     1     110.051 133.144 137.310  0.00  0.00    +0.000 OA
ATOM     26  O   UNL     1     109.974 132.256 135.921  0.00  0.00    +0.000 OA
ATOM     27  C   UNL     1     110.784 131.212 138.014  0.00  0.00    +0.000 C 
ATOM     28  C   UNL     1     110.552 132.004 138.011  0.00  0.00    +0.000 C 
ATOM     29  C   UNL     1     110.282 132.352 137.313  0.00  0.00    +0.000 C 
ATOM     30  C   UNL     1     110.244 131.907 136.619  0.00  0.00    +0.000 C 
ATOM     31  C   UNL     1     110.475 131.116 136.622  0.00  0.00    +0.000 C 
BRANCH  27  32
ATOM     32  C   UNL     1     111.054 130.865 138.712  0.00  0.00    +0.000 C 
BRANCH  32  33
ATOM     33  O   UNL     1     111.805 130.524 138.740  0.00  0.00    +0.000 OA
BRANCH  33  39
ATOM     34  O   UNL     1     111.466 129.520 139.698  0.00  0.00    +0.000 OA
ATOM     35  O   UNL     1     113.328 130.610 139.370  0.00  0.00    +0.000 OA
ATOM     36  O   UNL     1     113.750 129.648 140.642  0.00  0.00    +0.000 OA
ATOM     37  O   UNL     1     112.649 128.601 141.285  0.00  0.00    +0.000 OA
ATOM     38  C   UNL     1     112.777 130.086 139.691  0.00  0.00    +0.000 C 
ATOM     39  C   UNL     1     112.015 130.043 139.377  0.00  0.00    +0.000 C 
ATOM     40  C   UNL     1     112.988 129.605 140.328  0.00  0.00    +0.000 C 
ATOM     41  C   UNL     1     112.438 129.082 140.649  0.00  0.00    +0.000 C 
ATOM     42  C   UNL     1     111.676 129.039 140.334  0.00  0.00    +0.000 C 
ATOM     43  C   UNL     1     111.126 128.515 140.656  0.00  0.00    +0.000 C 
ENDBRANCH  33  39
ENDBRANCH  32  33
ENDBRANCH  27  32
ENDBRANCH   1  31
TORSDOF 7
ENDMDL
MODEL 7
REMARK VINA RESULT:     -10.1      1.563      3.948
REMARK  Name = 14374725
REMARK  7 active torsions:
REMARK  status: ('A' for Active; 'I' for Inactive)
REMARK    1  A    between atoms: O_3  and  C_21
REMARK    2  A    between atoms: O_3  and  C_26
REMARK    3  A    between atoms: O_6  and  C_24
REMARK    4  A    between atoms: O_6  and  C_28
REMARK    5  A    between atoms: O_14  and  C_40
REMARK    6  A    between atoms: C_16  and  C_26
REMARK    7  A    between atoms: C_35  and  C_37
REMARK                            x       y       z     vdW  Elec       q    Type
REMARK                         _______ _______ _______ _____ _____    ______ ____
ROOT
ATOM      1  O   UNL     1     112.967 130.063 138.879  0.00  0.00    +0.000 OA
ENDROOT
BRANCH   1   5
ATOM      2  O   UNL     1     113.218 127.575 137.387  0.00  0.00    +0.000 OA
ATOM      3  O   UNL     1     113.523 130.098 136.012  0.00  0.00    +0.000 OA
ATOM      4  O   UNL     1     113.641 128.846 135.306  0.00  0.00    +0.000 OA
ATOM      5  C   UNL     1     113.098 129.664 138.169  0.00  0.00    +0.000 A 
ATOM      6  C   UNL     1     113.090 128.806 138.147  0.00  0.00    +0.000 A 
ATOM      7  C   UNL     1     113.245 130.106 137.446  0.00  0.00    +0.000 A 
ATOM      8  C   UNL     1     113.228 128.400 137.402  0.00  0.00    +0.000 A 
ATOM      9  C   UNL     1     113.382 129.683 136.711  0.00  0.00    +0.000 A 
ATOM     10  C   UNL     1     113.369 128.824 136.708  0.00  0.00    +0.000 A 
ATOM     11  C   UNL     1     113.500 128.423 136.000  0.00  0.00    +0.000 A 
ATOM     12  C   UNL     1     113.350 127.174 136.678  0.00  0.00    +0.000 A 
ATOM     13  C   UNL     1     113.491 127.598 135.984  0.00  0.00    +0.000 A 
BRANCH  12  15
ATOM     14  O   UNL     1     113.311 123.875 136.616  0.00  0.00    +0.000 OA
ATOM     15  C   UNL     1     113.340 126.349 136.662  0.00  0.00    +0.000 A 
ATOM     16  C   UNL     1     112.624 125.946 136.593  0.00  0.00    +0.000 A 
ATOM     17  C   UNL     1     114.047 125.928 136.716  0.00  0.00    +0.000 A 
ATOM     18  C   UNL     1     112.613 125.121 136.578  0.00  0.00    +0.000 A 
ATOM     19  C   UNL     1     114.037 125.102 136.701  0.00  0.00    +0.000 A 
ATOM     20  C   UNL     1     113.320 124.700 136.632  0.00  0.00    +0.000 A 
BRANCH  18  21
ATOM     21  O   UNL     1     111.897 124.718 136.509  0.00  0.00    +0.000 OA
ATOM     22  C   UNL     1     111.276 125.051 136.079  0.00  0.00    +0.000 C 
ENDBRANCH  18  21
ENDBRANCH  12  15
ENDBRANCH   1   5
BRANCH   1  31
ATOM     23  O   UNL     1     111.564 130.238 138.674  0.00  0.00    +0.000 OA
ATOM     24  O   UNL     1     109.908 130.301 140.096  0.00  0.00    +0.000 OA
ATOM     25  O   UNL     1     111.186 130.071 141.115  0.00  0.00    +0.000 OA
ATOM     26  O   UNL     1     112.715 129.953 140.506  0.00  0.00    +0.000 OA
ATOM     27  C   UNL     1     110.799 130.297 138.978  0.00  0.00    +0.000 C 
ATOM     28  C   UNL     1     110.673 130.242 139.792  0.00  0.00    +0.000 C 
ATOM     29  C   UNL     1     111.312 130.127 140.300  0.00  0.00    +0.000 C 
ATOM     30  C   UNL     1     112.076 130.067 139.996  0.00  0.00    +0.000 C 
ATOM     31  C   UNL     1     112.202 130.123 139.184  0.00  0.00    +0.000 C 
BRANCH  27  32
ATOM     32  C   UNL     1     110.160 130.412 138.469  0.00  0.00    +0.000 C 
BRANCH  32  33
ATOM     33  O   UNL     1     110.022 129.881 137.853  0.00  0.00    +0.000 OA
BRANCH  33  39
ATOM     34  O   UNL     1     109.128 130.813 137.240  0.00  0.00    +0.000 OA
ATOM     35  O   UNL     1     109.585 128.736 136.748  0.00  0.00    +0.000 OA
ATOM     36  O   UNL     1     108.473 129.095 135.583  0.00  0.00    +0.000 OA
ATOM     37  O   UNL     1     107.798 130.599 135.523  0.00  0.00    +0.000 OA
ATOM     38  C   UNL     1     109.247 129.489 136.718  0.00  0.00    +0.000 C 
ATOM     39  C   UNL     1     109.466 130.061 137.270  0.00  0.00    +0.000 C 
ATOM     40  C   UNL     1     108.691 129.667 136.136  0.00  0.00    +0.000 C 
ATOM     41  C   UNL     1     108.354 130.420 136.106  0.00  0.00    +0.000 C 
ATOM     42  C   UNL     1     108.573 130.992 136.658  0.00  0.00    +0.000 C 
ATOM     43  C   UNL     1     108.235 131.745 136.627  0.00  0.00    +0.000 C 
ENDBRANCH  33  39
ENDBRANCH  32  33
ENDBRANCH  27  32
ENDBRANCH   1  31
TORSDOF 7
ENDMDL
MODEL 8
REMARK VINA RESULT:     -10.0      1.726      4.919
REMARK  Name = 14374725
REMARK  7 active torsions:
REMARK  status: ('A' for Active; 'I' for Inactive)
REMARK    1  A    between atoms: O_3  and  C_21
REMARK    2  A    between atoms: O_3  and  C_26
REMARK    3  A    between atoms: O_6  and  C_24
REMARK    4  A    between atoms: O_6  and  C_28
REMARK    5  A    between atoms: O_14  and  C_40
REMARK    6  A    between atoms: C_16  and  C_26
REMARK    7  A    between atoms: C_35  and  C_37
REMARK                            x       y       z     vdW  Elec       q    Type
REMARK                         _______ _______ _______ _____ _____    ______ ____
ROOT
ATOM      1  O   UNL     1     110.909 127.495 135.531  0.00  0.00    +0.000 OA
ENDROOT
BRANCH   1   5
ATOM      2  O   UNL     1     110.137 130.083 136.623  0.00  0.00    +0.000 OA
ATOM      3  O   UNL     1     108.104 128.308 135.590  0.00  0.00    +0.000 OA
ATOM      4  O   UNL     1     107.759 129.597 136.139  0.00  0.00    +0.000 OA
ATOM      5  C   UNL     1     110.325 128.048 135.718  0.00  0.00    +0.000 A 
ATOM      6  C   UNL     1     110.539 128.796 136.082  0.00  0.00    +0.000 A 
ATOM      7  C   UNL     1     109.499 127.880 135.550  0.00  0.00    +0.000 A 
ATOM      8  C   UNL     1     109.925 129.366 136.273  0.00  0.00    +0.000 A 
ATOM      9  C   UNL     1     108.899 128.461 135.748  0.00  0.00    +0.000 A 
ATOM     10  C   UNL     1     109.132 129.204 136.112  0.00  0.00    +0.000 A 
ATOM     11  C   UNL     1     108.551 129.758 136.300  0.00  0.00    +0.000 A 
ATOM     12  C   UNL     1     109.556 130.637 136.811  0.00  0.00    +0.000 A 
ATOM     13  C   UNL     1     108.763 130.475 136.649  0.00  0.00    +0.000 A 
BRANCH  12  15
ATOM     14  O   UNL     1     110.402 133.504 138.210  0.00  0.00    +0.000 OA
ATOM     15  C   UNL     1     109.767 131.354 137.160  0.00  0.00    +0.000 A 
ATOM     16  C   UNL     1     109.838 131.408 137.981  0.00  0.00    +0.000 A 
ATOM     17  C   UNL     1     109.907 132.017 136.690  0.00  0.00    +0.000 A 
ATOM     18  C   UNL     1     110.050 132.124 138.331  0.00  0.00    +0.000 A 
ATOM     19  C   UNL     1     110.119 132.734 137.041  0.00  0.00    +0.000 A 
ATOM     20  C   UNL     1     110.190 132.787 137.860  0.00  0.00    +0.000 A 
BRANCH  18  21
ATOM     21  O   UNL     1     110.121 132.178 139.151  0.00  0.00    +0.000 OA
ATOM     22  C   UNL     1     110.109 131.494 139.612  0.00  0.00    +0.000 C 
ENDBRANCH  18  21
ENDBRANCH  12  15
ENDBRANCH   1   5
BRANCH   1  31
ATOM     23  O   UNL     1     111.073 126.836 136.788  0.00  0.00    +0.000 OA
ATOM     24  O   UNL     1     111.168 124.712 137.286  0.00  0.00    +0.000 OA
ATOM     25  O   UNL     1     110.968 124.640 135.649  0.00  0.00    +0.000 OA
ATOM     26  O   UNL     1     110.838 126.032 134.772  0.00  0.00    +0.000 OA
ATOM     27  C   UNL     1     111.138 126.140 137.227  0.00  0.00    +0.000 C 
ATOM     28  C   UNL     1     111.103 125.408 136.847  0.00  0.00    +0.000 C 
ATOM     29  C   UNL     1     111.003 125.373 136.029  0.00  0.00    +0.000 C 
ATOM     30  C   UNL     1     110.938 126.068 135.591  0.00  0.00    +0.000 C 
ATOM     31  C   UNL     1     110.973 126.799 135.970  0.00  0.00    +0.000 C 
BRANCH  27  32
ATOM     32  C   UNL     1     111.238 126.176 138.045  0.00  0.00    +0.000 C 
BRANCH  32  33
ATOM     33  O   UNL     1     111.847 126.630 138.367  0.00  0.00    +0.000 OA
BRANCH  33  39
ATOM     34  O   UNL     1     111.260 126.648 139.670  0.00  0.00    +0.000 OA
ATOM     35  O   UNL     1     113.341 126.831 139.037  0.00  0.00    +0.000 OA
ATOM     36  O   UNL     1     113.502 126.950 140.675  0.00  0.00    +0.000 OA
ATOM     37  O   UNL     1     112.169 126.868 141.643  0.00  0.00    +0.000 OA
ATOM     38  C   UNL     1     112.674 126.790 139.521  0.00  0.00    +0.000 C 
ATOM     39  C   UNL     1     111.927 126.689 139.187  0.00  0.00    +0.000 C 
ATOM     40  C   UNL     1     112.755 126.850 140.340  0.00  0.00    +0.000 C 
ATOM     41  C   UNL     1     112.088 126.809 140.824  0.00  0.00    +0.000 C 
ATOM     42  C   UNL     1     111.341 126.708 140.489  0.00  0.00    +0.000 C 
ATOM     43  C   UNL     1     110.674 126.667 140.974  0.00  0.00    +0.000 C 
ENDBRANCH  33  39
ENDBRANCH  32  33
ENDBRANCH  27  32
ENDBRANCH   1  31
TORSDOF 7
ENDMDL
MODEL 9
REMARK VINA RESULT:      -9.9      1.956      4.986
REMARK  Name = 14374725
REMARK  7 active torsions:
REMARK  status: ('A' for Active; 'I' for Inactive)
REMARK    1  A    between atoms: O_3  and  C_21
REMARK    2  A    between atoms: O_3  and  C_26
REMARK    3  A    between atoms: O_6  and  C_24
REMARK    4  A    between atoms: O_6  and  C_28
REMARK    5  A    between atoms: O_14  and  C_40
REMARK    6  A    between atoms: C_16  and  C_26
REMARK    7  A    between atoms: C_35  and  C_37
REMARK                            x       y       z     vdW  Elec       q    Type
REMARK                         _______ _______ _______ _____ _____    ______ ____
ROOT
ATOM      1  O   UNL     1     111.020 127.205 135.725  0.00  0.00    +0.000 OA
ENDROOT
BRANCH   1   5
ATOM      2  O   UNL     1     111.136 129.904 136.815  0.00  0.00    +0.000 OA
ATOM      3  O   UNL     1     113.508 128.734 135.652  0.00  0.00    +0.000 OA
ATOM      4  O   UNL     1     113.528 130.067 136.202  0.00  0.00    +0.000 OA
ATOM      5  C   UNL     1     111.445 127.893 135.890  0.00  0.00    +0.000 A 
ATOM      6  C   UNL     1     111.060 128.557 136.276  0.00  0.00    +0.000 A 
ATOM      7  C   UNL     1     112.276 127.950 135.677  0.00  0.00    +0.000 A 
ATOM      8  C   UNL     1     111.511 129.269 136.444  0.00  0.00    +0.000 A 
ATOM      9  C   UNL     1     112.710 128.670 135.853  0.00  0.00    +0.000 A 
ATOM     10  C   UNL     1     112.308 129.323 136.239  0.00  0.00    +0.000 A 
ATOM     11  C   UNL     1     112.731 130.012 136.406  0.00  0.00    +0.000 A 
ATOM     12  C   UNL     1     111.558 130.592 136.981  0.00  0.00    +0.000 A 
ATOM     13  C   UNL     1     112.356 130.647 136.777  0.00  0.00    +0.000 A 
BRANCH  12  15
ATOM     14  O   UNL     1     110.059 133.130 138.465  0.00  0.00    +0.000 OA
ATOM     15  C   UNL     1     111.184 131.227 137.352  0.00  0.00    +0.000 A 
ATOM     16  C   UNL     1     111.007 131.188 138.157  0.00  0.00    +0.000 A 
ATOM     17  C   UNL     1     110.985 131.900 136.918  0.00  0.00    +0.000 A 
ATOM     18  C   UNL     1     110.632 131.822 138.529  0.00  0.00    +0.000 A 
ATOM     19  C   UNL     1     110.610 132.534 137.290  0.00  0.00    +0.000 A 
ATOM     20  C   UNL     1     110.434 132.495 138.095  0.00  0.00    +0.000 A 
BRANCH  18  21
ATOM     21  O   UNL     1     110.456 131.784 139.334  0.00  0.00    +0.000 OA
ATOM     22  C   UNL     1     110.096 131.110 139.646  0.00  0.00    +0.000 C 
ENDBRANCH  18  21
ENDBRANCH  12  15
ENDBRANCH   1   5
BRANCH   1  31
ATOM     23  O   UNL     1     111.478 126.521 136.892  0.00  0.00    +0.000 OA
ATOM     24  O   UNL     1     111.764 124.391 137.280  0.00  0.00    +0.000 OA
ATOM     25  O   UNL     1     111.219 124.354 135.723  0.00  0.00    +0.000 OA
ATOM     26  O   UNL     1     110.847 125.761 134.945  0.00  0.00    +0.000 OA
ATOM     27  C   UNL     1     111.665 125.818 137.281  0.00  0.00    +0.000 C 
ATOM     28  C   UNL     1     111.578 125.095 136.891  0.00  0.00    +0.000 C 
ATOM     29  C   UNL     1     111.306 125.077 136.113  0.00  0.00    +0.000 C 
ATOM     30  C   UNL     1     111.120 125.780 135.724  0.00  0.00    +0.000 C 
ATOM     31  C   UNL     1     111.206 126.502 136.113  0.00  0.00    +0.000 C 
BRANCH  27  32
ATOM     32  C   UNL     1     111.937 125.836 138.059  0.00  0.00    +0.000 C 
BRANCH  32  33
ATOM     33  O   UNL     1     111.519 126.256 138.634  0.00  0.00    +0.000 OA
BRANCH  33  39
ATOM     34  O   UNL     1     112.657 126.714 139.367  0.00  0.00    +0.000 OA
ATOM     35  O   UNL     1     110.683 126.074 140.044  0.00  0.00    +0.000 OA
ATOM     36  O   UNL     1     111.402 126.442 141.483  0.00  0.00    +0.000 OA
ATOM     37  O   UNL     1     112.958 126.991 141.511  0.00  0.00    +0.000 OA
ATOM     38  C   UNL     1     111.461 126.349 140.058  0.00  0.00    +0.000 C 
ATOM     39  C   UNL     1     111.880 126.440 139.353  0.00  0.00    +0.000 C 
ATOM     40  C   UNL     1     111.820 126.533 140.778  0.00  0.00    +0.000 C 
ATOM     41  C   UNL     1     112.598 126.807 140.791  0.00  0.00    +0.000 C 
ATOM     42  C   UNL     1     113.016 126.898 140.086  0.00  0.00    +0.000 C 
ATOM     43  C   UNL     1     113.794 127.173 140.101  0.00  0.00    +0.000 C 
ENDBRANCH  33  39
ENDBRANCH  32  33
ENDBRANCH  27  32
ENDBRANCH   1  31
TORSDOF 7
ENDMDL
MODEL 10
REMARK VINA RESULT:      -9.8      1.991      4.493
REMARK  Name = 14374725
REMARK  7 active torsions:
REMARK  status: ('A' for Active; 'I' for Inactive)
REMARK    1  A    between atoms: O_3  and  C_21
REMARK    2  A    between atoms: O_3  and  C_26
REMARK    3  A    between atoms: O_6  and  C_24
REMARK    4  A    between atoms: O_6  and  C_28
REMARK    5  A    between atoms: O_14  and  C_40
REMARK    6  A    between atoms: C_16  and  C_26
REMARK    7  A    between atoms: C_35  and  C_37
REMARK                            x       y       z     vdW  Elec       q    Type
REMARK                         _______ _______ _______ _____ _____    ______ ____
ROOT
ATOM      1  O   UNL     1     113.493 128.014 139.556  0.00  0.00    +0.000 OA
ENDROOT
BRANCH   1   5
ATOM      2  O   UNL     1     111.646 126.635 137.776  0.00  0.00    +0.000 OA
ATOM      3  O   UNL     1     111.576 126.078 140.610  0.00  0.00    +0.000 OA
ATOM      4  O   UNL     1     110.677 125.415 139.698  0.00  0.00    +0.000 OA
ATOM      5  C   UNL     1     112.880 127.474 139.439  0.00  0.00    +0.000 A 
ATOM      6  C   UNL     1     112.574 127.332 138.649  0.00  0.00    +0.000 A 
ATOM      7  C   UNL     1     112.543 127.050 140.107  0.00  0.00    +0.000 A 
ATOM      8  C   UNL     1     111.936 126.768 138.537  0.00  0.00    +0.000 A 
ATOM      9  C   UNL     1     111.905 126.490 139.975  0.00  0.00    +0.000 A 
ATOM     10  C   UNL     1     111.613 126.361 139.178  0.00  0.00    +0.000 A 
ATOM     11  C   UNL     1     111.000 125.822 139.058  0.00  0.00    +0.000 A 
ATOM     12  C   UNL     1     111.033 126.096 137.656  0.00  0.00    +0.000 A 
ATOM     13  C   UNL     1     110.710 125.689 138.297  0.00  0.00    +0.000 A 
BRANCH  12  15
ATOM     14  O   UNL     1     109.874 125.567 134.612  0.00  0.00    +0.000 OA
ATOM     15  C   UNL     1     110.743 125.963 136.895  0.00  0.00    +0.000 A 
ATOM     16  C   UNL     1     110.153 126.451 136.588  0.00  0.00    +0.000 A 
ATOM     17  C   UNL     1     111.044 125.344 136.441  0.00  0.00    +0.000 A 
ATOM     18  C   UNL     1     109.862 126.319 135.827  0.00  0.00    +0.000 A 
ATOM     19  C   UNL     1     110.754 125.212 135.679  0.00  0.00    +0.000 A 
ATOM     20  C   UNL     1     110.163 125.699 135.373  0.00  0.00    +0.000 A 
BRANCH  18  21
ATOM     21  O   UNL     1     109.272 126.806 135.519  0.00  0.00    +0.000 OA
ATOM     22  C   UNL     1     108.729 127.166 136.026  0.00  0.00    +0.000 C 
ENDBRANCH  18  21
ENDBRANCH  12  15
ENDBRANCH   1   5
BRANCH   1  31
ATOM     23  O   UNL     1     112.652 129.161 139.687  0.00  0.00    +0.000 OA
ATOM     24  O   UNL     1     112.865 130.957 140.911  0.00  0.00    +0.000 OA
ATOM     25  O   UNL     1     114.232 130.133 141.326  0.00  0.00    +0.000 OA
ATOM     26  O   UNL     1     114.547 128.661 140.649  0.00  0.00    +0.000 OA
ATOM     27  C   UNL     1     112.495 129.897 140.025  0.00  0.00    +0.000 C 
ATOM     28  C   UNL     1     113.022 130.221 140.572  0.00  0.00    +0.000 C 
ATOM     29  C   UNL     1     113.705 129.809 140.779  0.00  0.00    +0.000 C 
ATOM     30  C   UNL     1     113.862 129.073 140.441  0.00  0.00    +0.000 C 
ATOM     31  C   UNL     1     113.336 128.750 139.895  0.00  0.00    +0.000 C 
BRANCH  27  32
ATOM     32  C   UNL     1     111.811 130.309 139.818  0.00  0.00    +0.000 C 
BRANCH  32  33
ATOM     33  O   UNL     1     111.088 129.915 139.774  0.00  0.00    +0.000 OA
BRANCH  33  39
ATOM     34  O   UNL     1     110.485 131.016 139.091  0.00  0.00    +0.000 OA
ATOM     35  O   UNL     1     109.592 129.326 140.145  0.00  0.00    +0.000 OA
ATOM     36  O   UNL     1     108.241 130.132 139.649  0.00  0.00    +0.000 OA
ATOM     37  O   UNL     1     108.386 131.528 138.781  0.00  0.00    +0.000 OA
ATOM     38  C   UNL     1     109.665 130.024 139.711  0.00  0.00    +0.000 C 
ATOM     39  C   UNL     1     110.413 130.319 139.525  0.00  0.00    +0.000 C 
ATOM     40  C   UNL     1     108.989 130.427 139.463  0.00  0.00    +0.000 C 
ATOM     41  C   UNL     1     109.062 131.125 139.029  0.00  0.00    +0.000 C 
ATOM     42  C   UNL     1     109.810 131.419 138.843  0.00  0.00    +0.000 C 
ATOM     43  C   UNL     1     109.882 132.117 138.409  0.00  0.00    +0.000 C 
ENDBRANCH  33  39
ENDBRANCH  32  33
ENDBRANCH  27  32
ENDBRANCH   1  31
TORSDOF 7
ENDMDL
