MODEL 1
REMARK VINA RESULT:      -9.0      0.000      0.000
REMARK  Name = 131834916
REMARK  5 active torsions:
REMARK  status: ('A' for Active; 'I' for Inactive)
REMARK    1  A    between atoms: O_2  and  C_15
REMARK    2  A    between atoms: O_2  and  C_18
REMARK    3  A    between atoms: O_10  and  C_23
REMARK    4  A    between atoms: C_16  and  C_17
REMARK    5  A    between atoms: C_25  and  C_27
REMARK                            x       y       z     vdW  Elec       q    Type
REMARK                         _______ _______ _______ _____ _____    ______ ____
ROOT
ATOM      1  O   UNL     1     104.968 127.806 142.441  0.00  0.00    +0.000 OA
ATOM      2  O   UNL     1     107.740 125.951 142.408  0.00  0.00    +0.000 OA
ATOM      3  O   UNL     1     107.154 128.779 141.612  0.00  0.00    +0.000 OA
ATOM      4  C   UNL     1     106.345 126.093 142.686  0.00  0.00    +0.000 A 
ATOM      5  C   UNL     1     107.055 126.413 142.415  0.00  0.00    +0.000 A 
ATOM      6  C   UNL     1     105.661 126.555 142.693  0.00  0.00    +0.000 A 
ATOM      7  C   UNL     1     105.688 127.336 142.429  0.00  0.00    +0.000 A 
ATOM      8  C   UNL     1     106.399 127.655 142.158  0.00  0.00    +0.000 A 
ATOM      9  C   UNL     1     107.082 127.194 142.151  0.00  0.00    +0.000 A 
ATOM     10  C   UNL     1     106.440 128.467 141.881  0.00  0.00    +0.000 A 
ATOM     11  C   UNL     1     104.991 128.620 142.167  0.00  0.00    +0.000 A 
ATOM     12  C   UNL     1     105.731 128.954 141.885  0.00  0.00    +0.000 A 
ENDROOT
BRANCH  11  13
ATOM     13  C   UNL     1     104.305 129.080 142.175  0.00  0.00    +0.000 A 
ATOM     14  C   UNL     1     104.108 129.514 142.848  0.00  0.00    +0.000 A 
ATOM     15  C   UNL     1     103.817 129.104 141.511  0.00  0.00    +0.000 A 
ATOM     16  C   UNL     1     103.423 129.974 142.857  0.00  0.00    +0.000 A 
ATOM     17  C   UNL     1     103.132 129.563 141.519  0.00  0.00    +0.000 A 
ATOM     18  C   UNL     1     102.935 129.998 142.192  0.00  0.00    +0.000 A 
ENDBRANCH  11  13
BRANCH   9  19
ATOM     19  O   UNL     1     107.793 127.513 141.880  0.00  0.00    +0.000 OA
ATOM     20  C   UNL     1     108.282 127.930 142.397  0.00  0.00    +0.000 C 
ENDBRANCH   9  19
BRANCH   4  21
ATOM     21  O   UNL     1     106.318 125.312 142.950  0.00  0.00    +0.000 OA
BRANCH  21  29
ATOM     22  O   UNL     1     106.399 125.573 144.352  0.00  0.00    +0.000 OA
ATOM     23  O   UNL     1     104.738 123.790 144.781  0.00  0.00    +0.000 OA
ATOM     24  O   UNL     1     105.211 124.122 143.236  0.00  0.00    +0.000 OA
ATOM     25  O   UNL     1     105.372 124.646 146.040  0.00  0.00    +0.000 OA
ATOM     26  C   UNL     1     105.291 124.384 144.638  0.00  0.00    +0.000 C 
ATOM     27  C   UNL     1     105.528 124.551 143.865  0.00  0.00    +0.000 C 
ATOM     28  C   UNL     1     105.609 124.813 145.267  0.00  0.00    +0.000 C 
ATOM     29  C   UNL     1     106.082 125.145 143.722  0.00  0.00    +0.000 C 
ATOM     30  C   UNL     1     106.163 125.407 145.124  0.00  0.00    +0.000 C 
BRANCH  30  33
ATOM     31  O   UNL     1     106.080 126.494 146.049  0.00  0.00    +0.000 OA
ATOM     32  O   UNL     1     107.197 125.604 146.089  0.00  0.00    +0.000 OA
ATOM     33  C   UNL     1     106.480 125.835 145.754  0.00  0.00    +0.000 C 
ENDBRANCH  30  33
ENDBRANCH  21  29
ENDBRANCH   4  21
TORSDOF 5
ENDMDL
MODEL 2
REMARK VINA RESULT:      -9.0      2.191      5.146
REMARK  Name = 131834916
REMARK  5 active torsions:
REMARK  status: ('A' for Active; 'I' for Inactive)
REMARK    1  A    between atoms: O_2  and  C_15
REMARK    2  A    between atoms: O_2  and  C_18
REMARK    3  A    between atoms: O_10  and  C_23
REMARK    4  A    between atoms: C_16  and  C_17
REMARK    5  A    between atoms: C_25  and  C_27
REMARK                            x       y       z     vdW  Elec       q    Type
REMARK                         _______ _______ _______ _____ _____    ______ ____
ROOT
ATOM      1  O   UNL     1     104.059 124.496 145.945  0.00  0.00    +0.000 OA
ATOM      2  O   UNL     1     107.242 125.430 146.287  0.00  0.00    +0.000 OA
ATOM      3  O   UNL     1     105.144 124.542 148.233  0.00  0.00    +0.000 OA
ATOM      4  C   UNL     1     106.104 125.184 145.459  0.00  0.00    +0.000 A 
ATOM      5  C   UNL     1     106.454 125.198 146.206  0.00  0.00    +0.000 A 
ATOM      6  C   UNL     1     105.315 124.952 145.378  0.00  0.00    +0.000 A 
ATOM      7  C   UNL     1     104.879 124.735 146.043  0.00  0.00    +0.000 A 
ATOM      8  C   UNL     1     105.230 124.749 146.790  0.00  0.00    +0.000 A 
ATOM      9  C   UNL     1     106.017 124.981 146.871  0.00  0.00    +0.000 A 
ATOM     10  C   UNL     1     104.786 124.525 147.490  0.00  0.00    +0.000 A 
ATOM     11  C   UNL     1     103.599 124.269 146.634  0.00  0.00    +0.000 A 
ATOM     12  C   UNL     1     103.965 124.283 147.412  0.00  0.00    +0.000 A 
ENDROOT
BRANCH  11  13
ATOM     13  C   UNL     1     102.812 124.037 146.550  0.00  0.00    +0.000 A 
ATOM     14  C   UNL     1     102.629 123.324 146.179  0.00  0.00    +0.000 A 
ATOM     15  C   UNL     1     102.207 124.520 146.838  0.00  0.00    +0.000 A 
ATOM     16  C   UNL     1     101.842 123.092 146.094  0.00  0.00    +0.000 A 
ATOM     17  C   UNL     1     101.420 124.289 146.754  0.00  0.00    +0.000 A 
ATOM     18  C   UNL     1     101.237 123.575 146.382  0.00  0.00    +0.000 A 
ENDBRANCH  11  13
BRANCH   9  19
ATOM     19  O   UNL     1     106.369 124.995 147.617  0.00  0.00    +0.000 OA
ATOM     20  C   UNL     1     106.306 125.667 148.091  0.00  0.00    +0.000 C 
ENDBRANCH   9  19
BRANCH   4  21
ATOM     21  O   UNL     1     106.541 125.402 144.794  0.00  0.00    +0.000 OA
BRANCH  21  29
ATOM     22  O   UNL     1     106.102 126.753 144.643  0.00  0.00    +0.000 OA
ATOM     23  O   UNL     1     105.849 126.398 142.206  0.00  0.00    +0.000 OA
ATOM     24  O   UNL     1     106.372 125.165 143.170  0.00  0.00    +0.000 OA
ATOM     25  O   UNL     1     105.495 127.867 142.867  0.00  0.00    +0.000 OA
ATOM     26  C   UNL     1     105.933 126.517 143.018  0.00  0.00    +0.000 C 
ATOM     27  C   UNL     1     106.195 125.900 143.501  0.00  0.00    +0.000 C 
ATOM     28  C   UNL     1     105.756 127.251 143.349  0.00  0.00    +0.000 C 
ATOM     29  C   UNL     1     106.279 126.018 144.313  0.00  0.00    +0.000 C 
ATOM     30  C   UNL     1     105.840 127.369 144.161  0.00  0.00    +0.000 C 
BRANCH  30  33
ATOM     31  O   UNL     1     104.883 128.293 144.684  0.00  0.00    +0.000 OA
ATOM     32  O   UNL     1     106.265 128.650 144.630  0.00  0.00    +0.000 OA
ATOM     33  C   UNL     1     105.663 128.104 144.492  0.00  0.00    +0.000 C 
ENDBRANCH  30  33
ENDBRANCH  21  29
ENDBRANCH   4  21
TORSDOF 5
ENDMDL
MODEL 3
REMARK VINA RESULT:      -9.0      7.083      9.951
REMARK  Name = 131834916
REMARK  5 active torsions:
REMARK  status: ('A' for Active; 'I' for Inactive)
REMARK    1  A    between atoms: O_2  and  C_15
REMARK    2  A    between atoms: O_2  and  C_18
REMARK    3  A    between atoms: O_10  and  C_23
REMARK    4  A    between atoms: C_16  and  C_17
REMARK    5  A    between atoms: C_25  and  C_27
REMARK                            x       y       z     vdW  Elec       q    Type
REMARK                         _______ _______ _______ _____ _____    ______ ____
ROOT
ATOM      1  O   UNL     1     112.542 126.563 136.456  0.00  0.00    +0.000 OA
ATOM      2  O   UNL     1     109.583 127.578 135.298  0.00  0.00    +0.000 OA
ATOM      3  O   UNL     1     110.801 124.874 135.729  0.00  0.00    +0.000 OA
ATOM      4  C   UNL     1     110.880 127.876 135.820  0.00  0.00    +0.000 A 
ATOM      5  C   UNL     1     110.315 127.323 135.584  0.00  0.00    +0.000 A 
ATOM      6  C   UNL     1     111.611 127.622 136.106  0.00  0.00    +0.000 A 
ATOM      7  C   UNL     1     111.777 126.815 136.156  0.00  0.00    +0.000 A 
ATOM      8  C   UNL     1     111.211 126.263 135.920  0.00  0.00    +0.000 A 
ATOM      9  C   UNL     1     110.481 126.517 135.634  0.00  0.00    +0.000 A 
ATOM     10  C   UNL     1     111.372 125.420 135.967  0.00  0.00    +0.000 A 
ATOM     11  C   UNL     1     112.720 125.725 136.510  0.00  0.00    +0.000 A 
ATOM     12  C   UNL     1     112.132 125.149 136.265  0.00  0.00    +0.000 A 
ENDROOT
BRANCH  11  13
ATOM     13  C   UNL     1     113.452 125.474 136.797  0.00  0.00    +0.000 A 
ATOM     14  C   UNL     1     114.041 125.235 136.271  0.00  0.00    +0.000 A 
ATOM     15  C   UNL     1     113.595 125.461 137.609  0.00  0.00    +0.000 A 
ATOM     16  C   UNL     1     114.773 124.984 136.556  0.00  0.00    +0.000 A 
ATOM     17  C   UNL     1     114.327 125.210 137.896  0.00  0.00    +0.000 A 
ATOM     18  C   UNL     1     114.916 124.971 137.368  0.00  0.00    +0.000 A 
ENDBRANCH  11  13
BRANCH   9  19
ATOM     19  O   UNL     1     109.915 125.964 135.398  0.00  0.00    +0.000 OA
ATOM     20  C   UNL     1     109.884 125.715 134.613  0.00  0.00    +0.000 C 
ENDBRANCH   9  19
BRANCH   4  21
ATOM     21  O   UNL     1     110.714 128.683 135.770  0.00  0.00    +0.000 OA
BRANCH  21  29
ATOM     22  O   UNL     1     110.330 128.916 137.127  0.00  0.00    +0.000 OA
ATOM     23  O   UNL     1     111.620 131.028 137.129  0.00  0.00    +0.000 OA
ATOM     24  O   UNL     1     111.575 130.091 135.772  0.00  0.00    +0.000 OA
ATOM     25  O   UNL     1     110.806 130.557 138.484  0.00  0.00    +0.000 OA
ATOM     26  C   UNL     1     111.190 130.324 137.128  0.00  0.00    +0.000 C 
ATOM     27  C   UNL     1     111.167 129.855 136.449  0.00  0.00    +0.000 C 
ATOM     28  C   UNL     1     110.783 130.088 137.806  0.00  0.00    +0.000 C 
ATOM     29  C   UNL     1     110.737 129.151 136.448  0.00  0.00    +0.000 C 
ATOM     30  C   UNL     1     110.352 129.384 137.805  0.00  0.00    +0.000 C 
BRANCH  30  33
ATOM     31  O   UNL     1     110.347 128.770 139.095  0.00  0.00    +0.000 OA
ATOM     32  O   UNL     1     109.136 129.293 138.547  0.00  0.00    +0.000 OA
ATOM     33  C   UNL     1     109.945 129.149 138.482  0.00  0.00    +0.000 C 
ENDBRANCH  30  33
ENDBRANCH  21  29
ENDBRANCH   4  21
TORSDOF 5
ENDMDL
MODEL 4
REMARK VINA RESULT:      -8.9      6.673      8.939
REMARK  Name = 131834916
REMARK  5 active torsions:
REMARK  status: ('A' for Active; 'I' for Inactive)
REMARK    1  A    between atoms: O_2  and  C_15
REMARK    2  A    between atoms: O_2  and  C_18
REMARK    3  A    between atoms: O_10  and  C_23
REMARK    4  A    between atoms: C_16  and  C_17
REMARK    5  A    between atoms: C_25  and  C_27
REMARK                            x       y       z     vdW  Elec       q    Type
REMARK                         _______ _______ _______ _____ _____    ______ ____
ROOT
ATOM      1  O   UNL     1     111.937 126.409 136.761  0.00  0.00    +0.000 OA
ATOM      2  O   UNL     1     114.507 125.870 138.818  0.00  0.00    +0.000 OA
ATOM      3  O   UNL     1     113.370 124.336 136.508  0.00  0.00    +0.000 OA
ATOM      4  C   UNL     1     113.407 126.677 138.392  0.00  0.00    +0.000 A 
ATOM      5  C   UNL     1     113.871 126.001 138.307  0.00  0.00    +0.000 A 
ATOM      6  C   UNL     1     112.771 126.807 137.881  0.00  0.00    +0.000 A 
ATOM      7  C   UNL     1     112.601 126.262 137.286  0.00  0.00    +0.000 A 
ATOM      8  C   UNL     1     113.067 125.586 137.202  0.00  0.00    +0.000 A 
ATOM      9  C   UNL     1     113.701 125.455 137.712  0.00  0.00    +0.000 A 
ATOM     10  C   UNL     1     112.900 125.010 136.586  0.00  0.00    +0.000 A 
ATOM     11  C   UNL     1     111.756 125.844 136.139  0.00  0.00    +0.000 A 
ATOM     12  C   UNL     1     112.240 125.140 136.051  0.00  0.00    +0.000 A 
ENDROOT
BRANCH  11  13
ATOM     13  C   UNL     1     111.120 125.977 135.630  0.00  0.00    +0.000 A 
ATOM     14  C   UNL     1     111.128 126.627 135.122  0.00  0.00    +0.000 A 
ATOM     15  C   UNL     1     110.477 125.460 135.629  0.00  0.00    +0.000 A 
ATOM     16  C   UNL     1     110.493 126.761 134.613  0.00  0.00    +0.000 A 
ATOM     17  C   UNL     1     109.842 125.593 135.120  0.00  0.00    +0.000 A 
ATOM     18  C   UNL     1     109.850 126.244 134.612  0.00  0.00    +0.000 A 
ENDBRANCH  11  13
BRANCH   9  19
ATOM     19  O   UNL     1     114.167 124.779 137.628  0.00  0.00    +0.000 OA
ATOM     20  C   UNL     1     114.811 124.783 137.113  0.00  0.00    +0.000 C 
ENDBRANCH   9  19
BRANCH   4  21
ATOM     21  O   UNL     1     113.576 127.223 138.987  0.00  0.00    +0.000 OA
BRANCH  21  29
ATOM     22  O   UNL     1     112.556 126.854 139.917  0.00  0.00    +0.000 OA
ATOM     23  O   UNL     1     112.114 129.244 140.381  0.00  0.00    +0.000 OA
ATOM     24  O   UNL     1     113.281 128.816 139.296  0.00  0.00    +0.000 OA
ATOM     25  O   UNL     1     111.242 128.078 141.156  0.00  0.00    +0.000 OA
ATOM     26  C   UNL     1     112.261 128.447 140.226  0.00  0.00    +0.000 C 
ATOM     27  C   UNL     1     112.846 128.233 139.683  0.00  0.00    +0.000 C 
ATOM     28  C   UNL     1     111.826 127.864 140.613  0.00  0.00    +0.000 C 
ATOM     29  C   UNL     1     112.993 127.436 139.529  0.00  0.00    +0.000 C 
ATOM     30  C   UNL     1     111.973 127.067 140.459  0.00  0.00    +0.000 C 
BRANCH  30  33
ATOM     31  O   UNL     1     111.830 126.140 141.537  0.00  0.00    +0.000 OA
ATOM     32  O   UNL     1     110.807 126.246 140.544  0.00  0.00    +0.000 OA
ATOM     33  C   UNL     1     111.537 126.485 140.846  0.00  0.00    +0.000 C 
ENDBRANCH  30  33
ENDBRANCH  21  29
ENDBRANCH   4  21
TORSDOF 5
ENDMDL
MODEL 5
REMARK VINA RESULT:      -8.9      6.668      9.823
REMARK  Name = 131834916
REMARK  5 active torsions:
REMARK  status: ('A' for Active; 'I' for Inactive)
REMARK    1  A    between atoms: O_2  and  C_15
REMARK    2  A    between atoms: O_2  and  C_18
REMARK    3  A    between atoms: O_10  and  C_23
REMARK    4  A    between atoms: C_16  and  C_17
REMARK    5  A    between atoms: C_25  and  C_27
REMARK                            x       y       z     vdW  Elec       q    Type
REMARK                         _______ _______ _______ _____ _____    ______ ____
ROOT
ATOM      1  O   UNL     1     113.632 126.511 138.474  0.00  0.00    +0.000 OA
ATOM      2  O   UNL     1     111.493 127.698 140.740  0.00  0.00    +0.000 OA
ATOM      3  O   UNL     1     111.339 125.471 138.742  0.00  0.00    +0.000 OA
ATOM      4  C   UNL     1     112.766 127.743 140.094  0.00  0.00    +0.000 A 
ATOM      5  C   UNL     1     112.020 127.402 140.178  0.00  0.00    +0.000 A 
ATOM      6  C   UNL     1     113.294 127.447 139.532  0.00  0.00    +0.000 A 
ATOM      7  C   UNL     1     113.074 126.810 139.055  0.00  0.00    +0.000 A 
ATOM      8  C   UNL     1     112.327 126.470 139.140  0.00  0.00    +0.000 A 
ATOM      9  C   UNL     1     111.801 126.765 139.702  0.00  0.00    +0.000 A 
ATOM     10  C   UNL     1     112.087 125.806 138.650  0.00  0.00    +0.000 A 
ATOM     11  C   UNL     1     113.409 125.849 137.975  0.00  0.00    +0.000 A 
ATOM     12  C   UNL     1     112.632 125.493 138.063  0.00  0.00    +0.000 A 
ENDROOT
BRANCH  11  13
ATOM     13  C   UNL     1     113.938 125.555 137.414  0.00  0.00    +0.000 A 
ATOM     14  C   UNL     1     114.409 124.902 137.594  0.00  0.00    +0.000 A 
ATOM     15  C   UNL     1     113.996 125.914 136.673  0.00  0.00    +0.000 A 
ATOM     16  C   UNL     1     114.938 124.607 137.034  0.00  0.00    +0.000 A 
ATOM     17  C   UNL     1     114.525 125.620 136.113  0.00  0.00    +0.000 A 
ATOM     18  C   UNL     1     114.996 124.967 136.293  0.00  0.00    +0.000 A 
ENDBRANCH  11  13
BRANCH   9  19
ATOM     19  O   UNL     1     111.054 126.425 139.787  0.00  0.00    +0.000 OA
ATOM     20  C   UNL     1     110.429 126.673 139.310  0.00  0.00    +0.000 C 
ENDBRANCH   9  19
BRANCH   4  21
ATOM     21  O   UNL     1     112.986 128.380 140.570  0.00  0.00    +0.000 OA
BRANCH  21  29
ATOM     22  O   UNL     1     112.904 129.439 139.615  0.00  0.00    +0.000 OA
ATOM     23  O   UNL     1     115.058 130.343 140.432  0.00  0.00    +0.000 OA
ATOM     24  O   UNL     1     114.422 128.982 141.115  0.00  0.00    +0.000 OA
ATOM     25  O   UNL     1     114.258 131.101 139.205  0.00  0.00    +0.000 OA
ATOM     26  C   UNL     1     114.340 130.042 140.160  0.00  0.00    +0.000 C 
ATOM     27  C   UNL     1     114.021 129.361 140.501  0.00  0.00    +0.000 C 
ATOM     28  C   UNL     1     113.939 130.420 139.546  0.00  0.00    +0.000 C 
ATOM     29  C   UNL     1     113.303 129.060 140.229  0.00  0.00    +0.000 C 
ATOM     30  C   UNL     1     113.221 130.119 139.274  0.00  0.00    +0.000 C 
BRANCH  30  33
ATOM     31  O   UNL     1     113.036 130.355 137.876  0.00  0.00    +0.000 OA
ATOM     32  O   UNL     1     112.207 131.021 138.830  0.00  0.00    +0.000 OA
ATOM     33  C   UNL     1     112.822 130.498 138.660  0.00  0.00    +0.000 C 
ENDBRANCH  30  33
ENDBRANCH  21  29
ENDBRANCH   4  21
TORSDOF 5
ENDMDL
MODEL 6
REMARK VINA RESULT:      -8.9      7.581     10.405
REMARK  Name = 131834916
REMARK  5 active torsions:
REMARK  status: ('A' for Active; 'I' for Inactive)
REMARK    1  A    between atoms: O_2  and  C_15
REMARK    2  A    between atoms: O_2  and  C_18
REMARK    3  A    between atoms: O_10  and  C_23
REMARK    4  A    between atoms: C_16  and  C_17
REMARK    5  A    between atoms: C_25  and  C_27
REMARK                            x       y       z     vdW  Elec       q    Type
REMARK                         _______ _______ _______ _____ _____    ______ ____
ROOT
ATOM      1  O   UNL     1     113.041 127.166 136.881  0.00  0.00    +0.000 OA
ATOM      2  O   UNL     1     112.834 130.417 136.169  0.00  0.00    +0.000 OA
ATOM      3  O   UNL     1     114.772 128.266 135.396  0.00  0.00    +0.000 OA
ATOM      4  C   UNL     1     112.323 129.257 136.827  0.00  0.00    +0.000 A 
ATOM      5  C   UNL     1     112.888 129.612 136.343  0.00  0.00    +0.000 A 
ATOM      6  C   UNL     1     112.377 128.452 137.002  0.00  0.00    +0.000 A 
ATOM      7  C   UNL     1     112.996 128.003 136.692  0.00  0.00    +0.000 A 
ATOM      8  C   UNL     1     113.561 128.359 136.208  0.00  0.00    +0.000 A 
ATOM      9  C   UNL     1     113.508 129.163 136.033  0.00  0.00    +0.000 A 
ATOM     10  C   UNL     1     114.210 127.903 135.879  0.00  0.00    +0.000 A 
ATOM     11  C   UNL     1     113.683 126.694 136.561  0.00  0.00    +0.000 A 
ATOM     12  C   UNL     1     114.272 127.064 136.057  0.00  0.00    +0.000 A 
ENDROOT
BRANCH  11  13
ATOM     13  C   UNL     1     113.735 125.889 136.737  0.00  0.00    +0.000 A 
ATOM     14  C   UNL     1     114.312 125.617 137.260  0.00  0.00    +0.000 A 
ATOM     15  C   UNL     1     113.208 125.357 136.391  0.00  0.00    +0.000 A 
ATOM     16  C   UNL     1     114.364 124.813 137.436  0.00  0.00    +0.000 A 
ATOM     17  C   UNL     1     113.259 124.552 136.567  0.00  0.00    +0.000 A 
ATOM     18  C   UNL     1     113.838 124.281 137.090  0.00  0.00    +0.000 A 
ENDBRANCH  11  13
BRANCH   9  19
ATOM     19  O   UNL     1     114.073 129.520 135.549  0.00  0.00    +0.000 OA
ATOM     20  C   UNL     1     113.992 129.490 134.729  0.00  0.00    +0.000 C 
ENDBRANCH   9  19
BRANCH   4  21
ATOM     21  O   UNL     1     111.704 129.706 137.137  0.00  0.00    +0.000 OA
BRANCH  21  29
ATOM     22  O   UNL     1     110.694 129.367 136.184  0.00  0.00    +0.000 OA
ATOM     23  O   UNL     1     109.034 129.177 138.009  0.00  0.00    +0.000 OA
ATOM     24  O   UNL     1     110.596 129.579 138.354  0.00  0.00    +0.000 OA
ATOM     25  O   UNL     1     108.579 128.903 136.448  0.00  0.00    +0.000 OA
ATOM     26  C   UNL     1     109.587 129.241 137.400  0.00  0.00    +0.000 C 
ATOM     27  C   UNL     1     110.369 129.442 137.573  0.00  0.00    +0.000 C 
ATOM     28  C   UNL     1     109.360 129.103 136.619  0.00  0.00    +0.000 C 
ATOM     29  C   UNL     1     110.923 129.505 136.964  0.00  0.00    +0.000 C 
ATOM     30  C   UNL     1     109.914 129.167 136.011  0.00  0.00    +0.000 C 
BRANCH  30  33
ATOM     31  O   UNL     1     109.643 128.257 134.943  0.00  0.00    +0.000 OA
ATOM     32  O   UNL     1     109.501 129.664 134.737  0.00  0.00    +0.000 OA
ATOM     33  C   UNL     1     109.686 129.029 135.231  0.00  0.00    +0.000 C 
ENDBRANCH  30  33
ENDBRANCH  21  29
ENDBRANCH   4  21
TORSDOF 5
ENDMDL
MODEL 7
REMARK VINA RESULT:      -8.9      7.446      9.566
REMARK  Name = 131834916
REMARK  5 active torsions:
REMARK  status: ('A' for Active; 'I' for Inactive)
REMARK    1  A    between atoms: O_2  and  C_15
REMARK    2  A    between atoms: O_2  and  C_18
REMARK    3  A    between atoms: O_10  and  C_23
REMARK    4  A    between atoms: C_16  and  C_17
REMARK    5  A    between atoms: C_25  and  C_27
REMARK                            x       y       z     vdW  Elec       q    Type
REMARK                         _______ _______ _______ _____ _____    ______ ____
ROOT
ATOM      1  O   UNL     1     112.361 128.208 135.404  0.00  0.00    +0.000 OA
ATOM      2  O   UNL     1     109.244 127.037 135.213  0.00  0.00    +0.000 OA
ATOM      3  O   UNL     1     110.455 129.736 134.737  0.00  0.00    +0.000 OA
ATOM      4  C   UNL     1     110.633 126.830 135.477  0.00  0.00    +0.000 A 
ATOM      5  C   UNL     1     110.015 127.330 135.259  0.00  0.00    +0.000 A 
ATOM      6  C   UNL     1     111.404 127.123 135.523  0.00  0.00    +0.000 A 
ATOM      7  C   UNL     1     111.554 127.916 135.352  0.00  0.00    +0.000 A 
ATOM      8  C   UNL     1     110.935 128.415 135.134  0.00  0.00    +0.000 A 
ATOM      9  C   UNL     1     110.166 128.123 135.088  0.00  0.00    +0.000 A 
ATOM     10  C   UNL     1     111.079 129.243 134.954  0.00  0.00    +0.000 A 
ATOM     11  C   UNL     1     112.524 129.033 135.227  0.00  0.00    +0.000 A 
ATOM     12  C   UNL     1     111.879 129.554 135.000  0.00  0.00    +0.000 A 
ENDROOT
BRANCH  11  13
ATOM     13  C   UNL     1     113.295 129.323 135.274  0.00  0.00    +0.000 A 
ATOM     14  C   UNL     1     113.796 129.270 134.621  0.00  0.00    +0.000 A 
ATOM     15  C   UNL     1     113.565 129.666 135.975  0.00  0.00    +0.000 A 
ATOM     16  C   UNL     1     114.567 129.560 134.668  0.00  0.00    +0.000 A 
ATOM     17  C   UNL     1     114.336 129.956 136.022  0.00  0.00    +0.000 A 
ATOM     18  C   UNL     1     114.837 129.903 135.368  0.00  0.00    +0.000 A 
ENDBRANCH  11  13
BRANCH   9  19
ATOM     19  O   UNL     1     109.546 128.623 134.870  0.00  0.00    +0.000 OA
ATOM     20  C   UNL     1     109.140 129.052 135.445  0.00  0.00    +0.000 C 
ENDBRANCH   9  19
BRANCH   4  21
ATOM     21  O   UNL     1     110.482 126.037 135.648  0.00  0.00    +0.000 OA
BRANCH  21  29
ATOM     22  O   UNL     1     110.480 126.116 137.075  0.00  0.00    +0.000 OA
ATOM     23  O   UNL     1     111.774 124.009 137.193  0.00  0.00    +0.000 OA
ATOM     24  O   UNL     1     111.345 124.633 135.727  0.00  0.00    +0.000 OA
ATOM     25  O   UNL     1     111.341 124.790 138.579  0.00  0.00    +0.000 OA
ATOM     26  C   UNL     1     111.343 124.711 137.153  0.00  0.00    +0.000 C 
ATOM     27  C   UNL     1     111.128 125.023 136.420  0.00  0.00    +0.000 C 
ATOM     28  C   UNL     1     111.126 125.102 137.847  0.00  0.00    +0.000 C 
ATOM     29  C   UNL     1     110.696 125.726 136.380  0.00  0.00    +0.000 C 
ATOM     30  C   UNL     1     110.694 125.804 137.807  0.00  0.00    +0.000 C 
BRANCH  30  33
ATOM     31  O   UNL     1     111.011 126.704 138.872  0.00  0.00    +0.000 OA
ATOM     32  O   UNL     1     109.728 126.075 138.824  0.00  0.00    +0.000 OA
ATOM     33  C   UNL     1     110.478 126.194 138.501  0.00  0.00    +0.000 C 
ENDBRANCH  30  33
ENDBRANCH  21  29
ENDBRANCH   4  21
TORSDOF 5
ENDMDL
MODEL 8
REMARK VINA RESULT:      -8.8      7.819     10.080
REMARK  Name = 131834916
REMARK  5 active torsions:
REMARK  status: ('A' for Active; 'I' for Inactive)
REMARK    1  A    between atoms: O_2  and  C_15
REMARK    2  A    between atoms: O_2  and  C_18
REMARK    3  A    between atoms: O_10  and  C_23
REMARK    4  A    between atoms: C_16  and  C_17
REMARK    5  A    between atoms: C_25  and  C_27
REMARK                            x       y       z     vdW  Elec       q    Type
REMARK                         _______ _______ _______ _____ _____    ______ ____
ROOT
ATOM      1  O   UNL     1     113.205 127.412 137.448  0.00  0.00    +0.000 OA
ATOM      2  O   UNL     1     112.821 130.705 137.086  0.00  0.00    +0.000 OA
ATOM      3  O   UNL     1     114.112 128.592 135.399  0.00  0.00    +0.000 OA
ATOM      4  C   UNL     1     112.621 129.509 137.841  0.00  0.00    +0.000 A 
ATOM      5  C   UNL     1     112.918 129.890 137.173  0.00  0.00    +0.000 A 
ATOM      6  C   UNL     1     112.718 128.693 137.928  0.00  0.00    +0.000 A 
ATOM      7  C   UNL     1     113.111 128.260 137.346  0.00  0.00    +0.000 A 
ATOM      8  C   UNL     1     113.407 128.643 136.678  0.00  0.00    +0.000 A 
ATOM      9  C   UNL     1     113.311 129.457 136.591  0.00  0.00    +0.000 A 
ATOM     10  C   UNL     1     113.818 128.203 136.065  0.00  0.00    +0.000 A 
ATOM     11  C   UNL     1     113.613 126.956 136.846  0.00  0.00    +0.000 A 
ATOM     12  C   UNL     1     113.922 127.354 136.149  0.00  0.00    +0.000 A 
ENDROOT
BRANCH  11  13
ATOM     13  C   UNL     1     113.708 126.142 136.935  0.00  0.00    +0.000 A 
ATOM     14  C   UNL     1     114.368 125.844 137.331  0.00  0.00    +0.000 A 
ATOM     15  C   UNL     1     113.144 125.624 136.628  0.00  0.00    +0.000 A 
ATOM     16  C   UNL     1     114.464 125.030 137.420  0.00  0.00    +0.000 A 
ATOM     17  C   UNL     1     113.239 124.810 136.717  0.00  0.00    +0.000 A 
ATOM     18  C   UNL     1     113.899 124.513 137.113  0.00  0.00    +0.000 A 
ENDBRANCH  11  13
BRANCH   9  19
ATOM     19  O   UNL     1     113.607 129.839 135.923  0.00  0.00    +0.000 OA
ATOM     20  C   UNL     1     114.385 130.112 135.914  0.00  0.00    +0.000 C 
ENDBRANCH   9  19
BRANCH   4  21
ATOM     21  O   UNL     1     112.228 129.942 138.423  0.00  0.00    +0.000 OA
BRANCH  21  29
ATOM     22  O   UNL     1     113.308 130.132 139.340  0.00  0.00    +0.000 OA
ATOM     23  O   UNL     1     111.796 129.613 141.229  0.00  0.00    +0.000 OA
ATOM     24  O   UNL     1     111.220 129.596 139.683  0.00  0.00    +0.000 OA
ATOM     25  O   UNL     1     113.379 129.976 141.515  0.00  0.00    +0.000 OA
ATOM     26  C   UNL     1     112.300 129.786 140.599  0.00  0.00    +0.000 C 
ATOM     27  C   UNL     1     112.012 129.777 139.826  0.00  0.00    +0.000 C 
ATOM     28  C   UNL     1     113.092 129.967 140.742  0.00  0.00    +0.000 C 
ATOM     29  C   UNL     1     112.516 129.950 139.196  0.00  0.00    +0.000 C 
ATOM     30  C   UNL     1     113.596 130.140 140.112  0.00  0.00    +0.000 C 
BRANCH  30  33
ATOM     31  O   UNL     1     114.932 129.717 140.391  0.00  0.00    +0.000 OA
ATOM     32  O   UNL     1     114.635 131.109 140.263  0.00  0.00    +0.000 OA
ATOM     33  C   UNL     1     114.387 130.322 140.255  0.00  0.00    +0.000 C 
ENDBRANCH  30  33
ENDBRANCH  21  29
ENDBRANCH   4  21
TORSDOF 5
ENDMDL
MODEL 9
REMARK VINA RESULT:      -8.8      5.881      8.359
REMARK  Name = 131834916
REMARK  5 active torsions:
REMARK  status: ('A' for Active; 'I' for Inactive)
REMARK    1  A    between atoms: O_2  and  C_15
REMARK    2  A    between atoms: O_2  and  C_18
REMARK    3  A    between atoms: O_10  and  C_23
REMARK    4  A    between atoms: C_16  and  C_17
REMARK    5  A    between atoms: C_25  and  C_27
REMARK                            x       y       z     vdW  Elec       q    Type
REMARK                         _______ _______ _______ _____ _____    ______ ____
ROOT
ATOM      1  O   UNL     1     111.935 126.086 137.300  0.00  0.00    +0.000 OA
ATOM      2  O   UNL     1     108.746 126.969 136.881  0.00  0.00    +0.000 OA
ATOM      3  O   UNL     1     110.609 125.210 135.328  0.00  0.00    +0.000 OA
ATOM      4  C   UNL     1     109.964 127.035 137.625  0.00  0.00    +0.000 A 
ATOM      5  C   UNL     1     109.536 126.748 136.982  0.00  0.00    +0.000 A 
ATOM      6  C   UNL     1     110.754 126.815 137.726  0.00  0.00    +0.000 A 
ATOM      7  C   UNL     1     111.113 126.308 137.183  0.00  0.00    +0.000 A 
ATOM      8  C   UNL     1     110.683 126.021 136.540  0.00  0.00    +0.000 A 
ATOM      9  C   UNL     1     109.895 126.241 136.439  0.00  0.00    +0.000 A 
ATOM     10  C   UNL     1     111.046 125.492 135.968  0.00  0.00    +0.000 A 
ATOM     11  C   UNL     1     112.314 125.558 136.738  0.00  0.00    +0.000 A 
ATOM     12  C   UNL     1     111.867 125.259 136.068  0.00  0.00    +0.000 A 
ENDROOT
BRANCH  11  13
ATOM     13  C   UNL     1     113.103 125.339 136.841  0.00  0.00    +0.000 A 
ATOM     14  C   UNL     1     113.288 124.623 137.206  0.00  0.00    +0.000 A 
ATOM     15  C   UNL     1     113.707 125.837 136.580  0.00  0.00    +0.000 A 
ATOM     16  C   UNL     1     114.076 124.404 137.310  0.00  0.00    +0.000 A 
ATOM     17  C   UNL     1     114.496 125.618 136.683  0.00  0.00    +0.000 A 
ATOM     18  C   UNL     1     114.680 124.901 137.048  0.00  0.00    +0.000 A 
ENDBRANCH  11  13
BRANCH   9  19
ATOM     19  O   UNL     1     109.465 125.954 135.796  0.00  0.00    +0.000 OA
ATOM     20  C   UNL     1     109.544 126.308 135.055  0.00  0.00    +0.000 C 
ENDBRANCH   9  19
BRANCH   4  21
ATOM     21  O   UNL     1     109.605 127.543 138.168  0.00  0.00    +0.000 OA
BRANCH  21  29
ATOM     22  O   UNL     1     109.374 126.623 139.237  0.00  0.00    +0.000 OA
ATOM     23  O   UNL     1     110.171 128.311 140.861  0.00  0.00    +0.000 OA
ATOM     24  O   UNL     1     110.137 128.668 139.251  0.00  0.00    +0.000 OA
ATOM     25  O   UNL     1     109.674 126.830 141.388  0.00  0.00    +0.000 OA
ATOM     26  C   UNL     1     109.905 127.749 140.320  0.00  0.00    +0.000 C 
ATOM     27  C   UNL     1     109.888 127.927 139.514  0.00  0.00    +0.000 C 
ATOM     28  C   UNL     1     109.657 127.007 140.583  0.00  0.00    +0.000 C 
ATOM     29  C   UNL     1     109.622 127.364 138.972  0.00  0.00    +0.000 C 
ATOM     30  C   UNL     1     109.391 126.445 140.041  0.00  0.00    +0.000 C 
BRANCH  30  33
ATOM     31  O   UNL     1     109.697 125.115 140.466  0.00  0.00    +0.000 OA
ATOM     32  O   UNL     1     108.338 125.552 140.408  0.00  0.00    +0.000 OA
ATOM     33  C   UNL     1     109.142 125.704 140.305  0.00  0.00    +0.000 C 
ENDBRANCH  30  33
ENDBRANCH  21  29
ENDBRANCH   4  21
TORSDOF 5
ENDMDL
MODEL 10
REMARK VINA RESULT:      -8.8      8.127     10.577
REMARK  Name = 131834916
REMARK  5 active torsions:
REMARK  status: ('A' for Active; 'I' for Inactive)
REMARK    1  A    between atoms: O_2  and  C_15
REMARK    2  A    between atoms: O_2  and  C_18
REMARK    3  A    between atoms: O_10  and  C_23
REMARK    4  A    between atoms: C_16  and  C_17
REMARK    5  A    between atoms: C_25  and  C_27
REMARK                            x       y       z     vdW  Elec       q    Type
REMARK                         _______ _______ _______ _____ _____    ______ ____
ROOT
ATOM      1  O   UNL     1     112.809 130.866 136.471  0.00  0.00    +0.000 OA
ATOM      2  O   UNL     1     110.590 131.622 138.844  0.00  0.00    +0.000 OA
ATOM      3  O   UNL     1     113.193 130.138 138.866  0.00  0.00    +0.000 OA
ATOM      4  C   UNL     1     111.013 131.672 137.480  0.00  0.00    +0.000 A 
ATOM      5  C   UNL     1     111.141 131.433 138.259  0.00  0.00    +0.000 A 
ATOM      6  C   UNL     1     111.564 131.483 136.895  0.00  0.00    +0.000 A 
ATOM      7  C   UNL     1     112.242 131.056 137.089  0.00  0.00    +0.000 A 
ATOM      8  C   UNL     1     112.370 130.818 137.869  0.00  0.00    +0.000 A 
ATOM      9  C   UNL     1     111.820 131.006 138.453  0.00  0.00    +0.000 A 
ATOM     10  C   UNL     1     113.072 130.373 138.084  0.00  0.00    +0.000 A 
ATOM     11  C   UNL     1     113.517 130.422 136.668  0.00  0.00    +0.000 A 
ATOM     12  C   UNL     1     113.650 130.173 137.480  0.00  0.00    +0.000 A 
ENDROOT
BRANCH  11  13
ATOM     13  C   UNL     1     114.066 130.235 136.081  0.00  0.00    +0.000 A 
ATOM     14  C   UNL     1     113.988 129.535 135.651  0.00  0.00    +0.000 A 
ATOM     15  C   UNL     1     114.693 130.747 135.925  0.00  0.00    +0.000 A 
ATOM     16  C   UNL     1     114.536 129.348 135.065  0.00  0.00    +0.000 A 
ATOM     17  C   UNL     1     115.242 130.560 135.338  0.00  0.00    +0.000 A 
ATOM     18  C   UNL     1     115.163 129.860 134.908  0.00  0.00    +0.000 A 
ENDBRANCH  11  13
BRANCH   9  19
ATOM     19  O   UNL     1     111.947 130.768 139.233  0.00  0.00    +0.000 OA
ATOM     20  C   UNL     1     111.698 130.022 139.483  0.00  0.00    +0.000 C 
ENDBRANCH   9  19
BRANCH   4  21
ATOM     21  O   UNL     1     110.334 132.099 137.285  0.00  0.00    +0.000 OA
BRANCH  21  29
ATOM     22  O   UNL     1     109.557 131.053 136.698  0.00  0.00    +0.000 OA
ATOM     23  O   UNL     1     108.893 132.575 134.863  0.00  0.00    +0.000 OA
ATOM     24  O   UNL     1     109.891 133.114 136.062  0.00  0.00    +0.000 OA
ATOM     25  O   UNL     1     108.339 131.022 134.888  0.00  0.00    +0.000 OA
ATOM     26  C   UNL     1     109.115 132.068 135.475  0.00  0.00    +0.000 C 
ATOM     27  C   UNL     1     109.614 132.337 136.075  0.00  0.00    +0.000 C 
ATOM     28  C   UNL     1     108.837 131.291 135.488  0.00  0.00    +0.000 C 
ATOM     29  C   UNL     1     109.836 131.830 136.686  0.00  0.00    +0.000 C 
ATOM     30  C   UNL     1     109.059 130.783 136.100  0.00  0.00    +0.000 C 
BRANCH  30  33
ATOM     31  O   UNL     1     109.180 129.419 135.691  0.00  0.00    +0.000 OA
ATOM     32  O   UNL     1     108.105 129.818 136.544  0.00  0.00    +0.000 OA
ATOM     33  C   UNL     1     108.781 130.007 136.112  0.00  0.00    +0.000 C 
ENDBRANCH  30  33
ENDBRANCH  21  29
ENDBRANCH   4  21
TORSDOF 5
ENDMDL
