MODEL 1
REMARK VINA RESULT:      -8.5      0.000      0.000
REMARK  Name = 44259630
REMARK  6 active torsions:
REMARK  status: ('A' for Active; 'I' for Inactive)
REMARK    1  A    between atoms: S_1  and  O_3
REMARK    2  A    between atoms: O_3  and  C_16
REMARK    3  A    between atoms: O_4  and  C_21
REMARK    4  A    between atoms: O_7  and  C_24
REMARK    5  A    between atoms: O_8  and  C_25
REMARK    6  A    between atoms: C_13  and  C_15
REMARK                            x       y       z     vdW  Elec       q    Type
REMARK                         _______ _______ _______ _____ _____    ______ ____
ROOT
ATOM      1  O   UNL     1     105.301 124.377 147.516  0.00  0.00    +0.000 OA
ATOM      2  O   UNL     1     107.656 125.738 146.543  0.00  0.00    +0.000 OA
ATOM      3  O   UNL     1     106.507 125.539 145.694  0.00  0.00    +0.000 OA
ATOM      4  C   UNL     1     106.466 125.050 147.036  0.00  0.00    +0.000 A 
ATOM      5  C   UNL     1     104.939 124.479 146.781  0.00  0.00    +0.000 A 
ATOM      6  C   UNL     1     106.064 124.662 147.643  0.00  0.00    +0.000 A 
ATOM      7  C   UNL     1     105.341 124.866 146.174  0.00  0.00    +0.000 A 
ATOM      8  C   UNL     1     106.105 125.152 146.301  0.00  0.00    +0.000 A 
ATOM      9  C   UNL     1     107.262 125.352 147.157  0.00  0.00    +0.000 A 
ATOM     10  C   UNL     1     106.430 124.550 148.413  0.00  0.00    +0.000 A 
ATOM     11  C   UNL     1     107.224 124.845 148.552  0.00  0.00    +0.000 A 
ATOM     12  C   UNL     1     107.643 125.249 147.919  0.00  0.00    +0.000 A 
ENDROOT
BRANCH   5  13
ATOM     13  C   UNL     1     104.176 124.193 146.654  0.00  0.00    +0.000 A 
ATOM     14  C   UNL     1     103.524 124.641 146.889  0.00  0.00    +0.000 A 
ATOM     15  C   UNL     1     104.064 123.460 146.292  0.00  0.00    +0.000 A 
ATOM     16  C   UNL     1     102.760 124.355 146.762  0.00  0.00    +0.000 A 
ATOM     17  C   UNL     1     102.649 123.622 146.399  0.00  0.00    +0.000 A 
ATOM     18  C   UNL     1     103.301 123.175 146.164  0.00  0.00    +0.000 A 
BRANCH  16  19
ATOM     19  O   UNL     1     102.108 124.803 146.997  0.00  0.00    +0.000 OA
ATOM     20  C   UNL     1     102.076 125.116 147.759  0.00  0.00    +0.000 C 
ENDBRANCH  16  19
BRANCH  17  21
ATOM     21  O   UNL     1     101.885 123.337 146.272  0.00  0.00    +0.000 OA
ATOM     22  C   UNL     1     101.755 122.741 145.716  0.00  0.00    +0.000 C 
ENDBRANCH  17  21
ENDBRANCH   5  13
BRANCH  11  23
ATOM     23  O   UNL     1     107.583 124.742 149.287  0.00  0.00    +0.000 OA
ATOM     24  C   UNL     1     107.652 123.987 149.611  0.00  0.00    +0.000 C 
ENDBRANCH  11  23
BRANCH   7  25
ATOM     25  O   UNL     1     104.980 124.968 145.439  0.00  0.00    +0.000 OA
BRANCH  25  26
ATOM     26  S   UNL     1     105.350 125.421 144.857  0.00  0.00    +0.000 S 
ATOM     27  O   UNL     1     105.719 125.875 144.275  0.00  0.00    +0.000 OA
ATOM     28  O   UNL     1     105.000 126.102 145.166  0.00  0.00    +0.000 OA
ATOM     29  O   UNL     1     105.699 124.741 144.549  0.00  0.00    +0.000 OA
ENDBRANCH  25  26
ENDBRANCH   7  25
TORSDOF 6
ENDMDL
MODEL 2
REMARK VINA RESULT:      -8.3      1.198      4.204
REMARK  Name = 44259630
REMARK  6 active torsions:
REMARK  status: ('A' for Active; 'I' for Inactive)
REMARK    1  A    between atoms: S_1  and  O_3
REMARK    2  A    between atoms: O_3  and  C_16
REMARK    3  A    between atoms: O_4  and  C_21
REMARK    4  A    between atoms: O_7  and  C_24
REMARK    5  A    between atoms: O_8  and  C_25
REMARK    6  A    between atoms: C_13  and  C_15
REMARK                            x       y       z     vdW  Elec       q    Type
REMARK                         _______ _______ _______ _____ _____    ______ ____
ROOT
ATOM      1  O   UNL     1     103.760 124.887 147.860  0.00  0.00    +0.000 OA
ATOM      2  O   UNL     1     101.884 123.838 145.930  0.00  0.00    +0.000 OA
ATOM      3  O   UNL     1     103.301 123.839 145.665  0.00  0.00    +0.000 OA
ATOM      4  C   UNL     1     102.831 124.368 146.906  0.00  0.00    +0.000 A 
ATOM      5  C   UNL     1     104.384 124.707 147.351  0.00  0.00    +0.000 A 
ATOM      6  C   UNL     1     102.984 124.718 147.638  0.00  0.00    +0.000 A 
ATOM      7  C   UNL     1     104.231 124.358 146.619  0.00  0.00    +0.000 A 
ATOM      8  C   UNL     1     103.454 124.188 146.397  0.00  0.00    +0.000 A 
ATOM      9  C   UNL     1     102.027 124.187 146.664  0.00  0.00    +0.000 A 
ATOM     10  C   UNL     1     102.343 124.910 148.178  0.00  0.00    +0.000 A 
ATOM     11  C   UNL     1     101.532 124.736 147.952  0.00  0.00    +0.000 A 
ATOM     12  C   UNL     1     101.373 124.372 147.190  0.00  0.00    +0.000 A 
ENDROOT
BRANCH   5  13
ATOM     13  C   UNL     1     105.159 124.877 147.573  0.00  0.00    +0.000 A 
ATOM     14  C   UNL     1     105.464 125.635 147.462  0.00  0.00    +0.000 A 
ATOM     15  C   UNL     1     105.632 124.288 147.906  0.00  0.00    +0.000 A 
ATOM     16  C   UNL     1     106.241 125.805 147.684  0.00  0.00    +0.000 A 
ATOM     17  C   UNL     1     106.712 125.216 148.017  0.00  0.00    +0.000 A 
ATOM     18  C   UNL     1     106.408 124.457 148.128  0.00  0.00    +0.000 A 
BRANCH  16  19
ATOM     19  O   UNL     1     106.545 126.564 147.573  0.00  0.00    +0.000 OA
ATOM     20  C   UNL     1     106.041 127.185 147.370  0.00  0.00    +0.000 C 
ENDBRANCH  16  19
BRANCH  17  21
ATOM     21  O   UNL     1     107.489 125.386 148.239  0.00  0.00    +0.000 OA
ATOM     22  C   UNL     1     107.965 124.792 148.558  0.00  0.00    +0.000 C 
ENDBRANCH  17  21
ENDBRANCH   5  13
BRANCH  11  23
ATOM     23  O   UNL     1     100.911 124.917 148.463  0.00  0.00    +0.000 OA
ATOM     24  C   UNL     1     100.790 124.465 149.142  0.00  0.00    +0.000 C 
ENDBRANCH  11  23
BRANCH   7  25
ATOM     25  O   UNL     1     104.854 124.178 146.109  0.00  0.00    +0.000 OA
BRANCH  25  26
ATOM     26  S   UNL     1     104.703 124.009 145.316  0.00  0.00    +0.000 S 
ATOM     27  O   UNL     1     104.552 123.840 144.523  0.00  0.00    +0.000 OA
ATOM     28  O   UNL     1     104.664 124.816 145.151  0.00  0.00    +0.000 OA
ATOM     29  O   UNL     1     104.741 123.202 145.481  0.00  0.00    +0.000 OA
ENDBRANCH  25  26
ENDBRANCH   7  25
TORSDOF 6
ENDMDL
MODEL 3
REMARK VINA RESULT:      -8.1      7.209      8.351
REMARK  Name = 44259630
REMARK  6 active torsions:
REMARK  status: ('A' for Active; 'I' for Inactive)
REMARK    1  A    between atoms: S_1  and  O_3
REMARK    2  A    between atoms: O_3  and  C_16
REMARK    3  A    between atoms: O_4  and  C_21
REMARK    4  A    between atoms: O_7  and  C_24
REMARK    5  A    between atoms: O_8  and  C_25
REMARK    6  A    between atoms: C_13  and  C_15
REMARK                            x       y       z     vdW  Elec       q    Type
REMARK                         _______ _______ _______ _____ _____    ______ ____
ROOT
ATOM      1  O   UNL     1     103.654 130.153 142.161  0.00  0.00    +0.000 OA
ATOM      2  O   UNL     1     104.165 127.642 140.828  0.00  0.00    +0.000 OA
ATOM      3  O   UNL     1     103.196 128.576 140.310  0.00  0.00    +0.000 OA
ATOM      4  C   UNL     1     103.908 128.911 141.503  0.00  0.00    +0.000 A 
ATOM      5  C   UNL     1     103.094 130.345 141.586  0.00  0.00    +0.000 A 
ATOM      6  C   UNL     1     104.061 129.437 142.120  0.00  0.00    +0.000 A 
ATOM      7  C   UNL     1     102.942 129.819 140.969  0.00  0.00    +0.000 A 
ATOM      8  C   UNL     1     103.348 129.101 140.927  0.00  0.00    +0.000 A 
ATOM      9  C   UNL     1     104.325 128.162 141.449  0.00  0.00    +0.000 A 
ATOM     10  C   UNL     1     104.642 129.250 142.725  0.00  0.00    +0.000 A 
ATOM     11  C   UNL     1     105.068 128.505 142.687  0.00  0.00    +0.000 A 
ATOM     12  C   UNL     1     104.909 127.958 142.045  0.00  0.00    +0.000 A 
ENDROOT
BRANCH   5  13
ATOM     13  C   UNL     1     102.688 131.061 141.627  0.00  0.00    +0.000 A 
ATOM     14  C   UNL     1     103.031 131.747 141.325  0.00  0.00    +0.000 A 
ATOM     15  C   UNL     1     101.938 131.091 141.971  0.00  0.00    +0.000 A 
ATOM     16  C   UNL     1     102.624 132.465 141.366  0.00  0.00    +0.000 A 
ATOM     17  C   UNL     1     101.875 132.494 141.710  0.00  0.00    +0.000 A 
ATOM     18  C   UNL     1     101.532 131.807 142.012  0.00  0.00    +0.000 A 
BRANCH  16  19
ATOM     19  O   UNL     1     102.967 133.152 141.064  0.00  0.00    +0.000 OA
ATOM     20  C   UNL     1     103.784 133.191 140.956  0.00  0.00    +0.000 C 
ENDBRANCH  16  19
BRANCH  17  21
ATOM     21  O   UNL     1     101.468 133.211 141.751  0.00  0.00    +0.000 OA
ATOM     22  C   UNL     1     100.710 133.237 142.076  0.00  0.00    +0.000 C 
ENDBRANCH  17  21
ENDBRANCH   5  13
BRANCH  11  23
ATOM     23  O   UNL     1     105.627 128.317 143.264  0.00  0.00    +0.000 OA
ATOM     24  C   UNL     1     105.401 127.899 143.938  0.00  0.00    +0.000 C 
ENDBRANCH  11  23
BRANCH   7  25
ATOM     25  O   UNL     1     102.382 130.009 140.393  0.00  0.00    +0.000 OA
BRANCH  25  26
ATOM     26  S   UNL     1     102.393 129.624 139.664  0.00  0.00    +0.000 S 
ATOM     27  O   UNL     1     102.404 129.239 138.934  0.00  0.00    +0.000 OA
ATOM     28  O   UNL     1     102.984 130.137 139.402  0.00  0.00    +0.000 OA
ATOM     29  O   UNL     1     101.802 129.111 139.925  0.00  0.00    +0.000 OA
ENDBRANCH  25  26
ENDBRANCH   7  25
TORSDOF 6
ENDMDL
MODEL 4
REMARK VINA RESULT:      -8.0      9.035     10.798
REMARK  Name = 44259630
REMARK  6 active torsions:
REMARK  status: ('A' for Active; 'I' for Inactive)
REMARK    1  A    between atoms: S_1  and  O_3
REMARK    2  A    between atoms: O_3  and  C_16
REMARK    3  A    between atoms: O_4  and  C_21
REMARK    4  A    between atoms: O_7  and  C_24
REMARK    5  A    between atoms: O_8  and  C_25
REMARK    6  A    between atoms: C_13  and  C_15
REMARK                            x       y       z     vdW  Elec       q    Type
REMARK                         _______ _______ _______ _____ _____    ______ ____
ROOT
ATOM      1  O   UNL     1     111.228 131.799 145.311  0.00  0.00    +0.000 OA
ATOM      2  O   UNL     1     111.808 132.366 142.538  0.00  0.00    +0.000 OA
ATOM      3  O   UNL     1     111.882 133.400 143.540  0.00  0.00    +0.000 OA
ATOM      4  C   UNL     1     111.515 132.078 143.939  0.00  0.00    +0.000 A 
ATOM      5  C   UNL     1     111.378 132.587 145.503  0.00  0.00    +0.000 A 
ATOM      6  C   UNL     1     111.297 131.544 144.530  0.00  0.00    +0.000 A 
ATOM      7  C   UNL     1     111.596 133.121 144.913  0.00  0.00    +0.000 A 
ATOM      8  C   UNL     1     111.664 132.866 144.130  0.00  0.00    +0.000 A 
ATOM      9  C   UNL     1     111.589 131.825 143.121  0.00  0.00    +0.000 A 
ATOM     10  C   UNL     1     111.138 130.720 144.342  0.00  0.00    +0.000 A 
ATOM     11  C   UNL     1     111.208 130.449 143.530  0.00  0.00    +0.000 A 
ATOM     12  C   UNL     1     111.435 131.005 142.916  0.00  0.00    +0.000 A 
ENDROOT
BRANCH   5  13
ATOM     13  C   UNL     1     111.309 132.842 146.284  0.00  0.00    +0.000 A 
ATOM     14  C   UNL     1     110.583 133.114 146.567  0.00  0.00    +0.000 A 
ATOM     15  C   UNL     1     111.966 132.825 146.783  0.00  0.00    +0.000 A 
ATOM     16  C   UNL     1     110.515 133.369 147.349  0.00  0.00    +0.000 A 
ATOM     17  C   UNL     1     111.172 133.352 147.847  0.00  0.00    +0.000 A 
ATOM     18  C   UNL     1     111.897 133.080 147.564  0.00  0.00    +0.000 A 
BRANCH  16  19
ATOM     19  O   UNL     1     109.789 133.641 147.632  0.00  0.00    +0.000 OA
ATOM     20  C   UNL     1     109.089 133.409 147.262  0.00  0.00    +0.000 C 
ENDBRANCH  16  19
BRANCH  17  21
ATOM     21  O   UNL     1     111.103 133.607 148.630  0.00  0.00    +0.000 OA
ATOM     22  C   UNL     1     111.719 133.474 149.162  0.00  0.00    +0.000 C 
ENDBRANCH  17  21
ENDBRANCH   5  13
BRANCH  11  23
ATOM     23  O   UNL     1     111.058 129.660 143.341  0.00  0.00    +0.000 OA
ATOM     24  C   UNL     1     111.675 129.113 143.334  0.00  0.00    +0.000 C 
ENDBRANCH  11  23
BRANCH   7  25
ATOM     25  O   UNL     1     111.745 133.909 145.104  0.00  0.00    +0.000 OA
BRANCH  25  26
ATOM     26  S   UNL     1     111.761 134.482 144.510  0.00  0.00    +0.000 S 
ATOM     27  O   UNL     1     111.776 135.055 143.917  0.00  0.00    +0.000 OA
ATOM     28  O   UNL     1     110.936 134.494 144.501  0.00  0.00    +0.000 OA
ATOM     29  O   UNL     1     112.585 134.470 144.520  0.00  0.00    +0.000 OA
ENDBRANCH  25  26
ENDBRANCH   7  25
TORSDOF 6
ENDMDL
MODEL 5
REMARK VINA RESULT:      -8.0      1.767      4.015
REMARK  Name = 44259630
REMARK  6 active torsions:
REMARK  status: ('A' for Active; 'I' for Inactive)
REMARK    1  A    between atoms: S_1  and  O_3
REMARK    2  A    between atoms: O_3  and  C_16
REMARK    3  A    between atoms: O_4  and  C_21
REMARK    4  A    between atoms: O_7  and  C_24
REMARK    5  A    between atoms: O_8  and  C_25
REMARK    6  A    between atoms: C_13  and  C_15
REMARK                            x       y       z     vdW  Elec       q    Type
REMARK                         _______ _______ _______ _____ _____    ______ ____
ROOT
ATOM      1  O   UNL     1     103.604 124.885 147.101  0.00  0.00    +0.000 OA
ATOM      2  O   UNL     1     104.133 122.847 145.124  0.00  0.00    +0.000 OA
ATOM      3  O   UNL     1     105.066 123.923 145.351  0.00  0.00    +0.000 OA
ATOM      4  C   UNL     1     103.865 123.877 146.123  0.00  0.00    +0.000 A 
ATOM      5  C   UNL     1     104.318 125.253 146.912  0.00  0.00    +0.000 A 
ATOM      6  C   UNL     1     103.377 124.197 146.707  0.00  0.00    +0.000 A 
ATOM      7  C   UNL     1     104.806 124.932 146.329  0.00  0.00    +0.000 A 
ATOM      8  C   UNL     1     104.579 124.244 145.934  0.00  0.00    +0.000 A 
ATOM      9  C   UNL     1     103.639 123.160 145.705  0.00  0.00    +0.000 A 
ATOM     10  C   UNL     1     102.631 123.824 146.912  0.00  0.00    +0.000 A 
ATOM     11  C   UNL     1     102.389 123.107 146.505  0.00  0.00    +0.000 A 
ATOM     12  C   UNL     1     102.897 122.773 145.898  0.00  0.00    +0.000 A 
ENDROOT
BRANCH   5  13
ATOM     13  C   UNL     1     104.545 125.941 147.306  0.00  0.00    +0.000 A 
ATOM     14  C   UNL     1     104.979 125.891 148.006  0.00  0.00    +0.000 A 
ATOM     15  C   UNL     1     104.338 126.679 147.002  0.00  0.00    +0.000 A 
ATOM     16  C   UNL     1     105.207 126.580 148.401  0.00  0.00    +0.000 A 
ATOM     17  C   UNL     1     104.999 127.317 148.095  0.00  0.00    +0.000 A 
ATOM     18  C   UNL     1     104.565 127.367 147.396  0.00  0.00    +0.000 A 
BRANCH  16  19
ATOM     19  O   UNL     1     105.641 126.530 149.101  0.00  0.00    +0.000 OA
ATOM     20  C   UNL     1     105.679 125.815 149.512  0.00  0.00    +0.000 C 
ENDBRANCH  16  19
BRANCH  17  21
ATOM     21  O   UNL     1     105.226 128.006 148.490  0.00  0.00    +0.000 OA
ATOM     22  C   UNL     1     105.105 128.741 148.138  0.00  0.00    +0.000 C 
ENDBRANCH  17  21
ENDBRANCH   5  13
BRANCH  11  23
ATOM     23  O   UNL     1     101.675 122.742 146.696  0.00  0.00    +0.000 OA
ATOM     24  C   UNL     1     100.980 122.967 146.313  0.00  0.00    +0.000 C 
ENDBRANCH  11  23
BRANCH   7  25
ATOM     25  O   UNL     1     105.520 125.299 146.140  0.00  0.00    +0.000 OA
BRANCH  25  26
ATOM     26  S   UNL     1     105.907 125.111 145.436  0.00  0.00    +0.000 S 
ATOM     27  O   UNL     1     106.294 124.923 144.732  0.00  0.00    +0.000 OA
ATOM     28  O   UNL     1     106.439 124.639 145.854  0.00  0.00    +0.000 OA
ATOM     29  O   UNL     1     105.375 125.583 145.018  0.00  0.00    +0.000 OA
ENDBRANCH  25  26
ENDBRANCH   7  25
TORSDOF 6
ENDMDL
MODEL 6
REMARK VINA RESULT:      -7.9     12.283     13.116
REMARK  Name = 44259630
REMARK  6 active torsions:
REMARK  status: ('A' for Active; 'I' for Inactive)
REMARK    1  A    between atoms: S_1  and  O_3
REMARK    2  A    between atoms: O_3  and  C_16
REMARK    3  A    between atoms: O_4  and  C_21
REMARK    4  A    between atoms: O_7  and  C_24
REMARK    5  A    between atoms: O_8  and  C_25
REMARK    6  A    between atoms: C_13  and  C_15
REMARK                            x       y       z     vdW  Elec       q    Type
REMARK                         _______ _______ _______ _____ _____    ______ ____
ROOT
ATOM      1  O   UNL     1     112.542 126.623 136.683  0.00  0.00    +0.000 OA
ATOM      2  O   UNL     1     111.673 123.915 136.178  0.00  0.00    +0.000 OA
ATOM      3  O   UNL     1     110.853 125.041 135.804  0.00  0.00    +0.000 OA
ATOM      4  C   UNL     1     112.113 125.283 136.434  0.00  0.00    +0.000 A 
ATOM      5  C   UNL     1     111.845 126.909 136.346  0.00  0.00    +0.000 A 
ATOM      6  C   UNL     1     112.676 125.811 136.726  0.00  0.00    +0.000 A 
ATOM      7  C   UNL     1     111.282 126.382 136.054  0.00  0.00    +0.000 A 
ATOM      8  C   UNL     1     111.416 125.568 136.097  0.00  0.00    +0.000 A 
ATOM      9  C   UNL     1     112.242 124.434 136.473  0.00  0.00    +0.000 A 
ATOM     10  C   UNL     1     113.406 125.525 137.079  0.00  0.00    +0.000 A 
ATOM     11  C   UNL     1     113.552 124.680 137.127  0.00  0.00    +0.000 A 
ATOM     12  C   UNL     1     112.965 124.131 136.822  0.00  0.00    +0.000 A 
ENDROOT
BRANCH   5  13
ATOM     13  C   UNL     1     111.711 127.721 136.303  0.00  0.00    +0.000 A 
ATOM     14  C   UNL     1     112.040 128.161 135.688  0.00  0.00    +0.000 A 
ATOM     15  C   UNL     1     111.247 128.095 136.874  0.00  0.00    +0.000 A 
ATOM     16  C   UNL     1     111.906 128.975 135.644  0.00  0.00    +0.000 A 
ATOM     17  C   UNL     1     111.442 129.347 136.215  0.00  0.00    +0.000 A 
ATOM     18  C   UNL     1     111.113 128.907 136.831  0.00  0.00    +0.000 A 
BRANCH  16  19
ATOM     19  O   UNL     1     112.235 129.415 135.028  0.00  0.00    +0.000 OA
ATOM     20  C   UNL     1     112.885 129.121 134.614  0.00  0.00    +0.000 C 
ENDBRANCH  16  19
BRANCH  17  21
ATOM     21  O   UNL     1     111.308 130.161 136.171  0.00  0.00    +0.000 OA
ATOM     22  C   UNL     1     110.776 130.519 136.690  0.00  0.00    +0.000 C 
ENDBRANCH  17  21
ENDBRANCH   5  13
BRANCH  11  23
ATOM     23  O   UNL     1     114.250 124.397 137.464  0.00  0.00    +0.000 OA
ATOM     24  C   UNL     1     114.979 124.675 137.198  0.00  0.00    +0.000 C 
ENDBRANCH  11  23
BRANCH   7  25
ATOM     25  O   UNL     1     110.585 126.667 135.717  0.00  0.00    +0.000 OA
BRANCH  25  26
ATOM     26  S   UNL     1     110.133 126.179 135.229  0.00  0.00    +0.000 S 
ATOM     27  O   UNL     1     109.680 125.692 134.741  0.00  0.00    +0.000 OA
ATOM     28  O   UNL     1     110.667 126.301 134.612  0.00  0.00    +0.000 OA
ATOM     29  O   UNL     1     109.598 126.058 135.845  0.00  0.00    +0.000 OA
ENDBRANCH  25  26
ENDBRANCH   7  25
TORSDOF 6
ENDMDL
MODEL 7
REMARK VINA RESULT:      -7.9     12.467     13.733
REMARK  Name = 44259630
REMARK  6 active torsions:
REMARK  status: ('A' for Active; 'I' for Inactive)
REMARK    1  A    between atoms: S_1  and  O_3
REMARK    2  A    between atoms: O_3  and  C_16
REMARK    3  A    between atoms: O_4  and  C_21
REMARK    4  A    between atoms: O_7  and  C_24
REMARK    5  A    between atoms: O_8  and  C_25
REMARK    6  A    between atoms: C_13  and  C_15
REMARK                            x       y       z     vdW  Elec       q    Type
REMARK                         _______ _______ _______ _____ _____    ______ ____
ROOT
ATOM      1  O   UNL     1     111.994 127.185 136.033  0.00  0.00    +0.000 OA
ATOM      2  O   UNL     1     111.864 124.335 136.484  0.00  0.00    +0.000 OA
ATOM      3  O   UNL     1     112.884 125.141 137.108  0.00  0.00    +0.000 OA
ATOM      4  C   UNL     1     111.929 125.776 136.255  0.00  0.00    +0.000 A 
ATOM      5  C   UNL     1     112.653 127.233 136.527  0.00  0.00    +0.000 A 
ATOM      6  C   UNL     1     111.632 126.457 135.897  0.00  0.00    +0.000 A 
ATOM      7  C   UNL     1     112.950 126.552 136.886  0.00  0.00    +0.000 A 
ATOM      8  C   UNL     1     112.588 125.822 136.749  0.00  0.00    +0.000 A 
ATOM      9  C   UNL     1     111.560 125.010 136.121  0.00  0.00    +0.000 A 
ATOM     10  C   UNL     1     110.947 126.420 135.379  0.00  0.00    +0.000 A 
ATOM     11  C   UNL     1     110.566 125.664 135.234  0.00  0.00    +0.000 A 
ATOM     12  C   UNL     1     110.874 124.955 135.607  0.00  0.00    +0.000 A 
ENDROOT
BRANCH   5  13
ATOM     13  C   UNL     1     113.015 127.961 136.663  0.00  0.00    +0.000 A 
ATOM     14  C   UNL     1     113.562 128.258 136.121  0.00  0.00    +0.000 A 
ATOM     15  C   UNL     1     112.831 128.394 137.341  0.00  0.00    +0.000 A 
ATOM     16  C   UNL     1     113.924 128.987 136.257  0.00  0.00    +0.000 A 
ATOM     17  C   UNL     1     113.739 129.418 136.935  0.00  0.00    +0.000 A 
ATOM     18  C   UNL     1     113.193 129.122 137.478  0.00  0.00    +0.000 A 
BRANCH  16  19
ATOM     19  O   UNL     1     114.471 129.283 135.715  0.00  0.00    +0.000 OA
ATOM     20  C   UNL     1     114.480 128.997 134.941  0.00  0.00    +0.000 C 
ENDBRANCH  16  19
BRANCH  17  21
ATOM     21  O   UNL     1     114.102 130.148 137.071  0.00  0.00    +0.000 OA
ATOM     22  C   UNL     1     113.947 130.561 137.768  0.00  0.00    +0.000 C 
ENDBRANCH  17  21
ENDBRANCH   5  13
BRANCH  11  23
ATOM     23  O   UNL     1     109.907 125.620 134.739  0.00  0.00    +0.000 OA
ATOM     24  C   UNL     1     109.222 126.040 134.924  0.00  0.00    +0.000 C 
ENDBRANCH  11  23
BRANCH   7  25
ATOM     25  O   UNL     1     113.608 126.598 137.380  0.00  0.00    +0.000 OA
BRANCH  25  26
ATOM     26  S   UNL     1     114.027 125.915 137.576  0.00  0.00    +0.000 S 
ATOM     27  O   UNL     1     114.447 125.232 137.771  0.00  0.00    +0.000 OA
ATOM     28  O   UNL     1     114.410 125.941 136.845  0.00  0.00    +0.000 OA
ATOM     29  O   UNL     1     113.645 125.890 138.306  0.00  0.00    +0.000 OA
ENDBRANCH  25  26
ENDBRANCH   7  25
TORSDOF 6
ENDMDL
MODEL 8
REMARK VINA RESULT:      -7.9      1.532      4.628
REMARK  Name = 44259630
REMARK  6 active torsions:
REMARK  status: ('A' for Active; 'I' for Inactive)
REMARK    1  A    between atoms: S_1  and  O_3
REMARK    2  A    between atoms: O_3  and  C_16
REMARK    3  A    between atoms: O_4  and  C_21
REMARK    4  A    between atoms: O_7  and  C_24
REMARK    5  A    between atoms: O_8  and  C_25
REMARK    6  A    between atoms: C_13  and  C_15
REMARK                            x       y       z     vdW  Elec       q    Type
REMARK                         _______ _______ _______ _____ _____    ______ ____
ROOT
ATOM      1  O   UNL     1     104.183 124.292 146.918  0.00  0.00    +0.000 OA
ATOM      2  O   UNL     1     101.608 125.184 147.876  0.00  0.00    +0.000 OA
ATOM      3  O   UNL     1     102.821 125.862 148.261  0.00  0.00    +0.000 OA
ATOM      4  C   UNL     1     102.909 124.732 147.391  0.00  0.00    +0.000 A 
ATOM      5  C   UNL     1     104.550 124.899 147.340  0.00  0.00    +0.000 A 
ATOM      6  C   UNL     1     103.363 124.209 146.943  0.00  0.00    +0.000 A 
ATOM      7  C   UNL     1     104.096 125.422 147.788  0.00  0.00    +0.000 A 
ATOM      8  C   UNL     1     103.275 125.339 147.813  0.00  0.00    +0.000 A 
ATOM      9  C   UNL     1     102.053 124.655 147.425  0.00  0.00    +0.000 A 
ATOM     10  C   UNL     1     102.993 123.572 146.499  0.00  0.00    +0.000 A 
ATOM     11  C   UNL     1     102.139 123.481 146.521  0.00  0.00    +0.000 A 
ATOM     12  C   UNL     1     101.666 124.026 146.988  0.00  0.00    +0.000 A 
ENDROOT
BRANCH   5  13
ATOM     13  C   UNL     1     105.369 124.982 147.314  0.00  0.00    +0.000 A 
ATOM     14  C   UNL     1     105.726 125.359 146.673  0.00  0.00    +0.000 A 
ATOM     15  C   UNL     1     105.834 124.689 147.930  0.00  0.00    +0.000 A 
ATOM     16  C   UNL     1     106.547 125.443 146.647  0.00  0.00    +0.000 A 
ATOM     17  C   UNL     1     107.010 125.149 147.263  0.00  0.00    +0.000 A 
ATOM     18  C   UNL     1     106.654 124.772 147.905  0.00  0.00    +0.000 A 
BRANCH  16  19
ATOM     19  O   UNL     1     106.903 125.820 146.006  0.00  0.00    +0.000 OA
ATOM     20  C   UNL     1     106.458 126.001 145.335  0.00  0.00    +0.000 C 
ENDBRANCH  16  19
BRANCH  17  21
ATOM     21  O   UNL     1     107.831 125.233 147.238  0.00  0.00    +0.000 OA
ATOM     22  C   UNL     1     108.287 125.025 147.893  0.00  0.00    +0.000 C 
ENDBRANCH  17  21
ENDBRANCH   5  13
BRANCH  11  23
ATOM     23  O   UNL     1     101.775 122.873 146.098  0.00  0.00    +0.000 OA
ATOM     24  C   UNL     1     101.347 123.045 145.415  0.00  0.00    +0.000 C 
ENDBRANCH  11  23
BRANCH   7  25
ATOM     25  O   UNL     1     104.461 126.029 148.210  0.00  0.00    +0.000 OA
BRANCH  25  26
ATOM     26  S   UNL     1     104.005 126.612 148.574  0.00  0.00    +0.000 S 
ATOM     27  O   UNL     1     103.549 127.195 148.938  0.00  0.00    +0.000 OA
ATOM     28  O   UNL     1     104.029 126.189 149.282  0.00  0.00    +0.000 OA
ATOM     29  O   UNL     1     103.982 127.035 147.866  0.00  0.00    +0.000 OA
ENDBRANCH  25  26
ENDBRANCH   7  25
TORSDOF 6
ENDMDL
MODEL 9
REMARK VINA RESULT:      -7.8     12.613     14.265
REMARK  Name = 44259630
REMARK  6 active torsions:
REMARK  status: ('A' for Active; 'I' for Inactive)
REMARK    1  A    between atoms: S_1  and  O_3
REMARK    2  A    between atoms: O_3  and  C_16
REMARK    3  A    between atoms: O_4  and  C_21
REMARK    4  A    between atoms: O_7  and  C_24
REMARK    5  A    between atoms: O_8  and  C_25
REMARK    6  A    between atoms: C_13  and  C_15
REMARK                            x       y       z     vdW  Elec       q    Type
REMARK                         _______ _______ _______ _____ _____    ______ ____
ROOT
ATOM      1  O   UNL     1     113.837 127.602 136.503  0.00  0.00    +0.000 OA
ATOM      2  O   UNL     1     111.439 126.010 136.255  0.00  0.00    +0.000 OA
ATOM      3  O   UNL     1     111.489 127.363 135.757  0.00  0.00    +0.000 OA
ATOM      4  C   UNL     1     112.652 126.814 136.381  0.00  0.00    +0.000 A 
ATOM      5  C   UNL     1     113.458 128.231 136.128  0.00  0.00    +0.000 A 
ATOM      6  C   UNL     1     113.435 126.894 136.630  0.00  0.00    +0.000 A 
ATOM      7  C   UNL     1     112.676 128.152 135.879  0.00  0.00    +0.000 A 
ATOM      8  C   UNL     1     112.272 127.443 136.006  0.00  0.00    +0.000 A 
ATOM      9  C   UNL     1     112.222 126.081 136.507  0.00  0.00    +0.000 A 
ATOM     10  C   UNL     1     113.841 126.245 137.022  0.00  0.00    +0.000 A 
ATOM     11  C   UNL     1     113.426 125.505 137.156  0.00  0.00    +0.000 A 
ATOM     12  C   UNL     1     112.611 125.422 136.897  0.00  0.00    +0.000 A 
ENDROOT
BRANCH   5  13
ATOM     13  C   UNL     1     113.861 128.940 136.002  0.00  0.00    +0.000 A 
ATOM     14  C   UNL     1     113.859 129.525 136.583  0.00  0.00    +0.000 A 
ATOM     15  C   UNL     1     114.266 129.064 135.294  0.00  0.00    +0.000 A 
ATOM     16  C   UNL     1     114.262 130.234 136.457  0.00  0.00    +0.000 A 
ATOM     17  C   UNL     1     114.666 130.357 135.749  0.00  0.00    +0.000 A 
ATOM     18  C   UNL     1     114.668 129.772 135.167  0.00  0.00    +0.000 A 
BRANCH  16  19
ATOM     19  O   UNL     1     114.260 130.819 137.039  0.00  0.00    +0.000 OA
ATOM     20  C   UNL     1     114.152 130.613 137.830  0.00  0.00    +0.000 C 
ENDBRANCH  16  19
BRANCH  17  21
ATOM     21  O   UNL     1     115.069 131.067 135.623  0.00  0.00    +0.000 OA
ATOM     22  C   UNL     1     115.460 131.197 134.908  0.00  0.00    +0.000 C 
ENDBRANCH  17  21
ENDBRANCH   5  13
BRANCH  11  23
ATOM     23  O   UNL     1     113.808 124.877 137.532  0.00  0.00    +0.000 OA
ATOM     24  C   UNL     1     114.528 124.599 137.242  0.00  0.00    +0.000 C 
ENDBRANCH  11  23
BRANCH   7  25
ATOM     25  O   UNL     1     112.296 128.780 135.504  0.00  0.00    +0.000 OA
BRANCH  25  26
ATOM     26  S   UNL     1     111.481 128.754 135.376  0.00  0.00    +0.000 S 
ATOM     27  O   UNL     1     110.666 128.727 135.248  0.00  0.00    +0.000 OA
ATOM     28  O   UNL     1     111.610 128.471 134.612  0.00  0.00    +0.000 OA
ATOM     29  O   UNL     1     111.352 129.037 136.140  0.00  0.00    +0.000 OA
ENDBRANCH  25  26
ENDBRANCH   7  25
TORSDOF 6
ENDMDL
MODEL 10
REMARK VINA RESULT:      -7.7     12.035     13.529
REMARK  Name = 44259630
REMARK  6 active torsions:
REMARK  status: ('A' for Active; 'I' for Inactive)
REMARK    1  A    between atoms: S_1  and  O_3
REMARK    2  A    between atoms: O_3  and  C_16
REMARK    3  A    between atoms: O_4  and  C_21
REMARK    4  A    between atoms: O_7  and  C_24
REMARK    5  A    between atoms: O_8  and  C_25
REMARK    6  A    between atoms: C_13  and  C_15
REMARK                            x       y       z     vdW  Elec       q    Type
REMARK                         _______ _______ _______ _____ _____    ______ ____
ROOT
ATOM      1  O   UNL     1     113.593 127.641 136.069  0.00  0.00    +0.000 OA
ATOM      2  O   UNL     1     113.307 130.190 137.397  0.00  0.00    +0.000 OA
ATOM      3  O   UNL     1     112.792 128.980 137.990  0.00  0.00    +0.000 OA
ATOM      4  C   UNL     1     113.452 128.901 136.724  0.00  0.00    +0.000 A 
ATOM      5  C   UNL     1     113.200 127.271 136.693  0.00  0.00    +0.000 A 
ATOM      6  C   UNL     1     113.719 128.455 136.084  0.00  0.00    +0.000 A 
ATOM      7  C   UNL     1     112.933 127.717 137.333  0.00  0.00    +0.000 A 
ATOM      8  C   UNL     1     113.059 128.533 137.349  0.00  0.00    +0.000 A 
ATOM      9  C   UNL     1     113.578 129.752 136.752  0.00  0.00    +0.000 A 
ATOM     10  C   UNL     1     114.130 128.828 135.427  0.00  0.00    +0.000 A 
ATOM     11  C   UNL     1     114.264 129.676 135.438  0.00  0.00    +0.000 A 
ATOM     12  C   UNL     1     113.986 130.141 136.105  0.00  0.00    +0.000 A 
ENDROOT
BRANCH   5  13
ATOM     13  C   UNL     1     113.074 126.457 136.677  0.00  0.00    +0.000 A 
ATOM     14  C   UNL     1     113.661 125.943 136.947  0.00  0.00    +0.000 A 
ATOM     15  C   UNL     1     112.362 126.154 136.392  0.00  0.00    +0.000 A 
ATOM     16  C   UNL     1     113.536 125.127 136.932  0.00  0.00    +0.000 A 
ATOM     17  C   UNL     1     112.823 124.826 136.646  0.00  0.00    +0.000 A 
ATOM     18  C   UNL     1     112.236 125.339 136.376  0.00  0.00    +0.000 A 
BRANCH  16  19
ATOM     19  O   UNL     1     114.122 124.614 137.202  0.00  0.00    +0.000 OA
ATOM     20  C   UNL     1     114.903 124.876 137.263  0.00  0.00    +0.000 C 
ENDBRANCH  16  19
BRANCH  17  21
ATOM     21  O   UNL     1     112.697 124.010 136.631  0.00  0.00    +0.000 OA
ATOM     22  C   UNL     1     111.933 123.713 136.536  0.00  0.00    +0.000 C 
ENDBRANCH  17  21
ENDBRANCH   5  13
BRANCH  11  23
ATOM     23  O   UNL     1     114.658 130.043 134.812  0.00  0.00    +0.000 OA
ATOM     24  C   UNL     1     115.415 130.350 134.923  0.00  0.00    +0.000 C 
ENDBRANCH  11  23
BRANCH   7  25
ATOM     25  O   UNL     1     112.540 127.349 137.958  0.00  0.00    +0.000 OA
BRANCH  25  26
ATOM     26  S   UNL     1     112.447 127.743 138.677  0.00  0.00    +0.000 S 
ATOM     27  O   UNL     1     112.354 128.137 139.396  0.00  0.00    +0.000 OA
ATOM     28  O   UNL     1     113.221 127.548 138.884  0.00  0.00    +0.000 OA
ATOM     29  O   UNL     1     111.673 127.938 138.469  0.00  0.00    +0.000 OA
ENDBRANCH  25  26
ENDBRANCH   7  25
TORSDOF 6
ENDMDL
