MODEL 1
REMARK VINA RESULT:     -11.2      0.000      0.000
REMARK  Name = 131752327
REMARK  14 active torsions:
REMARK  status: ('A' for Active; 'I' for Inactive)
REMARK    1  A    between atoms: O_1  and  C_26
REMARK    2  A    between atoms: O_1  and  C_33
REMARK    3  A    between atoms: O_2  and  C_28
REMARK    4  A    between atoms: O_2  and  C_30
REMARK    5  A    between atoms: O_5  and  C_27
REMARK    6  A    between atoms: O_5  and  C_44
REMARK    7  A    between atoms: O_9  and  C_35
REMARK    8  A    between atoms: O_9  and  C_45
REMARK    9  A    between atoms: C_31  and  C_41
REMARK   10  A    between atoms: C_39  and  C_42
REMARK   11  A    between atoms: C_40  and  C_43
REMARK   12  A    between atoms: C_44  and  C_46
REMARK   13  A    between atoms: C_52  and  C_54
REMARK   14  A    between atoms: C_55  and  C_59
REMARK                            x       y       z     vdW  Elec       q    Type
REMARK                         _______ _______ _______ _____ _____    ______ ____
ROOT
ATOM      1  O   UNL     1     106.722 128.292 144.280  0.00  0.00    +0.000 OA
ATOM      2  O   UNL     1     107.941 130.063 143.898  0.00  0.00    +0.000 OA
ATOM      3  C   UNL     1     106.898 129.461 143.128  0.00  0.00    +0.000 C 
ATOM      4  C   UNL     1     106.332 128.868 143.032  0.00  0.00    +0.000 C 
ATOM      5  C   UNL     1     106.245 128.284 143.608  0.00  0.00    +0.000 C 
ATOM      6  C   UNL     1     107.376 129.470 143.802  0.00  0.00    +0.000 C 
ATOM      7  C   UNL     1     107.287 128.886 144.377  0.00  0.00    +0.000 C 
ENDROOT
BRANCH   7  10
ATOM      8  O   UNL     1     107.535 129.326 145.715  0.00  0.00    +0.000 OA
ATOM      9  O   UNL     1     108.474 128.472 145.058  0.00  0.00    +0.000 OA
ATOM     10  C   UNL     1     107.766 128.895 145.050  0.00  0.00    +0.000 C 
ENDBRANCH   7  10
BRANCH   3  11
ATOM     11  O   UNL     1     106.986 130.045 142.553  0.00  0.00    +0.000 OA
BRANCH  11  16
ATOM     12  O   UNL     1     107.923 129.262 141.813  0.00  0.00    +0.000 OA
ATOM     13  O   UNL     1     107.569 131.415 141.842  0.00  0.00    +0.000 OA
ATOM     14  O   UNL     1     108.798 131.316 140.746  0.00  0.00    +0.000 OA
ATOM     15  O   UNL     1     109.444 129.848 140.361  0.00  0.00    +0.000 OA
ATOM     16  C   UNL     1     107.600 129.996 142.005  0.00  0.00    +0.000 C 
ATOM     17  C   UNL     1     107.892 130.681 141.650  0.00  0.00    +0.000 C 
ATOM     18  C   UNL     1     108.506 130.632 141.102  0.00  0.00    +0.000 C 
ATOM     19  C   UNL     1     108.830 129.897 140.909  0.00  0.00    +0.000 C 
ATOM     20  C   UNL     1     108.538 129.213 141.265  0.00  0.00    +0.000 C 
BRANCH  20  23
ATOM     21  O   UNL     1     109.499 128.183 141.503  0.00  0.00    +0.000 OA
ATOM     22  O   UNL     1     108.546 128.039 140.448  0.00  0.00    +0.000 OA
ATOM     23  C   UNL     1     108.861 128.478 141.072  0.00  0.00    +0.000 C 
ENDBRANCH  20  23
ENDBRANCH  11  16
ENDBRANCH   3  11
BRANCH   5  24
ATOM     24  O   UNL     1     105.680 127.690 143.512  0.00  0.00    +0.000 OA
BRANCH  24  28
ATOM     25  O   UNL     1     106.253 125.632 143.956  0.00  0.00    +0.000 OA
ATOM     26  O   UNL     1     105.026 127.502 145.015  0.00  0.00    +0.000 OA
ATOM     27  O   UNL     1     105.190 126.068 145.811  0.00  0.00    +0.000 OA
ATOM     28  C   UNL     1     105.762 126.973 143.910  0.00  0.00    +0.000 C 
ATOM     29  C   UNL     1     105.435 126.879 144.662  0.00  0.00    +0.000 C 
ATOM     30  C   UNL     1     106.171 126.349 143.557  0.00  0.00    +0.000 C 
ATOM     31  C   UNL     1     105.517 126.161 145.060  0.00  0.00    +0.000 C 
ATOM     32  C   UNL     1     105.926 125.537 144.707  0.00  0.00    +0.000 C 
BRANCH  32  35
ATOM     33  O   UNL     1     105.436 124.232 145.020  0.00  0.00    +0.000 OA
ATOM     34  O   UNL     1     106.663 124.691 145.591  0.00  0.00    +0.000 OA
ATOM     35  C   UNL     1     106.008 124.820 145.105  0.00  0.00    +0.000 C 
ENDBRANCH  32  35
BRANCH  30  36
ATOM     36  O   UNL     1     106.498 126.443 142.806  0.00  0.00    +0.000 OA
BRANCH  36  40
ATOM     37  O   UNL     1     105.138 124.901 140.742  0.00  0.00    +0.000 OA
ATOM     38  O   UNL     1     107.794 124.131 141.579  0.00  0.00    +0.000 OA
ATOM     39  O   UNL     1     107.091 123.391 140.560  0.00  0.00    +0.000 OA
ATOM     40  C   UNL     1     106.489 125.816 142.270  0.00  0.00    +0.000 A 
ATOM     41  C   UNL     1     105.801 125.681 141.772  0.00  0.00    +0.000 A 
ATOM     42  C   UNL     1     107.166 125.291 142.207  0.00  0.00    +0.000 A 
ATOM     43  C   UNL     1     105.801 125.025 141.218  0.00  0.00    +0.000 A 
ATOM     44  C   UNL     1     107.148 124.640 141.647  0.00  0.00    +0.000 A 
ATOM     45  C   UNL     1     106.452 124.522 141.157  0.00  0.00    +0.000 A 
ATOM     46  C   UNL     1     106.440 123.895 140.621  0.00  0.00    +0.000 A 
ATOM     47  C   UNL     1     105.126 124.274 140.206  0.00  0.00    +0.000 A 
ATOM     48  C   UNL     1     105.777 123.771 140.145  0.00  0.00    +0.000 A 
BRANCH  47  50
ATOM     49  O   UNL     1     102.476 123.778 138.304  0.00  0.00    +0.000 OA
ATOM     50  C   UNL     1     104.464 124.151 139.730  0.00  0.00    +0.000 A 
ATOM     51  C   UNL     1     104.302 124.665 139.106  0.00  0.00    +0.000 A 
ATOM     52  C   UNL     1     103.963 123.512 139.880  0.00  0.00    +0.000 A 
ATOM     53  C   UNL     1     103.639 124.541 138.631  0.00  0.00    +0.000 A 
ATOM     54  C   UNL     1     103.300 123.388 139.404  0.00  0.00    +0.000 A 
ATOM     55  C   UNL     1     103.138 123.902 138.780  0.00  0.00    +0.000 A 
ENDBRANCH  47  50
ENDBRANCH  36  40
ENDBRANCH  30  36
ENDBRANCH  24  28
ENDBRANCH   5  24
BRANCH   4  56
ATOM     56  O   UNL     1     105.855 128.859 142.360  0.00  0.00    +0.000 OA
BRANCH  56  58
ATOM     57  O   UNL     1     104.890 129.671 143.031  0.00  0.00    +0.000 OA
ATOM     58  C   UNL     1     105.122 129.237 142.369  0.00  0.00    +0.000 C 
BRANCH  58  59
ATOM     59  C   UNL     1     104.620 129.182 141.716  0.00  0.00    +0.000 C 
ATOM     60  C   UNL     1     103.821 129.371 141.792  0.00  0.00    +0.000 C 
BRANCH  60  62
ATOM     61  O   UNL     1     101.816 129.149 139.180  0.00  0.00    +0.000 OA
ATOM     62  C   UNL     1     103.320 129.316 141.140  0.00  0.00    +0.000 A 
ATOM     63  C   UNL     1     102.774 129.915 140.986  0.00  0.00    +0.000 A 
ATOM     64  C   UNL     1     103.365 128.661 140.640  0.00  0.00    +0.000 A 
ATOM     65  C   UNL     1     102.273 129.860 140.334  0.00  0.00    +0.000 A 
ATOM     66  C   UNL     1     102.863 128.605 139.987  0.00  0.00    +0.000 A 
ATOM     67  C   UNL     1     102.318 129.205 139.834  0.00  0.00    +0.000 A 
ENDBRANCH  60  62
ENDBRANCH  58  59
ENDBRANCH  56  58
ENDBRANCH   4  56
TORSDOF 14
ENDMDL
MODEL 2
REMARK VINA RESULT:     -10.8      2.563      6.411
REMARK  Name = 131752327
REMARK  14 active torsions:
REMARK  status: ('A' for Active; 'I' for Inactive)
REMARK    1  A    between atoms: O_1  and  C_26
REMARK    2  A    between atoms: O_1  and  C_33
REMARK    3  A    between atoms: O_2  and  C_28
REMARK    4  A    between atoms: O_2  and  C_30
REMARK    5  A    between atoms: O_5  and  C_27
REMARK    6  A    between atoms: O_5  and  C_44
REMARK    7  A    between atoms: O_9  and  C_35
REMARK    8  A    between atoms: O_9  and  C_45
REMARK    9  A    between atoms: C_31  and  C_41
REMARK   10  A    between atoms: C_39  and  C_42
REMARK   11  A    between atoms: C_40  and  C_43
REMARK   12  A    between atoms: C_44  and  C_46
REMARK   13  A    between atoms: C_52  and  C_54
REMARK   14  A    between atoms: C_55  and  C_59
REMARK                            x       y       z     vdW  Elec       q    Type
REMARK                         _______ _______ _______ _____ _____    ______ ____
ROOT
ATOM      1  O   UNL     1     105.790 126.012 144.392  0.00  0.00    +0.000 OA
ATOM      2  O   UNL     1     105.448 124.484 145.913  0.00  0.00    +0.000 OA
ATOM      3  C   UNL     1     105.561 125.905 146.022  0.00  0.00    +0.000 C 
ATOM      4  C   UNL     1     105.674 126.642 145.669  0.00  0.00    +0.000 C 
ATOM      5  C   UNL     1     105.789 126.695 144.853  0.00  0.00    +0.000 C 
ATOM      6  C   UNL     1     105.562 125.221 145.560  0.00  0.00    +0.000 C 
ATOM      7  C   UNL     1     105.676 125.275 144.745  0.00  0.00    +0.000 C 
ENDROOT
BRANCH   7  10
ATOM      8  O   UNL     1     106.381 124.180 144.155  0.00  0.00    +0.000 OA
ATOM      9  O   UNL     1     104.974 124.319 143.948  0.00  0.00    +0.000 OA
ATOM     10  C   UNL     1     105.677 124.591 144.283  0.00  0.00    +0.000 C 
ENDBRANCH   7  10
BRANCH   3  11
ATOM     11  O   UNL     1     105.446 125.851 146.837  0.00  0.00    +0.000 OA
BRANCH  11  16
ATOM     12  O   UNL     1     106.836 125.689 147.122  0.00  0.00    +0.000 OA
ATOM     13  O   UNL     1     105.068 125.002 148.200  0.00  0.00    +0.000 OA
ATOM     14  O   UNL     1     106.270 124.415 149.167  0.00  0.00    +0.000 OA
ATOM     15  O   UNL     1     107.850 124.678 148.770  0.00  0.00    +0.000 OA
ATOM     16  C   UNL     1     106.047 125.558 147.320  0.00  0.00    +0.000 C 
ATOM     17  C   UNL     1     105.857 125.133 148.002  0.00  0.00    +0.000 C 
ATOM     18  C   UNL     1     106.458 124.840 148.485  0.00  0.00    +0.000 C 
ATOM     19  C   UNL     1     107.249 124.971 148.287  0.00  0.00    +0.000 C 
ATOM     20  C   UNL     1     107.437 125.396 147.605  0.00  0.00    +0.000 C 
BRANCH  20  23
ATOM     21  O   UNL     1     108.725 124.888 147.253  0.00  0.00    +0.000 OA
ATOM     22  O   UNL     1     108.520 126.298 147.362  0.00  0.00    +0.000 OA
ATOM     23  C   UNL     1     108.228 125.527 147.406  0.00  0.00    +0.000 C 
ENDBRANCH  20  23
ENDBRANCH  11  16
ENDBRANCH   3  11
BRANCH   5  24
ATOM     24  O   UNL     1     105.902 127.432 144.500  0.00  0.00    +0.000 OA
BRANCH  24  28
ATOM     25  O   UNL     1     106.310 127.602 142.363  0.00  0.00    +0.000 OA
ATOM     26  O   UNL     1     107.552 127.433 144.496  0.00  0.00    +0.000 OA
ATOM     27  O   UNL     1     108.373 127.547 143.071  0.00  0.00    +0.000 OA
ATOM     28  C   UNL     1     106.313 127.489 143.787  0.00  0.00    +0.000 C 
ATOM     29  C   UNL     1     107.138 127.490 143.785  0.00  0.00    +0.000 C 
ATOM     30  C   UNL     1     105.898 127.545 143.076  0.00  0.00    +0.000 C 
ATOM     31  C   UNL     1     107.548 127.547 143.072  0.00  0.00    +0.000 C 
ATOM     32  C   UNL     1     107.134 127.603 142.361  0.00  0.00    +0.000 C 
BRANCH  32  35
ATOM     33  O   UNL     1     107.784 128.398 141.367  0.00  0.00    +0.000 OA
ATOM     34  O   UNL     1     107.717 126.979 141.216  0.00  0.00    +0.000 OA
ATOM     35  C   UNL     1     107.545 127.660 141.648  0.00  0.00    +0.000 C 
ENDBRANCH  32  35
BRANCH  30  36
ATOM     36  O   UNL     1     105.074 127.545 143.078  0.00  0.00    +0.000 OA
BRANCH  36  40
ATOM     37  O   UNL     1     103.776 130.152 143.113  0.00  0.00    +0.000 OA
ATOM     38  O   UNL     1     103.830 128.620 140.664  0.00  0.00    +0.000 OA
ATOM     39  O   UNL     1     103.196 129.915 140.718  0.00  0.00    +0.000 OA
ATOM     40  C   UNL     1     104.660 128.143 142.689  0.00  0.00    +0.000 A 
ATOM     41  C   UNL     1     104.428 128.854 143.113  0.00  0.00    +0.000 A 
ATOM     42  C   UNL     1     104.459 128.062 141.858  0.00  0.00    +0.000 A 
ATOM     43  C   UNL     1     103.997 129.472 142.700  0.00  0.00    +0.000 A 
ATOM     44  C   UNL     1     104.028 128.690 141.462  0.00  0.00    +0.000 A 
ATOM     45  C   UNL     1     103.804 129.393 141.902  0.00  0.00    +0.000 A 
ATOM     46  C   UNL     1     103.390 129.993 141.517  0.00  0.00    +0.000 A 
ATOM     47  C   UNL     1     103.363 130.753 142.727  0.00  0.00    +0.000 A 
ATOM     48  C   UNL     1     103.169 130.673 141.929  0.00  0.00    +0.000 A 
BRANCH  47  50
ATOM     49  O   UNL     1     102.481 133.472 144.375  0.00  0.00    +0.000 OA
ATOM     50  C   UNL     1     103.142 131.433 143.139  0.00  0.00    +0.000 A 
ATOM     51  C   UNL     1     102.419 131.459 143.535  0.00  0.00    +0.000 A 
ATOM     52  C   UNL     1     103.646 132.086 143.155  0.00  0.00    +0.000 A 
ATOM     53  C   UNL     1     102.199 132.138 143.946  0.00  0.00    +0.000 A 
ATOM     54  C   UNL     1     103.425 132.766 143.567  0.00  0.00    +0.000 A 
ATOM     55  C   UNL     1     102.702 132.792 143.963  0.00  0.00    +0.000 A 
ENDBRANCH  47  50
ENDBRANCH  36  40
ENDBRANCH  30  36
ENDBRANCH  24  28
ENDBRANCH   5  24
BRANCH   4  56
ATOM     56  O   UNL     1     105.673 127.325 146.131  0.00  0.00    +0.000 OA
BRANCH  56  58
ATOM     57  O   UNL     1     104.246 127.354 146.206  0.00  0.00    +0.000 OA
ATOM     58  C   UNL     1     104.972 127.744 146.245  0.00  0.00    +0.000 C 
BRANCH  58  59
ATOM     59  C   UNL     1     104.996 128.555 146.399  0.00  0.00    +0.000 C 
ATOM     60  C   UNL     1     104.294 128.981 146.478  0.00  0.00    +0.000 C 
BRANCH  60  62
ATOM     61  O   UNL     1     104.392 132.222 147.093  0.00  0.00    +0.000 OA
ATOM     62  C   UNL     1     104.318 129.791 146.632  0.00  0.00    +0.000 A 
ATOM     63  C   UNL     1     103.686 130.158 147.015  0.00  0.00    +0.000 A 
ATOM     64  C   UNL     1     104.975 130.234 146.402  0.00  0.00    +0.000 A 
ATOM     65  C   UNL     1     103.711 130.968 147.168  0.00  0.00    +0.000 A 
ATOM     66  C   UNL     1     105.000 131.045 146.556  0.00  0.00    +0.000 A 
ATOM     67  C   UNL     1     104.368 131.411 146.939  0.00  0.00    +0.000 A 
ENDBRANCH  60  62
ENDBRANCH  58  59
ENDBRANCH  56  58
ENDBRANCH   4  56
TORSDOF 14
ENDMDL
MODEL 3
REMARK VINA RESULT:     -10.7      3.837      6.802
REMARK  Name = 131752327
REMARK  14 active torsions:
REMARK  status: ('A' for Active; 'I' for Inactive)
REMARK    1  A    between atoms: O_1  and  C_26
REMARK    2  A    between atoms: O_1  and  C_33
REMARK    3  A    between atoms: O_2  and  C_28
REMARK    4  A    between atoms: O_2  and  C_30
REMARK    5  A    between atoms: O_5  and  C_27
REMARK    6  A    between atoms: O_5  and  C_44
REMARK    7  A    between atoms: O_9  and  C_35
REMARK    8  A    between atoms: O_9  and  C_45
REMARK    9  A    between atoms: C_31  and  C_41
REMARK   10  A    between atoms: C_39  and  C_42
REMARK   11  A    between atoms: C_40  and  C_43
REMARK   12  A    between atoms: C_44  and  C_46
REMARK   13  A    between atoms: C_52  and  C_54
REMARK   14  A    between atoms: C_55  and  C_59
REMARK                            x       y       z     vdW  Elec       q    Type
REMARK                         _______ _______ _______ _____ _____    ______ ____
ROOT
ATOM      1  O   UNL     1     108.815 128.998 141.020  0.00  0.00    +0.000 OA
ATOM      2  O   UNL     1     108.558 131.154 140.788  0.00  0.00    +0.000 OA
ATOM      3  C   UNL     1     109.681 130.311 140.520  0.00  0.00    +0.000 C 
ATOM      4  C   UNL     1     110.026 129.561 140.512  0.00  0.00    +0.000 C 
ATOM      5  C   UNL     1     109.593 128.905 140.762  0.00  0.00    +0.000 C 
ATOM      6  C   UNL     1     108.903 130.404 140.779  0.00  0.00    +0.000 C 
ATOM      7  C   UNL     1     108.470 129.748 141.029  0.00  0.00    +0.000 C 
ENDROOT
BRANCH   7  10
ATOM      8  O   UNL     1     107.538 130.009 142.081  0.00  0.00    +0.000 OA
ATOM      9  O   UNL     1     107.069 129.767 140.753  0.00  0.00    +0.000 OA
ATOM     10  C   UNL     1     107.692 129.841 141.288  0.00  0.00    +0.000 C 
ENDBRANCH   7  10
BRANCH   3  11
ATOM     11  O   UNL     1     110.114 130.967 140.271  0.00  0.00    +0.000 OA
BRANCH  11  16
ATOM     12  O   UNL     1     109.711 130.794 138.911  0.00  0.00    +0.000 OA
ATOM     13  O   UNL     1     110.443 132.556 139.970  0.00  0.00    +0.000 OA
ATOM     14  O   UNL     1     110.205 133.177 138.460  0.00  0.00    +0.000 OA
ATOM     15  O   UNL     1     109.638 132.208 137.250  0.00  0.00    +0.000 OA
ATOM     16  C   UNL     1     109.995 131.278 139.516  0.00  0.00    +0.000 C 
ATOM     17  C   UNL     1     110.160 132.072 139.366  0.00  0.00    +0.000 C 
ATOM     18  C   UNL     1     110.041 132.382 138.611  0.00  0.00    +0.000 C 
ATOM     19  C   UNL     1     109.757 131.898 138.005  0.00  0.00    +0.000 C 
ATOM     20  C   UNL     1     109.592 131.104 138.156  0.00  0.00    +0.000 C 
BRANCH  20  23
ATOM     21  O   UNL     1     109.838 130.214 137.065  0.00  0.00    +0.000 OA
ATOM     22  O   UNL     1     108.496 130.541 137.432  0.00  0.00    +0.000 OA
ATOM     23  C   UNL     1     109.308 130.620 137.551  0.00  0.00    +0.000 C 
ENDBRANCH  20  23
ENDBRANCH  11  16
ENDBRANCH   3  11
BRANCH   5  24
ATOM     24  O   UNL     1     109.937 128.156 140.753  0.00  0.00    +0.000 OA
BRANCH  24  28
ATOM     25  O   UNL     1     108.758 126.515 139.927  0.00  0.00    +0.000 OA
ATOM     26  O   UNL     1     109.445 127.400 142.134  0.00  0.00    +0.000 OA
ATOM     27  O   UNL     1     108.495 126.055 142.044  0.00  0.00    +0.000 OA
ATOM     28  C   UNL     1     109.462 127.483 140.707  0.00  0.00    +0.000 C 
ATOM     29  C   UNL     1     109.216 127.105 141.399  0.00  0.00    +0.000 C 
ATOM     30  C   UNL     1     109.233 127.188 139.972  0.00  0.00    +0.000 C 
ATOM     31  C   UNL     1     108.741 126.432 141.353  0.00  0.00    +0.000 C 
ATOM     32  C   UNL     1     108.512 126.138 140.617  0.00  0.00    +0.000 C 
BRANCH  32  35
ATOM     33  O   UNL     1     108.367 124.718 140.687  0.00  0.00    +0.000 OA
ATOM     34  O   UNL     1     107.231 125.539 140.413  0.00  0.00    +0.000 OA
ATOM     35  C   UNL     1     108.037 125.465 140.573  0.00  0.00    +0.000 C 
ENDBRANCH  32  35
BRANCH  30  36
ATOM     36  O   UNL     1     109.480 127.566 139.282  0.00  0.00    +0.000 OA
BRANCH  36  40
ATOM     37  O   UNL     1     111.712 126.177 138.027  0.00  0.00    +0.000 OA
ATOM     38  O   UNL     1     109.145 126.239 136.701  0.00  0.00    +0.000 OA
ATOM     39  O   UNL     1     110.272 125.560 136.110  0.00  0.00    +0.000 OA
ATOM     40  C   UNL     1     109.787 127.124 138.657  0.00  0.00    +0.000 A 
ATOM     41  C   UNL     1     110.610 126.874 138.667  0.00  0.00    +0.000 A 
ATOM     42  C   UNL     1     109.288 126.910 137.991  0.00  0.00    +0.000 A 
ATOM     43  C   UNL     1     110.921 126.414 138.012  0.00  0.00    +0.000 A 
ATOM     44  C   UNL     1     109.617 126.449 137.345  0.00  0.00    +0.000 A 
ATOM     45  C   UNL     1     110.441 126.208 137.373  0.00  0.00    +0.000 A 
ATOM     46  C   UNL     1     110.752 125.766 136.749  0.00  0.00    +0.000 A 
ATOM     47  C   UNL     1     112.022 125.734 137.404  0.00  0.00    +0.000 A 
ATOM     48  C   UNL     1     111.542 125.529 136.765  0.00  0.00    +0.000 A 
BRANCH  47  50
ATOM     49  O   UNL     1     115.182 124.785 137.465  0.00  0.00    +0.000 OA
ATOM     50  C   UNL     1     112.812 125.497 137.419  0.00  0.00    +0.000 A 
ATOM     51  C   UNL     1     113.411 126.048 137.284  0.00  0.00    +0.000 A 
ATOM     52  C   UNL     1     113.002 124.708 137.570  0.00  0.00    +0.000 A 
ATOM     53  C   UNL     1     114.200 125.811 137.300  0.00  0.00    +0.000 A 
ATOM     54  C   UNL     1     113.793 124.471 137.585  0.00  0.00    +0.000 A 
ATOM     55  C   UNL     1     114.391 125.022 137.450  0.00  0.00    +0.000 A 
ENDBRANCH  47  50
ENDBRANCH  36  40
ENDBRANCH  30  36
ENDBRANCH  24  28
ENDBRANCH   5  24
BRANCH   4  56
ATOM     56  O   UNL     1     110.804 129.469 140.253  0.00  0.00    +0.000 OA
BRANCH  56  58
ATOM     57  O   UNL     1     111.429 129.923 141.455  0.00  0.00    +0.000 OA
ATOM     58  C   UNL     1     111.417 129.420 140.802  0.00  0.00    +0.000 C 
BRANCH  58  59
ATOM     59  C   UNL     1     112.021 128.866 140.698  0.00  0.00    +0.000 C 
ATOM     60  C   UNL     1     112.767 129.004 141.022  0.00  0.00    +0.000 C 
BRANCH  60  62
ATOM     61  O   UNL     1     115.180 126.791 140.605  0.00  0.00    +0.000 OA
ATOM     62  C   UNL     1     113.370 128.451 140.918  0.00  0.00    +0.000 A 
ATOM     63  C   UNL     1     114.128 128.701 140.708  0.00  0.00    +0.000 A 
ATOM     64  C   UNL     1     113.216 127.648 141.023  0.00  0.00    +0.000 A 
ATOM     65  C   UNL     1     114.731 128.148 140.604  0.00  0.00    +0.000 A 
ATOM     66  C   UNL     1     113.819 127.094 140.919  0.00  0.00    +0.000 A 
ATOM     67  C   UNL     1     114.576 127.345 140.710  0.00  0.00    +0.000 A 
ENDBRANCH  60  62
ENDBRANCH  58  59
ENDBRANCH  56  58
ENDBRANCH   4  56
TORSDOF 14
ENDMDL
MODEL 4
REMARK VINA RESULT:     -10.7      3.776      6.816
REMARK  Name = 131752327
REMARK  14 active torsions:
REMARK  status: ('A' for Active; 'I' for Inactive)
REMARK    1  A    between atoms: O_1  and  C_26
REMARK    2  A    between atoms: O_1  and  C_33
REMARK    3  A    between atoms: O_2  and  C_28
REMARK    4  A    between atoms: O_2  and  C_30
REMARK    5  A    between atoms: O_5  and  C_27
REMARK    6  A    between atoms: O_5  and  C_44
REMARK    7  A    between atoms: O_9  and  C_35
REMARK    8  A    between atoms: O_9  and  C_45
REMARK    9  A    between atoms: C_31  and  C_41
REMARK   10  A    between atoms: C_39  and  C_42
REMARK   11  A    between atoms: C_40  and  C_43
REMARK   12  A    between atoms: C_44  and  C_46
REMARK   13  A    between atoms: C_52  and  C_54
REMARK   14  A    between atoms: C_55  and  C_59
REMARK                            x       y       z     vdW  Elec       q    Type
REMARK                         _______ _______ _______ _____ _____    ______ ____
ROOT
ATOM      1  O   UNL     1     108.943 129.129 141.007  0.00  0.00    +0.000 OA
ATOM      2  O   UNL     1     108.869 131.155 141.817  0.00  0.00    +0.000 OA
ATOM      3  C   UNL     1     109.915 130.180 141.828  0.00  0.00    +0.000 C 
ATOM      4  C   UNL     1     110.194 129.430 141.627  0.00  0.00    +0.000 C 
ATOM      5  C   UNL     1     109.708 128.905 141.217  0.00  0.00    +0.000 C 
ATOM      6  C   UNL     1     109.148 130.405 141.617  0.00  0.00    +0.000 C 
ATOM      7  C   UNL     1     108.663 129.879 141.207  0.00  0.00    +0.000 C 
ENDROOT
BRANCH   7  10
ATOM      8  O   UNL     1     107.273 129.988 141.524  0.00  0.00    +0.000 OA
ATOM      9  O   UNL     1     107.756 130.445 140.259  0.00  0.00    +0.000 OA
ATOM     10  C   UNL     1     107.897 130.104 140.997  0.00  0.00    +0.000 C 
ENDBRANCH   7  10
BRANCH   3  11
ATOM     11  O   UNL     1     110.400 130.706 142.238  0.00  0.00    +0.000 OA
BRANCH  11  16
ATOM     12  O   UNL     1     109.951 130.225 143.506  0.00  0.00    +0.000 OA
ATOM     13  O   UNL     1     110.875 132.120 142.942  0.00  0.00    +0.000 OA
ATOM     14  O   UNL     1     110.664 132.347 144.563  0.00  0.00    +0.000 OA
ATOM     15  O   UNL     1     109.977 131.159 145.479  0.00  0.00    +0.000 OA
ATOM     16  C   UNL     1     110.294 130.819 143.048  0.00  0.00    +0.000 C 
ATOM     17  C   UNL     1     110.532 131.527 143.400  0.00  0.00    +0.000 C 
ATOM     18  C   UNL     1     110.426 131.640 144.210  0.00  0.00    +0.000 C 
ATOM     19  C   UNL     1     110.083 131.046 144.669  0.00  0.00    +0.000 C 
ATOM     20  C   UNL     1     109.846 130.339 144.316  0.00  0.00    +0.000 C 
BRANCH  20  23
ATOM     21  O   UNL     1     108.689 129.751 144.916  0.00  0.00    +0.000 OA
ATOM     22  O   UNL     1     109.971 129.145 145.092  0.00  0.00    +0.000 OA
ATOM     23  C   UNL     1     109.502 129.744 144.775  0.00  0.00    +0.000 C 
ENDBRANCH  20  23
ENDBRANCH  11  16
ENDBRANCH   3  11
BRANCH   5  24
ATOM     24  O   UNL     1     109.987 128.155 141.017  0.00  0.00    +0.000 OA
BRANCH  24  28
ATOM     25  O   UNL     1     108.706 126.686 140.034  0.00  0.00    +0.000 OA
ATOM     26  O   UNL     1     109.369 127.357 142.322  0.00  0.00    +0.000 OA
ATOM     27  O   UNL     1     108.309 126.113 142.101  0.00  0.00    +0.000 OA
ATOM     28  C   UNL     1     109.457 127.533 140.906  0.00  0.00    +0.000 C 
ATOM     29  C   UNL     1     109.148 127.133 141.559  0.00  0.00    +0.000 C 
ATOM     30  C   UNL     1     109.236 127.309 140.143  0.00  0.00    +0.000 C 
ATOM     31  C   UNL     1     108.618 126.511 141.448  0.00  0.00    +0.000 C 
ATOM     32  C   UNL     1     108.397 126.288 140.686  0.00  0.00    +0.000 C 
BRANCH  32  35
ATOM     33  O   UNL     1     108.134 124.885 140.606  0.00  0.00    +0.000 OA
ATOM     34  O   UNL     1     107.070 125.823 140.436  0.00  0.00    +0.000 OA
ATOM     35  C   UNL     1     107.867 125.665 140.576  0.00  0.00    +0.000 C 
ENDBRANCH  32  35
BRANCH  30  36
ATOM     36  O   UNL     1     109.545 127.708 139.491  0.00  0.00    +0.000 OA
BRANCH  36  40
ATOM     37  O   UNL     1     111.718 126.311 138.144  0.00  0.00    +0.000 OA
ATOM     38  O   UNL     1     109.132 126.488 136.870  0.00  0.00    +0.000 OA
ATOM     39  O   UNL     1     110.230 125.804 136.232  0.00  0.00    +0.000 OA
ATOM     40  C   UNL     1     109.830 127.282 138.845  0.00  0.00    +0.000 A 
ATOM     41  C   UNL     1     110.646 127.011 138.830  0.00  0.00    +0.000 A 
ATOM     42  C   UNL     1     109.314 127.106 138.181  0.00  0.00    +0.000 A 
ATOM     43  C   UNL     1     110.934 126.568 138.153  0.00  0.00    +0.000 A 
ATOM     44  C   UNL     1     109.620 126.662 137.512  0.00  0.00    +0.000 A 
ATOM     45  C   UNL     1     110.438 126.400 137.515  0.00  0.00    +0.000 A 
ATOM     46  C   UNL     1     110.726 125.974 136.870  0.00  0.00    +0.000 A 
ATOM     47  C   UNL     1     112.006 125.885 137.499  0.00  0.00    +0.000 A 
ATOM     48  C   UNL     1     111.510 125.716 136.862  0.00  0.00    +0.000 A 
BRANCH  47  50
ATOM     49  O   UNL     1     115.141 124.856 137.467  0.00  0.00    +0.000 OA
ATOM     50  C   UNL     1     112.790 125.628 137.491  0.00  0.00    +0.000 A 
ATOM     51  C   UNL     1     113.398 126.164 137.339  0.00  0.00    +0.000 A 
ATOM     52  C   UNL     1     112.965 124.834 137.635  0.00  0.00    +0.000 A 
ATOM     53  C   UNL     1     114.182 125.906 137.331  0.00  0.00    +0.000 A 
ATOM     54  C   UNL     1     113.748 124.577 137.627  0.00  0.00    +0.000 A 
ATOM     55  C   UNL     1     114.357 125.113 137.475  0.00  0.00    +0.000 A 
ENDBRANCH  47  50
ENDBRANCH  36  40
ENDBRANCH  30  36
ENDBRANCH  24  28
ENDBRANCH   5  24
BRANCH   4  56
ATOM     56  O   UNL     1     110.959 129.206 141.837  0.00  0.00    +0.000 OA
BRANCH  56  58
ATOM     57  O   UNL     1     111.561 129.898 140.741  0.00  0.00    +0.000 OA
ATOM     58  C   UNL     1     111.576 129.287 141.296  0.00  0.00    +0.000 C 
BRANCH  58  59
ATOM     59  C   UNL     1     112.210 128.758 141.309  0.00  0.00    +0.000 C 
ATOM     60  C   UNL     1     112.825 128.838 140.766  0.00  0.00    +0.000 C 
BRANCH  60  62
ATOM     61  O   UNL     1     115.356 126.720 140.818  0.00  0.00    +0.000 OA
ATOM     62  C   UNL     1     113.458 128.309 140.779  0.00  0.00    +0.000 A 
ATOM     63  C   UNL     1     114.223 128.577 140.628  0.00  0.00    +0.000 A 
ATOM     64  C   UNL     1     113.325 127.511 140.942  0.00  0.00    +0.000 A 
ATOM     65  C   UNL     1     114.856 128.048 140.641  0.00  0.00    +0.000 A 
ATOM     66  C   UNL     1     113.958 126.982 140.956  0.00  0.00    +0.000 A 
ATOM     67  C   UNL     1     114.723 127.250 140.805  0.00  0.00    +0.000 A 
ENDBRANCH  60  62
ENDBRANCH  58  59
ENDBRANCH  56  58
ENDBRANCH   4  56
TORSDOF 14
ENDMDL
MODEL 5
REMARK VINA RESULT:     -10.6      3.869      7.017
REMARK  Name = 131752327
REMARK  14 active torsions:
REMARK  status: ('A' for Active; 'I' for Inactive)
REMARK    1  A    between atoms: O_1  and  C_26
REMARK    2  A    between atoms: O_1  and  C_33
REMARK    3  A    between atoms: O_2  and  C_28
REMARK    4  A    between atoms: O_2  and  C_30
REMARK    5  A    between atoms: O_5  and  C_27
REMARK    6  A    between atoms: O_5  and  C_44
REMARK    7  A    between atoms: O_9  and  C_35
REMARK    8  A    between atoms: O_9  and  C_45
REMARK    9  A    between atoms: C_31  and  C_41
REMARK   10  A    between atoms: C_39  and  C_42
REMARK   11  A    between atoms: C_40  and  C_43
REMARK   12  A    between atoms: C_44  and  C_46
REMARK   13  A    between atoms: C_52  and  C_54
REMARK   14  A    between atoms: C_55  and  C_59
REMARK                            x       y       z     vdW  Elec       q    Type
REMARK                         _______ _______ _______ _____ _____    ______ ____
ROOT
ATOM      1  O   UNL     1     109.282 128.110 140.953  0.00  0.00    +0.000 OA
ATOM      2  O   UNL     1     107.247 128.574 141.591  0.00  0.00    +0.000 OA
ATOM      3  C   UNL     1     108.221 129.373 140.916  0.00  0.00    +0.000 C 
ATOM      4  C   UNL     1     108.973 129.457 140.588  0.00  0.00    +0.000 C 
ATOM      5  C   UNL     1     109.504 128.825 140.606  0.00  0.00    +0.000 C 
ATOM      6  C   UNL     1     107.999 128.658 141.263  0.00  0.00    +0.000 C 
ATOM      7  C   UNL     1     108.530 128.027 141.281  0.00  0.00    +0.000 C 
ENDROOT
BRANCH   7  10
ATOM      8  O   UNL     1     107.948 126.725 141.172  0.00  0.00    +0.000 OA
ATOM      9  O   UNL     1     108.447 127.182 142.431  0.00  0.00    +0.000 OA
ATOM     10  C   UNL     1     108.309 127.311 141.628  0.00  0.00    +0.000 C 
ENDBRANCH   7  10
BRANCH   3  11
ATOM     11  O   UNL     1     107.690 130.004 140.898  0.00  0.00    +0.000 OA
BRANCH  11  16
ATOM     12  O   UNL     1     108.126 130.452 142.183  0.00  0.00    +0.000 OA
ATOM     13  O   UNL     1     106.339 130.942 141.030  0.00  0.00    +0.000 OA
ATOM     14  O   UNL     1     106.099 131.858 142.381  0.00  0.00    +0.000 OA
ATOM     15  O   UNL     1     107.210 131.837 143.600  0.00  0.00    +0.000 OA
ATOM     16  C   UNL     1     107.570 130.462 141.574  0.00  0.00    +0.000 C 
ATOM     17  C   UNL     1     106.894 130.931 141.639  0.00  0.00    +0.000 C 
ATOM     18  C   UNL     1     106.774 131.389 142.314  0.00  0.00    +0.000 C 
ATOM     19  C   UNL     1     107.330 131.379 142.925  0.00  0.00    +0.000 C 
ATOM     20  C   UNL     1     108.006 130.910 142.858  0.00  0.00    +0.000 C 
BRANCH  20  23
ATOM     21  O   UNL     1     109.211 131.408 143.443  0.00  0.00    +0.000 OA
ATOM     22  O   UNL     1     108.468 130.381 144.103  0.00  0.00    +0.000 OA
ATOM     23  C   UNL     1     108.562 130.900 143.469  0.00  0.00    +0.000 C 
ENDBRANCH  20  23
ENDBRANCH  11  16
ENDBRANCH   3  11
BRANCH   5  24
ATOM     24  O   UNL     1     110.256 128.909 140.278  0.00  0.00    +0.000 OA
BRANCH  24  28
ATOM     25  O   UNL     1     111.669 127.246 140.260  0.00  0.00    +0.000 OA
ATOM     26  O   UNL     1     111.082 129.186 141.679  0.00  0.00    +0.000 OA
ATOM     27  O   UNL     1     112.299 128.171 142.133  0.00  0.00    +0.000 OA
ATOM     28  C   UNL     1     110.864 128.401 140.505  0.00  0.00    +0.000 C 
ATOM     29  C   UNL     1     111.278 128.540 141.206  0.00  0.00    +0.000 C 
ATOM     30  C   UNL     1     111.060 127.754 140.032  0.00  0.00    +0.000 C 
ATOM     31  C   UNL     1     111.886 128.031 141.433  0.00  0.00    +0.000 C 
ATOM     32  C   UNL     1     112.082 127.384 140.960  0.00  0.00    +0.000 C 
BRANCH  32  35
ATOM     33  O   UNL     1     113.475 127.068 141.015  0.00  0.00    +0.000 OA
ATOM     34  O   UNL     1     112.516 126.177 141.587  0.00  0.00    +0.000 OA
ATOM     35  C   UNL     1     112.691 126.877 141.187  0.00  0.00    +0.000 C 
ENDBRANCH  32  35
BRANCH  30  36
ATOM     36  O   UNL     1     110.647 127.615 139.332  0.00  0.00    +0.000 OA
BRANCH  36  40
ATOM     37  O   UNL     1     112.372 128.180 137.053  0.00  0.00    +0.000 OA
ATOM     38  O   UNL     1     111.404 125.491 137.475  0.00  0.00    +0.000 OA
ATOM     39  O   UNL     1     112.259 125.807 136.357  0.00  0.00    +0.000 OA
ATOM     40  C   UNL     1     111.051 127.360 138.659  0.00  0.00    +0.000 A 
ATOM     41  C   UNL     1     111.513 127.917 138.194  0.00  0.00    +0.000 A 
ATOM     42  C   UNL     1     111.012 126.537 138.417  0.00  0.00    +0.000 A 
ATOM     43  C   UNL     1     111.930 127.642 137.495  0.00  0.00    +0.000 A 
ATOM     44  C   UNL     1     111.435 126.280 137.715  0.00  0.00    +0.000 A 
ATOM     45  C   UNL     1     111.892 126.851 137.263  0.00  0.00    +0.000 A 
ATOM     46  C   UNL     1     112.296 126.598 136.590  0.00  0.00    +0.000 A 
ATOM     47  C   UNL     1     112.776 127.928 136.379  0.00  0.00    +0.000 A 
ATOM     48  C   UNL     1     112.738 127.137 136.148  0.00  0.00    +0.000 A 
BRANCH  47  50
ATOM     49  O   UNL     1     114.543 130.083 134.612  0.00  0.00    +0.000 OA
ATOM     50  C   UNL     1     113.218 128.467 135.938  0.00  0.00    +0.000 A 
ATOM     51  C   UNL     1     114.040 128.404 135.913  0.00  0.00    +0.000 A 
ATOM     52  C   UNL     1     112.837 129.068 135.520  0.00  0.00    +0.000 A 
ATOM     53  C   UNL     1     114.481 128.942 135.471  0.00  0.00    +0.000 A 
ATOM     54  C   UNL     1     113.279 129.607 135.079  0.00  0.00    +0.000 A 
ATOM     55  C   UNL     1     114.101 129.544 135.054  0.00  0.00    +0.000 A 
ENDBRANCH  47  50
ENDBRANCH  36  40
ENDBRANCH  30  36
ENDBRANCH  24  28
ENDBRANCH   5  24
BRANCH   4  56
ATOM     56  O   UNL     1     109.194 130.172 140.241  0.00  0.00    +0.000 OA
BRANCH  56  58
ATOM     57  O   UNL     1     108.566 129.815 139.008  0.00  0.00    +0.000 OA
ATOM     58  C   UNL     1     109.098 130.284 139.430  0.00  0.00    +0.000 C 
BRANCH  58  59
ATOM     59  C   UNL     1     109.534 130.866 139.039  0.00  0.00    +0.000 C 
ATOM     60  C   UNL     1     109.459 130.959 138.222  0.00  0.00    +0.000 C 
BRANCH  60  62
ATOM     61  O   UNL     1     111.202 133.285 136.660  0.00  0.00    +0.000 OA
ATOM     62  C   UNL     1     109.894 131.540 137.832  0.00  0.00    +0.000 A 
ATOM     63  C   UNL     1     110.640 131.362 137.526  0.00  0.00    +0.000 A 
ATOM     64  C   UNL     1     109.585 132.300 137.747  0.00  0.00    +0.000 A 
ATOM     65  C   UNL     1     111.076 131.943 137.136  0.00  0.00    +0.000 A 
ATOM     66  C   UNL     1     110.021 132.882 137.356  0.00  0.00    +0.000 A 
ATOM     67  C   UNL     1     110.766 132.703 137.051  0.00  0.00    +0.000 A 
ENDBRANCH  60  62
ENDBRANCH  58  59
ENDBRANCH  56  58
ENDBRANCH   4  56
TORSDOF 14
ENDMDL
MODEL 6
REMARK VINA RESULT:     -10.6      1.218      2.163
REMARK  Name = 131752327
REMARK  14 active torsions:
REMARK  status: ('A' for Active; 'I' for Inactive)
REMARK    1  A    between atoms: O_1  and  C_26
REMARK    2  A    between atoms: O_1  and  C_33
REMARK    3  A    between atoms: O_2  and  C_28
REMARK    4  A    between atoms: O_2  and  C_30
REMARK    5  A    between atoms: O_5  and  C_27
REMARK    6  A    between atoms: O_5  and  C_44
REMARK    7  A    between atoms: O_9  and  C_35
REMARK    8  A    between atoms: O_9  and  C_45
REMARK    9  A    between atoms: C_31  and  C_41
REMARK   10  A    between atoms: C_39  and  C_42
REMARK   11  A    between atoms: C_40  and  C_43
REMARK   12  A    between atoms: C_44  and  C_46
REMARK   13  A    between atoms: C_52  and  C_54
REMARK   14  A    between atoms: C_55  and  C_59
REMARK                            x       y       z     vdW  Elec       q    Type
REMARK                         _______ _______ _______ _____ _____    ______ ____
ROOT
ATOM      1  O   UNL     1     107.117 128.102 143.344  0.00  0.00    +0.000 OA
ATOM      2  O   UNL     1     108.059 130.071 143.314  0.00  0.00    +0.000 OA
ATOM      3  C   UNL     1     106.713 129.673 143.041  0.00  0.00    +0.000 C 
ATOM      4  C   UNL     1     106.142 129.081 142.981  0.00  0.00    +0.000 C 
ATOM      5  C   UNL     1     106.344 128.295 143.132  0.00  0.00    +0.000 C 
ATOM      6  C   UNL     1     107.487 129.479 143.253  0.00  0.00    +0.000 C 
ATOM      7  C   UNL     1     107.689 128.694 143.404  0.00  0.00    +0.000 C 
ENDROOT
BRANCH   7  10
ATOM      8  O   UNL     1     108.697 128.542 144.406  0.00  0.00    +0.000 OA
ATOM      9  O   UNL     1     109.001 128.265 143.038  0.00  0.00    +0.000 OA
ATOM     10  C   UNL     1     108.463 128.500 143.616  0.00  0.00    +0.000 C 
ENDBRANCH   7  10
BRANCH   3  11
ATOM     11  O   UNL     1     106.512 130.458 142.890  0.00  0.00    +0.000 OA
BRANCH  11  16
ATOM     12  O   UNL     1     106.183 130.713 144.257  0.00  0.00    +0.000 OA
ATOM     13  O   UNL     1     106.792 132.067 142.657  0.00  0.00    +0.000 OA
ATOM     14  O   UNL     1     106.603 133.127 143.908  0.00  0.00    +0.000 OA
ATOM     15  O   UNL     1     106.134 132.578 145.391  0.00  0.00    +0.000 OA
ATOM     16  C   UNL     1     106.417 130.988 143.516  0.00  0.00    +0.000 C 
ATOM     17  C   UNL     1     106.558 131.793 143.398  0.00  0.00    +0.000 C 
ATOM     18  C   UNL     1     106.463 132.323 144.024  0.00  0.00    +0.000 C 
ATOM     19  C   UNL     1     106.228 132.048 144.766  0.00  0.00    +0.000 C 
ATOM     20  C   UNL     1     106.089 131.243 144.882  0.00  0.00    +0.000 C 
BRANCH  20  23
ATOM     21  O   UNL     1     105.052 130.906 145.805  0.00  0.00    +0.000 OA
ATOM     22  O   UNL     1     106.421 130.756 146.184  0.00  0.00    +0.000 OA
ATOM     23  C   UNL     1     105.854 130.968 145.624  0.00  0.00    +0.000 C 
ENDBRANCH  20  23
ENDBRANCH  11  16
ENDBRANCH   3  11
BRANCH   5  24
ATOM     24  O   UNL     1     105.773 127.703 143.072  0.00  0.00    +0.000 OA
BRANCH  24  28
ATOM     25  O   UNL     1     106.252 125.641 143.603  0.00  0.00    +0.000 OA
ATOM     26  O   UNL     1     105.274 127.662 144.644  0.00  0.00    +0.000 OA
ATOM     27  O   UNL     1     105.427 126.274 145.521  0.00  0.00    +0.000 OA
ATOM     28  C   UNL     1     105.850 127.009 143.510  0.00  0.00    +0.000 C 
ATOM     29  C   UNL     1     105.600 126.988 144.297  0.00  0.00    +0.000 C 
ATOM     30  C   UNL     1     106.175 126.335 143.163  0.00  0.00    +0.000 C 
ATOM     31  C   UNL     1     105.677 126.294 144.735  0.00  0.00    +0.000 C 
ATOM     32  C   UNL     1     106.003 125.620 144.388  0.00  0.00    +0.000 C 
BRANCH  32  35
ATOM     33  O   UNL     1     106.745 124.807 145.299  0.00  0.00    +0.000 OA
ATOM     34  O   UNL     1     105.489 124.351 144.794  0.00  0.00    +0.000 OA
ATOM     35  C   UNL     1     106.079 124.926 144.827  0.00  0.00    +0.000 C 
ENDBRANCH  32  35
BRANCH  30  36
ATOM     36  O   UNL     1     106.424 126.356 142.377  0.00  0.00    +0.000 OA
BRANCH  36  40
ATOM     37  O   UNL     1     104.908 124.730 140.495  0.00  0.00    +0.000 OA
ATOM     38  O   UNL     1     107.520 123.847 141.359  0.00  0.00    +0.000 OA
ATOM     39  O   UNL     1     106.742 123.068 140.428  0.00  0.00    +0.000 OA
ATOM     40  C   UNL     1     106.357 125.682 141.906  0.00  0.00    +0.000 A 
ATOM     41  C   UNL     1     105.650 125.553 141.434  0.00  0.00    +0.000 A 
ATOM     42  C   UNL     1     106.993 125.105 141.882  0.00  0.00    +0.000 A 
ATOM     43  C   UNL     1     105.589 124.849 140.946  0.00  0.00    +0.000 A 
ATOM     44  C   UNL     1     106.914 124.407 141.388  0.00  0.00    +0.000 A 
ATOM     45  C   UNL     1     106.200 124.295 140.923  0.00  0.00    +0.000 A 
ATOM     46  C   UNL     1     106.130 123.622 140.451  0.00  0.00    +0.000 A 
ATOM     47  C   UNL     1     104.838 124.057 140.022  0.00  0.00    +0.000 A 
ATOM     48  C   UNL     1     105.450 123.504 140.000  0.00  0.00    +0.000 A 
BRANCH  47  50
ATOM     49  O   UNL     1     102.115 123.582 138.221  0.00  0.00    +0.000 OA
ATOM     50  C   UNL     1     104.158 123.939 139.572  0.00  0.00    +0.000 A 
ATOM     51  C   UNL     1     104.073 124.318 138.844  0.00  0.00    +0.000 A 
ATOM     52  C   UNL     1     103.561 123.440 139.850  0.00  0.00    +0.000 A 
ATOM     53  C   UNL     1     103.392 124.199 138.395  0.00  0.00    +0.000 A 
ATOM     54  C   UNL     1     102.881 123.321 139.399  0.00  0.00    +0.000 A 
ATOM     55  C   UNL     1     102.796 123.701 138.672  0.00  0.00    +0.000 A 
ENDBRANCH  47  50
ENDBRANCH  36  40
ENDBRANCH  30  36
ENDBRANCH  24  28
ENDBRANCH   5  24
BRANCH   4  56
ATOM     56  O   UNL     1     105.369 129.274 142.769  0.00  0.00    +0.000 OA
BRANCH  56  58
ATOM     57  O   UNL     1     105.704 129.169 141.384  0.00  0.00    +0.000 OA
ATOM     58  C   UNL     1     105.136 129.238 141.979  0.00  0.00    +0.000 C 
BRANCH  58  59
ATOM     59  C   UNL     1     104.335 129.270 141.782  0.00  0.00    +0.000 C 
ATOM     60  C   UNL     1     104.081 129.751 141.162  0.00  0.00    +0.000 C 
BRANCH  60  62
ATOM     61  O   UNL     1     100.878 129.877 140.376  0.00  0.00    +0.000 OA
ATOM     62  C   UNL     1     103.281 129.782 140.965  0.00  0.00    +0.000 A 
ATOM     63  C   UNL     1     102.779 130.307 141.359  0.00  0.00    +0.000 A 
ATOM     64  C   UNL     1     102.981 129.290 140.376  0.00  0.00    +0.000 A 
ATOM     65  C   UNL     1     101.979 130.338 141.162  0.00  0.00    +0.000 A 
ATOM     66  C   UNL     1     102.180 129.321 140.179  0.00  0.00    +0.000 A 
ATOM     67  C   UNL     1     101.680 129.845 140.572  0.00  0.00    +0.000 A 
ENDBRANCH  60  62
ENDBRANCH  58  59
ENDBRANCH  56  58
ENDBRANCH   4  56
TORSDOF 14
ENDMDL
MODEL 7
REMARK VINA RESULT:     -10.6      4.032      8.559
REMARK  Name = 131752327
REMARK  14 active torsions:
REMARK  status: ('A' for Active; 'I' for Inactive)
REMARK    1  A    between atoms: O_1  and  C_26
REMARK    2  A    between atoms: O_1  and  C_33
REMARK    3  A    between atoms: O_2  and  C_28
REMARK    4  A    between atoms: O_2  and  C_30
REMARK    5  A    between atoms: O_5  and  C_27
REMARK    6  A    between atoms: O_5  and  C_44
REMARK    7  A    between atoms: O_9  and  C_35
REMARK    8  A    between atoms: O_9  and  C_45
REMARK    9  A    between atoms: C_31  and  C_41
REMARK   10  A    between atoms: C_39  and  C_42
REMARK   11  A    between atoms: C_40  and  C_43
REMARK   12  A    between atoms: C_44  and  C_46
REMARK   13  A    between atoms: C_52  and  C_54
REMARK   14  A    between atoms: C_55  and  C_59
REMARK                            x       y       z     vdW  Elec       q    Type
REMARK                         _______ _______ _______ _____ _____    ______ ____
ROOT
ATOM      1  O   UNL     1     110.090 127.349 140.291  0.00  0.00    +0.000 OA
ATOM      2  O   UNL     1     110.773 125.505 139.344  0.00  0.00    +0.000 OA
ATOM      3  C   UNL     1     111.410 126.777 139.484  0.00  0.00    +0.000 C 
ATOM      4  C   UNL     1     111.398 127.556 139.755  0.00  0.00    +0.000 C 
ATOM      5  C   UNL     1     110.738 127.841 140.159  0.00  0.00    +0.000 C 
ATOM      6  C   UNL     1     110.761 126.284 139.616  0.00  0.00    +0.000 C 
ATOM      7  C   UNL     1     110.101 126.570 140.019  0.00  0.00    +0.000 C 
ENDROOT
BRANCH   7  10
ATOM      8  O   UNL     1     108.817 126.081 139.624  0.00  0.00    +0.000 OA
ATOM      9  O   UNL     1     109.439 125.581 140.810  0.00  0.00    +0.000 OA
ATOM     10  C   UNL     1     109.452 126.077 140.151  0.00  0.00    +0.000 C 
ENDBRANCH   7  10
BRANCH   3  11
ATOM     11  O   UNL     1     112.070 126.490 139.080  0.00  0.00    +0.000 OA
BRANCH  11  16
ATOM     12  O   UNL     1     111.540 126.880 137.813  0.00  0.00    +0.000 OA
ATOM     13  O   UNL     1     113.050 125.393 138.333  0.00  0.00    +0.000 OA
ATOM     14  O   UNL     1     113.010 125.236 136.691  0.00  0.00    +0.000 OA
ATOM     15  O   UNL     1     111.990 126.175 135.796  0.00  0.00    +0.000 OA
ATOM     16  C   UNL     1     112.050 126.411 138.259  0.00  0.00    +0.000 C 
ATOM     17  C   UNL     1     112.540 125.863 137.886  0.00  0.00    +0.000 C 
ATOM     18  C   UNL     1     112.520 125.784 137.065  0.00  0.00    +0.000 C 
ATOM     19  C   UNL     1     112.010 126.254 136.617  0.00  0.00    +0.000 C 
ATOM     20  C   UNL     1     111.520 126.802 136.992  0.00  0.00    +0.000 C 
BRANCH  20  23
ATOM     21  O   UNL     1     111.258 128.012 136.279  0.00  0.00    +0.000 OA
ATOM     22  O   UNL     1     110.252 127.000 136.361  0.00  0.00    +0.000 OA
ATOM     23  C   UNL     1     111.010 127.271 136.544  0.00  0.00    +0.000 C 
ENDBRANCH  20  23
ENDBRANCH  11  16
ENDBRANCH   3  11
BRANCH   5  24
ATOM     24  O   UNL     1     110.726 128.620 140.430  0.00  0.00    +0.000 OA
BRANCH  24  28
ATOM     25  O   UNL     1     108.965 129.456 141.413  0.00  0.00    +0.000 OA
ATOM     26  O   UNL     1     109.930 129.274 139.141  0.00  0.00    +0.000 OA
ATOM     27  O   UNL     1     108.491 130.048 139.367  0.00  0.00    +0.000 OA
ATOM     28  C   UNL     1     110.006 129.007 140.544  0.00  0.00    +0.000 C 
ATOM     29  C   UNL     1     109.608 129.334 139.899  0.00  0.00    +0.000 C 
ATOM     30  C   UNL     1     109.685 129.068 141.301  0.00  0.00    +0.000 C 
ATOM     31  C   UNL     1     108.889 129.721 140.012  0.00  0.00    +0.000 C 
ATOM     32  C   UNL     1     108.567 129.782 140.769  0.00  0.00    +0.000 C 
BRANCH  32  35
ATOM     33  O   UNL     1     107.819 130.994 140.888  0.00  0.00    +0.000 OA
ATOM     34  O   UNL     1     107.157 129.732 140.988  0.00  0.00    +0.000 OA
ATOM     35  C   UNL     1     107.848 130.169 140.882  0.00  0.00    +0.000 C 
ENDBRANCH  32  35
BRANCH  30  36
ATOM     36  O   UNL     1     110.083 128.742 141.945  0.00  0.00    +0.000 OA
BRANCH  36  40
ATOM     37  O   UNL     1     111.204 130.813 143.659  0.00  0.00    +0.000 OA
ATOM     38  O   UNL     1     109.070 129.139 144.656  0.00  0.00    +0.000 OA
ATOM     39  O   UNL     1     109.649 130.174 145.477  0.00  0.00    +0.000 OA
ATOM     40  C   UNL     1     110.099 129.143 142.666  0.00  0.00    +0.000 A 
ATOM     41  C   UNL     1     110.657 129.786 142.791  0.00  0.00    +0.000 A 
ATOM     42  C   UNL     1     109.560 128.922 143.297  0.00  0.00    +0.000 A 
ATOM     43  C   UNL     1     110.667 130.197 143.545  0.00  0.00    +0.000 A 
ATOM     44  C   UNL     1     109.585 129.345 144.044  0.00  0.00    +0.000 A 
ATOM     45  C   UNL     1     110.148 129.984 144.151  0.00  0.00    +0.000 A 
ATOM     46  C   UNL     1     110.167 130.387 144.870  0.00  0.00    +0.000 A 
ATOM     47  C   UNL     1     111.222 131.216 144.379  0.00  0.00    +0.000 A 
ATOM     48  C   UNL     1     110.704 131.003 144.985  0.00  0.00    +0.000 A 
BRANCH  47  50
ATOM     49  O   UNL     1     113.371 133.678 144.837  0.00  0.00    +0.000 OA
ATOM     50  C   UNL     1     111.760 131.832 144.494  0.00  0.00    +0.000 A 
ATOM     51  C   UNL     1     111.780 132.465 143.965  0.00  0.00    +0.000 A 
ATOM     52  C   UNL     1     112.277 131.813 145.137  0.00  0.00    +0.000 A 
ATOM     53  C   UNL     1     112.317 133.080 144.080  0.00  0.00    +0.000 A 
ATOM     54  C   UNL     1     112.814 132.429 145.251  0.00  0.00    +0.000 A 
ATOM     55  C   UNL     1     112.834 133.063 144.723  0.00  0.00    +0.000 A 
ENDBRANCH  47  50
ENDBRANCH  36  40
ENDBRANCH  30  36
ENDBRANCH  24  28
ENDBRANCH   5  24
BRANCH   4  56
ATOM     56  O   UNL     1     112.046 128.048 139.623  0.00  0.00    +0.000 OA
BRANCH  56  58
ATOM     57  O   UNL     1     112.759 127.537 140.752  0.00  0.00    +0.000 OA
ATOM     58  C   UNL     1     112.618 128.143 140.211  0.00  0.00    +0.000 C 
BRANCH  58  59
ATOM     59  C   UNL     1     113.049 128.846 140.257  0.00  0.00    +0.000 C 
ATOM     60  C   UNL     1     113.639 128.931 140.828  0.00  0.00    +0.000 C 
BRANCH  60  62
ATOM     61  O   UNL     1     115.363 131.739 141.010  0.00  0.00    +0.000 OA
ATOM     62  C   UNL     1     114.069 129.633 140.873  0.00  0.00    +0.000 A 
ATOM     63  C   UNL     1     113.786 130.263 141.324  0.00  0.00    +0.000 A 
ATOM     64  C   UNL     1     114.785 129.705 140.469  0.00  0.00    +0.000 A 
ATOM     65  C   UNL     1     114.216 130.965 141.369  0.00  0.00    +0.000 A 
ATOM     66  C   UNL     1     115.216 130.407 140.514  0.00  0.00    +0.000 A 
ATOM     67  C   UNL     1     114.931 131.037 140.965  0.00  0.00    +0.000 A 
ENDBRANCH  60  62
ENDBRANCH  58  59
ENDBRANCH  56  58
ENDBRANCH   4  56
TORSDOF 14
ENDMDL
MODEL 8
REMARK VINA RESULT:     -10.6      5.270      9.333
REMARK  Name = 131752327
REMARK  14 active torsions:
REMARK  status: ('A' for Active; 'I' for Inactive)
REMARK    1  A    between atoms: O_1  and  C_26
REMARK    2  A    between atoms: O_1  and  C_33
REMARK    3  A    between atoms: O_2  and  C_28
REMARK    4  A    between atoms: O_2  and  C_30
REMARK    5  A    between atoms: O_5  and  C_27
REMARK    6  A    between atoms: O_5  and  C_44
REMARK    7  A    between atoms: O_9  and  C_35
REMARK    8  A    between atoms: O_9  and  C_45
REMARK    9  A    between atoms: C_31  and  C_41
REMARK   10  A    between atoms: C_39  and  C_42
REMARK   11  A    between atoms: C_40  and  C_43
REMARK   12  A    between atoms: C_44  and  C_46
REMARK   13  A    between atoms: C_52  and  C_54
REMARK   14  A    between atoms: C_55  and  C_59
REMARK                            x       y       z     vdW  Elec       q    Type
REMARK                         _______ _______ _______ _____ _____    ______ ____
ROOT
ATOM      1  O   UNL     1     109.936 127.967 137.140  0.00  0.00    +0.000 OA
ATOM      2  O   UNL     1     110.198 125.884 136.541  0.00  0.00    +0.000 OA
ATOM      3  C   UNL     1     111.089 126.999 136.465  0.00  0.00    +0.000 C 
ATOM      4  C   UNL     1     111.246 127.799 136.596  0.00  0.00    +0.000 C 
ATOM      5  C   UNL     1     110.669 128.282 136.934  0.00  0.00    +0.000 C 
ATOM      6  C   UNL     1     110.355 126.683 136.672  0.00  0.00    +0.000 C 
ATOM      7  C   UNL     1     109.779 127.168 137.009  0.00  0.00    +0.000 C 
ENDROOT
BRANCH   7  10
ATOM      8  O   UNL     1     108.422 126.865 136.674  0.00  0.00    +0.000 OA
ATOM      9  O   UNL     1     108.933 126.524 137.965  0.00  0.00    +0.000 OA
ATOM     10  C   UNL     1     109.044 126.852 137.216  0.00  0.00    +0.000 C 
ENDBRANCH   7  10
BRANCH   3  11
ATOM     11  O   UNL     1     111.665 126.515 136.128  0.00  0.00    +0.000 OA
BRANCH  11  16
ATOM     12  O   UNL     1     112.315 126.283 137.378  0.00  0.00    +0.000 OA
ATOM     13  O   UNL     1     112.274 125.095 135.548  0.00  0.00    +0.000 OA
ATOM     14  O   UNL     1     113.228 124.153 136.510  0.00  0.00    +0.000 OA
ATOM     15  O   UNL     1     113.574 124.631 138.051  0.00  0.00    +0.000 OA
ATOM     16  C   UNL     1     112.143 126.044 136.608  0.00  0.00    +0.000 C 
ATOM     17  C   UNL     1     112.446 125.334 136.318  0.00  0.00    +0.000 C 
ATOM     18  C   UNL     1     112.924 124.863 136.799  0.00  0.00    +0.000 C 
ATOM     19  C   UNL     1     113.097 125.102 137.570  0.00  0.00    +0.000 C 
ATOM     20  C   UNL     1     112.793 125.812 137.859  0.00  0.00    +0.000 C 
BRANCH  20  23
ATOM     21  O   UNL     1     113.654 126.481 138.783  0.00  0.00    +0.000 OA
ATOM     22  O   UNL     1     112.452 125.862 139.246  0.00  0.00    +0.000 OA
ATOM     23  C   UNL     1     112.966 126.052 138.630  0.00  0.00    +0.000 C 
ENDBRANCH  20  23
ENDBRANCH  11  16
ENDBRANCH   3  11
BRANCH   5  24
ATOM     24  O   UNL     1     110.826 129.081 137.064  0.00  0.00    +0.000 OA
BRANCH  24  28
ATOM     25  O   UNL     1     110.037 129.981 138.890  0.00  0.00    +0.000 OA
ATOM     26  O   UNL     1     109.527 129.906 136.469  0.00  0.00    +0.000 OA
ATOM     27  O   UNL     1     108.568 130.780 137.488  0.00  0.00    +0.000 OA
ATOM     28  C   UNL     1     110.347 129.518 137.574  0.00  0.00    +0.000 C 
ATOM     29  C   UNL     1     109.697 129.931 137.276  0.00  0.00    +0.000 C 
ATOM     30  C   UNL     1     110.517 129.543 138.381  0.00  0.00    +0.000 C 
ATOM     31  C   UNL     1     109.218 130.368 137.786  0.00  0.00    +0.000 C 
ATOM     32  C   UNL     1     109.388 130.393 138.593  0.00  0.00    +0.000 C 
BRANCH  32  35
ATOM     33  O   UNL     1     109.076 131.625 139.246  0.00  0.00    +0.000 OA
ATOM     34  O   UNL     1     108.261 130.472 139.466  0.00  0.00    +0.000 OA
ATOM     35  C   UNL     1     108.909 130.830 139.101  0.00  0.00    +0.000 C 
ENDBRANCH  32  35
BRANCH  30  36
ATOM     36  O   UNL     1     111.167 129.131 138.678  0.00  0.00    +0.000 OA
BRANCH  36  40
ATOM     37  O   UNL     1     111.664 129.447 141.531  0.00  0.00    +0.000 OA
ATOM     38  O   UNL     1     113.387 130.774 139.629  0.00  0.00    +0.000 OA
ATOM     39  O   UNL     1     113.603 130.908 141.049  0.00  0.00    +0.000 OA
ATOM     40  C   UNL     1     111.610 129.451 139.296  0.00  0.00    +0.000 A 
ATOM     41  C   UNL     1     111.402 129.278 140.113  0.00  0.00    +0.000 A 
ATOM     42  C   UNL     1     112.283 129.958 139.130  0.00  0.00    +0.000 A 
ATOM     43  C   UNL     1     111.869 129.616 140.750  0.00  0.00    +0.000 A 
ATOM     44  C   UNL     1     112.739 130.286 139.780  0.00  0.00    +0.000 A 
ATOM     45  C   UNL     1     112.515 130.102 140.589  0.00  0.00    +0.000 A 
ATOM     46  C   UNL     1     112.957 130.420 141.209  0.00  0.00    +0.000 A 
ATOM     47  C   UNL     1     112.106 129.765 142.151  0.00  0.00    +0.000 A 
ATOM     48  C   UNL     1     112.752 130.252 141.990  0.00  0.00    +0.000 A 
BRANCH  47  50
ATOM     49  O   UNL     1     111.287 129.088 145.275  0.00  0.00    +0.000 OA
ATOM     50  C   UNL     1     111.901 129.596 142.932  0.00  0.00    +0.000 A 
ATOM     51  C   UNL     1     111.743 130.210 143.460  0.00  0.00    +0.000 A 
ATOM     52  C   UNL     1     111.854 128.811 143.186  0.00  0.00    +0.000 A 
ATOM     53  C   UNL     1     111.538 130.041 144.240  0.00  0.00    +0.000 A 
ATOM     54  C   UNL     1     111.650 128.643 143.967  0.00  0.00    +0.000 A 
ATOM     55  C   UNL     1     111.492 129.257 144.494  0.00  0.00    +0.000 A 
ENDBRANCH  47  50
ENDBRANCH  36  40
ENDBRANCH  30  36
ENDBRANCH  24  28
ENDBRANCH   5  24
BRANCH   4  56
ATOM     56  O   UNL     1     111.980 128.113 136.389  0.00  0.00    +0.000 OA
BRANCH  56  58
ATOM     57  O   UNL     1     111.605 128.279 135.020  0.00  0.00    +0.000 OA
ATOM     58  C   UNL     1     112.076 128.493 135.663  0.00  0.00    +0.000 C 
BRANCH  58  59
ATOM     59  C   UNL     1     112.644 129.086 135.579  0.00  0.00    +0.000 C 
ATOM     60  C   UNL     1     113.435 128.886 135.462  0.00  0.00    +0.000 C 
BRANCH  60  62
ATOM     61  O   UNL     1     115.704 131.259 135.126  0.00  0.00    +0.000 OA
ATOM     62  C   UNL     1     114.002 129.479 135.378  0.00  0.00    +0.000 A 
ATOM     63  C   UNL     1     114.466 129.513 134.696  0.00  0.00    +0.000 A 
ATOM     64  C   UNL     1     114.106 130.038 135.975  0.00  0.00    +0.000 A 
ATOM     65  C   UNL     1     115.033 130.106 134.612  0.00  0.00    +0.000 A 
ATOM     66  C   UNL     1     114.673 130.632 135.891  0.00  0.00    +0.000 A 
ATOM     67  C   UNL     1     115.136 130.665 135.210  0.00  0.00    +0.000 A 
ENDBRANCH  60  62
ENDBRANCH  58  59
ENDBRANCH  56  58
ENDBRANCH   4  56
TORSDOF 14
ENDMDL
MODEL 9
REMARK VINA RESULT:     -10.5      1.392      4.253
REMARK  Name = 131752327
REMARK  14 active torsions:
REMARK  status: ('A' for Active; 'I' for Inactive)
REMARK    1  A    between atoms: O_1  and  C_26
REMARK    2  A    between atoms: O_1  and  C_33
REMARK    3  A    between atoms: O_2  and  C_28
REMARK    4  A    between atoms: O_2  and  C_30
REMARK    5  A    between atoms: O_5  and  C_27
REMARK    6  A    between atoms: O_5  and  C_44
REMARK    7  A    between atoms: O_9  and  C_35
REMARK    8  A    between atoms: O_9  and  C_45
REMARK    9  A    between atoms: C_31  and  C_41
REMARK   10  A    between atoms: C_39  and  C_42
REMARK   11  A    between atoms: C_40  and  C_43
REMARK   12  A    between atoms: C_44  and  C_46
REMARK   13  A    between atoms: C_52  and  C_54
REMARK   14  A    between atoms: C_55  and  C_59
REMARK                            x       y       z     vdW  Elec       q    Type
REMARK                         _______ _______ _______ _____ _____    ______ ____
ROOT
ATOM      1  O   UNL     1     107.447 128.509 141.930  0.00  0.00    +0.000 OA
ATOM      2  O   UNL     1     106.451 130.414 142.308  0.00  0.00    +0.000 OA
ATOM      3  C   UNL     1     106.250 129.122 142.886  0.00  0.00    +0.000 C 
ATOM      4  C   UNL     1     106.448 128.323 142.935  0.00  0.00    +0.000 C 
ATOM      5  C   UNL     1     107.047 128.017 142.457  0.00  0.00    +0.000 C 
ATOM      6  C   UNL     1     106.650 129.615 142.358  0.00  0.00    +0.000 C 
ATOM      7  C   UNL     1     107.248 129.308 141.880  0.00  0.00    +0.000 C 
ENDROOT
BRANCH   7  10
ATOM      8  O   UNL     1     107.410 129.841 140.564  0.00  0.00    +0.000 OA
ATOM      9  O   UNL     1     108.286 130.253 141.615  0.00  0.00    +0.000 OA
ATOM     10  C   UNL     1     107.648 129.801 141.353  0.00  0.00    +0.000 C 
ENDBRANCH   7  10
BRANCH   3  11
ATOM     11  O   UNL     1     105.651 129.429 143.363  0.00  0.00    +0.000 OA
BRANCH  11  16
ATOM     12  O   UNL     1     104.698 129.257 142.313  0.00  0.00    +0.000 OA
ATOM     13  O   UNL     1     104.568 130.354 144.196  0.00  0.00    +0.000 OA
ATOM     14  O   UNL     1     103.072 130.645 143.562  0.00  0.00    +0.000 OA
ATOM     15  O   UNL     1     102.660 130.010 142.095  0.00  0.00    +0.000 OA
ATOM     16  C   UNL     1     104.903 129.574 143.046  0.00  0.00    +0.000 C 
ATOM     17  C   UNL     1     104.362 130.037 143.463  0.00  0.00    +0.000 C 
ATOM     18  C   UNL     1     103.614 130.182 143.146  0.00  0.00    +0.000 C 
ATOM     19  C   UNL     1     103.408 129.865 142.412  0.00  0.00    +0.000 C 
ATOM     20  C   UNL     1     103.950 129.403 141.996  0.00  0.00    +0.000 C 
BRANCH  20  23
ATOM     21  O   UNL     1     103.592 128.278 141.191  0.00  0.00    +0.000 OA
ATOM     22  O   UNL     1     103.690 129.576 140.601  0.00  0.00    +0.000 OA
ATOM     23  C   UNL     1     103.744 129.085 141.262  0.00  0.00    +0.000 C 
ENDBRANCH  20  23
ENDBRANCH  11  16
ENDBRANCH   3  11
BRANCH   5  24
ATOM     24  O   UNL     1     107.246 127.217 142.506  0.00  0.00    +0.000 OA
BRANCH  24  28
ATOM     25  O   UNL     1     107.700 126.088 140.694  0.00  0.00    +0.000 OA
ATOM     26  O   UNL     1     108.892 127.326 142.475  0.00  0.00    +0.000 OA
ATOM     27  O   UNL     1     109.743 126.610 141.258  0.00  0.00    +0.000 OA
ATOM     28  C   UNL     1     107.671 126.859 141.897  0.00  0.00    +0.000 C 
ATOM     29  C   UNL     1     108.495 126.914 141.882  0.00  0.00    +0.000 C 
ATOM     30  C   UNL     1     107.274 126.446 141.303  0.00  0.00    +0.000 C 
ATOM     31  C   UNL     1     108.920 126.555 141.273  0.00  0.00    +0.000 C 
ATOM     32  C   UNL     1     108.522 126.142 140.679  0.00  0.00    +0.000 C 
BRANCH  32  35
ATOM     33  O   UNL     1     109.344 125.073 140.205  0.00  0.00    +0.000 OA
ATOM     34  O   UNL     1     108.979 126.138 139.325  0.00  0.00    +0.000 OA
ATOM     35  C   UNL     1     108.948 125.785 140.070  0.00  0.00    +0.000 C 
ENDBRANCH  32  35
BRANCH  30  36
ATOM     36  O   UNL     1     106.451 126.392 141.319  0.00  0.00    +0.000 OA
BRANCH  36  40
ATOM     37  O   UNL     1     104.788 124.666 139.664  0.00  0.00    +0.000 OA
ATOM     38  O   UNL     1     105.852 123.658 142.153  0.00  0.00    +0.000 OA
ATOM     39  O   UNL     1     105.025 122.831 141.309  0.00  0.00    +0.000 OA
ATOM     40  C   UNL     1     106.083 125.665 141.187  0.00  0.00    +0.000 A 
ATOM     41  C   UNL     1     105.615 125.540 140.476  0.00  0.00    +0.000 A 
ATOM     42  C   UNL     1     106.165 125.028 141.757  0.00  0.00    +0.000 A 
ATOM     43  C   UNL     1     105.236 124.780 140.347  0.00  0.00    +0.000 A 
ATOM     44  C   UNL     1     105.779 124.275 141.611  0.00  0.00    +0.000 A 
ATOM     45  C   UNL     1     105.315 124.169 140.896  0.00  0.00    +0.000 A 
ATOM     46  C   UNL     1     104.946 123.443 140.761  0.00  0.00    +0.000 A 
ATOM     47  C   UNL     1     104.419 123.940 139.529  0.00  0.00    +0.000 A 
ATOM     48  C   UNL     1     104.498 123.329 140.078  0.00  0.00    +0.000 A 
BRANCH  47  50
ATOM     49  O   UNL     1     102.626 123.483 136.797  0.00  0.00    +0.000 OA
ATOM     50  C   UNL     1     103.971 123.826 138.846  0.00  0.00    +0.000 A 
ATOM     51  C   UNL     1     104.338 123.585 138.147  0.00  0.00    +0.000 A 
ATOM     52  C   UNL     1     103.155 123.953 138.862  0.00  0.00    +0.000 A 
ATOM     53  C   UNL     1     103.889 123.471 137.465  0.00  0.00    +0.000 A 
ATOM     54  C   UNL     1     102.707 123.838 138.179  0.00  0.00    +0.000 A 
ATOM     55  C   UNL     1     103.074 123.598 137.480  0.00  0.00    +0.000 A 
ENDBRANCH  47  50
ENDBRANCH  36  40
ENDBRANCH  30  36
ENDBRANCH  24  28
ENDBRANCH   5  24
BRANCH   4  56
ATOM     56  O   UNL     1     106.048 127.831 143.462  0.00  0.00    +0.000 OA
BRANCH  56  58
ATOM     57  O   UNL     1     106.865 128.236 144.563  0.00  0.00    +0.000 OA
ATOM     58  C   UNL     1     106.365 127.683 144.209  0.00  0.00    +0.000 C 
BRANCH  58  59
ATOM     59  C   UNL     1     106.181 126.982 144.605  0.00  0.00    +0.000 C 
ATOM     60  C   UNL     1     106.112 126.978 145.427  0.00  0.00    +0.000 C 
BRANCH  60  62
ATOM     61  O   UNL     1     105.377 124.174 147.005  0.00  0.00    +0.000 OA
ATOM     62  C   UNL     1     105.928 126.277 145.821  0.00  0.00    +0.000 A 
ATOM     63  C   UNL     1     106.529 125.826 146.162  0.00  0.00    +0.000 A 
ATOM     64  C   UNL     1     105.144 126.028 145.875  0.00  0.00    +0.000 A 
ATOM     65  C   UNL     1     106.345 125.125 146.557  0.00  0.00    +0.000 A 
ATOM     66  C   UNL     1     104.960 125.326 146.270  0.00  0.00    +0.000 A 
ATOM     67  C   UNL     1     105.561 124.876 146.610  0.00  0.00    +0.000 A 
ENDBRANCH  60  62
ENDBRANCH  58  59
ENDBRANCH  56  58
ENDBRANCH   4  56
TORSDOF 14
ENDMDL
MODEL 10
REMARK VINA RESULT:     -10.4      2.503      7.029
REMARK  Name = 131752327
REMARK  14 active torsions:
REMARK  status: ('A' for Active; 'I' for Inactive)
REMARK    1  A    between atoms: O_1  and  C_26
REMARK    2  A    between atoms: O_1  and  C_33
REMARK    3  A    between atoms: O_2  and  C_28
REMARK    4  A    between atoms: O_2  and  C_30
REMARK    5  A    between atoms: O_5  and  C_27
REMARK    6  A    between atoms: O_5  and  C_44
REMARK    7  A    between atoms: O_9  and  C_35
REMARK    8  A    between atoms: O_9  and  C_45
REMARK    9  A    between atoms: C_31  and  C_41
REMARK   10  A    between atoms: C_39  and  C_42
REMARK   11  A    between atoms: C_40  and  C_43
REMARK   12  A    between atoms: C_44  and  C_46
REMARK   13  A    between atoms: C_52  and  C_54
REMARK   14  A    between atoms: C_55  and  C_59
REMARK                            x       y       z     vdW  Elec       q    Type
REMARK                         _______ _______ _______ _____ _____    ______ ____
ROOT
ATOM      1  O   UNL     1     107.227 127.095 142.663  0.00  0.00    +0.000 OA
ATOM      2  O   UNL     1     106.520 125.032 142.763  0.00  0.00    +0.000 OA
ATOM      3  C   UNL     1     107.325 125.699 141.788  0.00  0.00    +0.000 C 
ATOM      4  C   UNL     1     107.703 126.382 141.520  0.00  0.00    +0.000 C 
ATOM      5  C   UNL     1     107.654 127.079 141.958  0.00  0.00    +0.000 C 
ATOM      6  C   UNL     1     106.898 125.714 142.495  0.00  0.00    +0.000 C 
ATOM      7  C   UNL     1     106.849 126.412 142.932  0.00  0.00    +0.000 C 
ENDROOT
BRANCH   7  10
ATOM      8  O   UNL     1     106.804 126.279 144.354  0.00  0.00    +0.000 OA
ATOM      9  O   UNL     1     105.614 126.590 143.627  0.00  0.00    +0.000 OA
ATOM     10  C   UNL     1     106.422 126.427 143.638  0.00  0.00    +0.000 C 
ENDBRANCH   7  10
BRANCH   3  11
ATOM     11  O   UNL     1     107.373 125.001 141.351  0.00  0.00    +0.000 OA
BRANCH  11  16
ATOM     12  O   UNL     1     106.192 125.254 140.590  0.00  0.00    +0.000 OA
ATOM     13  O   UNL     1     107.093 123.379 141.248  0.00  0.00    +0.000 OA
ATOM     14  O   UNL     1     105.770 122.820 140.434  0.00  0.00    +0.000 OA
ATOM     15  O   UNL     1     104.728 123.884 139.724  0.00  0.00    +0.000 OA
ATOM     16  C   UNL     1     106.712 124.722 140.944  0.00  0.00    +0.000 C 
ATOM     17  C   UNL     1     106.572 123.910 140.893  0.00  0.00    +0.000 C 
ATOM     18  C   UNL     1     105.911 123.631 140.486  0.00  0.00    +0.000 C 
ATOM     19  C   UNL     1     105.390 124.163 140.131  0.00  0.00    +0.000 C 
ATOM     20  C   UNL     1     105.530 124.974 140.183  0.00  0.00    +0.000 C 
BRANCH  20  23
ATOM     21  O   UNL     1     104.515 125.974 140.295  0.00  0.00    +0.000 OA
ATOM     22  O   UNL     1     104.982 125.571 139.005  0.00  0.00    +0.000 OA
ATOM     23  C   UNL     1     105.009 125.507 139.827  0.00  0.00    +0.000 C 
ENDBRANCH  20  23
ENDBRANCH  11  16
ENDBRANCH   3  11
BRANCH   5  24
ATOM     24  O   UNL     1     108.031 127.762 141.690  0.00  0.00    +0.000 OA
BRANCH  24  28
ATOM     25  O   UNL     1     107.960 129.623 142.828  0.00  0.00    +0.000 OA
ATOM     26  O   UNL     1     106.705 128.483 141.025  0.00  0.00    +0.000 OA
ATOM     27  O   UNL     1     106.216 129.964 141.562  0.00  0.00    +0.000 OA
ATOM     28  C   UNL     1     107.787 128.502 141.959  0.00  0.00    +0.000 C 
ATOM     29  C   UNL     1     107.123 128.863 141.626  0.00  0.00    +0.000 C 
ATOM     30  C   UNL     1     108.205 128.882 142.560  0.00  0.00    +0.000 C 
ATOM     31  C   UNL     1     106.879 129.603 141.895  0.00  0.00    +0.000 C 
ATOM     32  C   UNL     1     107.297 129.983 142.496  0.00  0.00    +0.000 C 
BRANCH  32  35
ATOM     33  O   UNL     1     107.317 131.408 142.388  0.00  0.00    +0.000 OA
ATOM     34  O   UNL     1     106.542 130.779 143.411  0.00  0.00    +0.000 OA
ATOM     35  C   UNL     1     107.052 130.723 142.765  0.00  0.00    +0.000 C 
ENDBRANCH  32  35
BRANCH  30  36
ATOM     36  O   UNL     1     108.868 128.521 142.892  0.00  0.00    +0.000 OA
BRANCH  36  40
ATOM     37  O   UNL     1     111.388 129.375 141.707  0.00  0.00    +0.000 OA
ATOM     38  O   UNL     1     110.722 130.207 144.392  0.00  0.00    +0.000 OA
ATOM     39  O   UNL     1     111.961 130.611 143.774  0.00  0.00    +0.000 OA
ATOM     40  C   UNL     1     109.580 128.935 142.945  0.00  0.00    +0.000 A 
ATOM     41  C   UNL     1     110.128 128.940 142.282  0.00  0.00    +0.000 A 
ATOM     42  C   UNL     1     109.779 129.364 143.662  0.00  0.00    +0.000 A 
ATOM     43  C   UNL     1     110.867 129.374 142.346  0.00  0.00    +0.000 A 
ATOM     44  C   UNL     1     110.522 129.792 143.707  0.00  0.00    +0.000 A 
ATOM     45  C   UNL     1     111.057 129.786 143.035  0.00  0.00    +0.000 A 
ATOM     46  C   UNL     1     111.770 130.199 143.085  0.00  0.00    +0.000 A 
ATOM     47  C   UNL     1     112.101 129.788 141.757  0.00  0.00    +0.000 A 
ATOM     48  C   UNL     1     112.291 130.200 142.446  0.00  0.00    +0.000 A 
BRANCH  47  50
ATOM     49  O   UNL     1     114.189 129.791 139.202  0.00  0.00    +0.000 OA
ATOM     50  C   UNL     1     112.623 129.789 141.118  0.00  0.00    +0.000 A 
ATOM     51  C   UNL     1     112.473 130.268 140.464  0.00  0.00    +0.000 A 
ATOM     52  C   UNL     1     113.295 129.310 141.134  0.00  0.00    +0.000 A 
ATOM     53  C   UNL     1     112.995 130.269 139.825  0.00  0.00    +0.000 A 
ATOM     54  C   UNL     1     113.817 129.311 140.495  0.00  0.00    +0.000 A 
ATOM     55  C   UNL     1     113.667 129.790 139.841  0.00  0.00    +0.000 A 
ENDBRANCH  47  50
ENDBRANCH  36  40
ENDBRANCH  30  36
ENDBRANCH  24  28
ENDBRANCH   5  24
BRANCH   4  56
ATOM     56  O   UNL     1     108.129 126.366 140.815  0.00  0.00    +0.000 OA
BRANCH  56  58
ATOM     57  O   UNL     1     109.251 125.756 141.455  0.00  0.00    +0.000 OA
ATOM     58  C   UNL     1     108.932 126.178 140.822  0.00  0.00    +0.000 C 
BRANCH  58  59
ATOM     59  C   UNL     1     109.417 126.413 140.197  0.00  0.00    +0.000 C 
ATOM     60  C   UNL     1     110.237 126.352 140.265  0.00  0.00    +0.000 C 
BRANCH  60  62
ATOM     61  O   UNL     1     112.176 127.289 137.764  0.00  0.00    +0.000 OA
ATOM     62  C   UNL     1     110.721 126.586 139.640  0.00  0.00    +0.000 A 
ATOM     63  C   UNL     1     110.475 127.184 139.128  0.00  0.00    +0.000 A 
ATOM     64  C   UNL     1     111.453 126.223 139.527  0.00  0.00    +0.000 A 
ATOM     65  C   UNL     1     110.959 127.418 138.503  0.00  0.00    +0.000 A 
ATOM     66  C   UNL     1     111.939 126.457 138.902  0.00  0.00    +0.000 A 
ATOM     67  C   UNL     1     111.691 127.055 138.390  0.00  0.00    +0.000 A 
ENDBRANCH  60  62
ENDBRANCH  58  59
ENDBRANCH  56  58
ENDBRANCH   4  56
TORSDOF 14
ENDMDL
