MODEL 1
REMARK VINA RESULT:     -10.3      0.000      0.000
REMARK  Name = 76594575
REMARK  3 active torsions:
REMARK  status: ('A' for Active; 'I' for Inactive)
REMARK    1  A    between atoms: O_2  and  C_17
REMARK    2  A    between atoms: O_2  and  C_19
REMARK    3  A    between atoms: C_26  and  C_28
REMARK                            x       y       z     vdW  Elec       q    Type
REMARK                         _______ _______ _______ _____ _____    ______ ____
ROOT
ATOM      1  O   UNL     1     104.851 124.486 139.529  0.00  0.00    +0.000 OA
ATOM      2  O   UNL     1     105.543 123.611 142.194  0.00  0.00    +0.000 OA
ATOM      3  O   UNL     1     103.647 122.739 140.044  0.00  0.00    +0.000 OA
ATOM      4  O   UNL     1     104.540 122.920 141.420  0.00  0.00    +0.000 OA
ATOM      5  C   UNL     1     106.335 125.316 140.977  0.00  0.00    +0.000 A 
ATOM      6  C   UNL     1     105.868 125.217 140.264  0.00  0.00    +0.000 A 
ATOM      7  C   UNL     1     106.228 124.773 141.634  0.00  0.00    +0.000 A 
ATOM      8  C   UNL     1     105.297 124.576 140.216  0.00  0.00    +0.000 A 
ATOM      9  C   UNL     1     105.194 124.054 140.846  0.00  0.00    +0.000 A 
ATOM     10  C   UNL     1     105.653 124.137 141.569  0.00  0.00    +0.000 A 
ATOM     11  C   UNL     1     104.643 123.442 140.789  0.00  0.00    +0.000 A 
ATOM     12  C   UNL     1     104.301 123.874 139.471  0.00  0.00    +0.000 A 
ATOM     13  C   UNL     1     104.197 123.351 140.101  0.00  0.00    +0.000 A 
ENDROOT
BRANCH  12  17
ATOM     14  O   UNL     1     104.107 123.083 136.731  0.00  0.00    +0.000 OA
ATOM     15  O   UNL     1     101.814 124.122 138.085  0.00  0.00    +0.000 OA
ATOM     16  O   UNL     1     102.514 123.512 136.721  0.00  0.00    +0.000 OA
ATOM     17  C   UNL     1     103.854 123.783 138.783  0.00  0.00    +0.000 A 
ATOM     18  C   UNL     1     103.058 123.998 138.777  0.00  0.00    +0.000 A 
ATOM     19  C   UNL     1     104.204 123.478 138.101  0.00  0.00    +0.000 A 
ATOM     20  C   UNL     1     103.757 123.388 137.413  0.00  0.00    +0.000 A 
ATOM     21  C   UNL     1     102.611 123.907 138.090  0.00  0.00    +0.000 A 
ATOM     22  C   UNL     1     102.961 123.603 137.407  0.00  0.00    +0.000 A 
ENDBRANCH  12  17
BRANCH   5  23
ATOM     23  O   UNL     1     106.885 125.929 141.032  0.00  0.00    +0.000 OA
BRANCH  23  32
ATOM     24  O   UNL     1     106.043 126.952 141.567  0.00  0.00    +0.000 OA
ATOM     25  O   UNL     1     107.830 127.594 143.154  0.00  0.00    +0.000 OA
ATOM     26  O   UNL     1     106.392 128.403 143.160  0.00  0.00    +0.000 OA
ATOM     27  O   UNL     1     108.077 126.357 142.090  0.00  0.00    +0.000 OA
ATOM     28  C   UNL     1     107.235 127.380 142.625  0.00  0.00    +0.000 C 
ATOM     29  C   UNL     1     106.516 127.784 142.628  0.00  0.00    +0.000 C 
ATOM     30  C   UNL     1     107.358 126.762 142.093  0.00  0.00    +0.000 C 
ATOM     31  C   UNL     1     105.920 127.570 142.099  0.00  0.00    +0.000 C 
ATOM     32  C   UNL     1     106.762 126.548 141.564  0.00  0.00    +0.000 C 
ATOM     33  C   UNL     1     105.201 127.975 142.102  0.00  0.00    +0.000 C 
ENDBRANCH  23  32
ENDBRANCH   5  23
TORSDOF 3
ENDMDL
MODEL 2
REMARK VINA RESULT:     -10.3      6.888      9.009
REMARK  Name = 76594575
REMARK  3 active torsions:
REMARK  status: ('A' for Active; 'I' for Inactive)
REMARK    1  A    between atoms: O_2  and  C_17
REMARK    2  A    between atoms: O_2  and  C_19
REMARK    3  A    between atoms: C_26  and  C_28
REMARK                            x       y       z     vdW  Elec       q    Type
REMARK                         _______ _______ _______ _____ _____    ______ ____
ROOT
ATOM      1  O   UNL     1     110.088 130.150 136.598  0.00  0.00    +0.000 OA
ATOM      2  O   UNL     1     108.015 128.399 135.605  0.00  0.00    +0.000 OA
ATOM      3  O   UNL     1     108.155 131.146 136.794  0.00  0.00    +0.000 OA
ATOM      4  O   UNL     1     107.699 129.707 136.126  0.00  0.00    +0.000 OA
ATOM      5  C   UNL     1     110.230 128.094 135.737  0.00  0.00    +0.000 A 
ATOM      6  C   UNL     1     110.461 128.844 136.085  0.00  0.00    +0.000 A 
ATOM      7  C   UNL     1     109.401 127.939 135.573  0.00  0.00    +0.000 A 
ATOM      8  C   UNL     1     109.860 129.432 136.265  0.00  0.00    +0.000 A 
ATOM      9  C   UNL     1     109.064 129.284 136.107  0.00  0.00    +0.000 A 
ATOM     10  C   UNL     1     108.813 128.539 135.760  0.00  0.00    +0.000 A 
ATOM     11  C   UNL     1     108.495 129.855 136.284  0.00  0.00    +0.000 A 
ATOM     12  C   UNL     1     109.520 130.722 136.775  0.00  0.00    +0.000 A 
ATOM     13  C   UNL     1     108.723 130.575 136.618  0.00  0.00    +0.000 A 
ENDROOT
BRANCH  12  17
ATOM     14  O   UNL     1     110.325 133.448 136.471  0.00  0.00    +0.000 OA
ATOM     15  O   UNL     1     110.080 132.312 139.083  0.00  0.00    +0.000 OA
ATOM     16  O   UNL     1     110.430 133.599 138.111  0.00  0.00    +0.000 OA
ATOM     17  C   UNL     1     109.748 131.442 137.109  0.00  0.00    +0.000 A 
ATOM     18  C   UNL     1     109.800 131.517 137.929  0.00  0.00    +0.000 A 
ATOM     19  C   UNL     1     109.922 132.085 136.623  0.00  0.00    +0.000 A 
ATOM     20  C   UNL     1     110.150 132.804 136.957  0.00  0.00    +0.000 A 
ATOM     21  C   UNL     1     110.028 132.237 138.263  0.00  0.00    +0.000 A 
ATOM     22  C   UNL     1     110.203 132.880 137.777  0.00  0.00    +0.000 A 
ENDBRANCH  12  17
BRANCH   5  23
ATOM     23  O   UNL     1     110.801 127.525 135.562  0.00  0.00    +0.000 OA
BRANCH  23  32
ATOM     24  O   UNL     1     110.904 126.944 136.864  0.00  0.00    +0.000 OA
ATOM     25  O   UNL     1     111.080 124.695 135.846  0.00  0.00    +0.000 OA
ATOM     26  O   UNL     1     111.124 124.864 137.487  0.00  0.00    +0.000 OA
ATOM     27  O   UNL     1     110.919 126.025 134.884  0.00  0.00    +0.000 OA
ATOM     28  C   UNL     1     111.021 125.444 136.185  0.00  0.00    +0.000 C 
ATOM     29  C   UNL     1     111.043 125.529 137.005  0.00  0.00    +0.000 C 
ATOM     30  C   UNL     1     110.941 126.109 135.704  0.00  0.00    +0.000 C 
ATOM     31  C   UNL     1     110.984 126.278 137.344  0.00  0.00    +0.000 C 
ATOM     32  C   UNL     1     110.882 126.859 136.044  0.00  0.00    +0.000 C 
ATOM     33  C   UNL     1     111.006 126.363 138.165  0.00  0.00    +0.000 C 
ENDBRANCH  23  32
ENDBRANCH   5  23
TORSDOF 3
ENDMDL
MODEL 3
REMARK VINA RESULT:     -10.1      7.233      8.780
REMARK  Name = 76594575
REMARK  3 active torsions:
REMARK  status: ('A' for Active; 'I' for Inactive)
REMARK    1  A    between atoms: O_2  and  C_17
REMARK    2  A    between atoms: O_2  and  C_19
REMARK    3  A    between atoms: C_26  and  C_28
REMARK                            x       y       z     vdW  Elec       q    Type
REMARK                         _______ _______ _______ _____ _____    ______ ____
ROOT
ATOM      1  O   UNL     1     112.018 126.765 136.222  0.00  0.00    +0.000 OA
ATOM      2  O   UNL     1     109.596 125.919 134.893  0.00  0.00    +0.000 OA
ATOM      3  O   UNL     1     111.911 124.584 136.248  0.00  0.00    +0.000 OA
ATOM      4  O   UNL     1     110.516 124.956 135.449  0.00  0.00    +0.000 OA
ATOM      5  C   UNL     1     110.403 127.975 135.265  0.00  0.00    +0.000 A 
ATOM      6  C   UNL     1     111.127 127.776 135.681  0.00  0.00    +0.000 A 
ATOM      7  C   UNL     1     109.880 127.348 134.997  0.00  0.00    +0.000 A 
ATOM      8  C   UNL     1     111.322 126.950 135.823  0.00  0.00    +0.000 A 
ATOM      9  C   UNL     1     110.821 126.348 135.565  0.00  0.00    +0.000 A 
ATOM     10  C   UNL     1     110.091 126.528 135.148  0.00  0.00    +0.000 A 
ATOM     11  C   UNL     1     111.017 125.559 135.707  0.00  0.00    +0.000 A 
ATOM     12  C   UNL     1     112.216 125.977 136.364  0.00  0.00    +0.000 A 
ATOM     13  C   UNL     1     111.715 125.373 136.106  0.00  0.00    +0.000 A 
ENDROOT
BRANCH  12  17
ATOM     14  O   UNL     1     114.923 125.062 136.323  0.00  0.00    +0.000 OA
ATOM     15  O   UNL     1     113.692 125.775 138.802  0.00  0.00    +0.000 OA
ATOM     16  O   UNL     1     115.005 125.233 137.962  0.00  0.00    +0.000 OA
ATOM     17  C   UNL     1     112.913 125.791 136.763  0.00  0.00    +0.000 A 
ATOM     18  C   UNL     1     112.954 125.876 137.583  0.00  0.00    +0.000 A 
ATOM     19  C   UNL     1     113.569 125.519 136.343  0.00  0.00    +0.000 A 
ATOM     20  C   UNL     1     114.267 125.333 136.743  0.00  0.00    +0.000 A 
ATOM     21  C   UNL     1     113.652 125.690 137.982  0.00  0.00    +0.000 A 
ATOM     22  C   UNL     1     114.308 125.419 137.562  0.00  0.00    +0.000 A 
ENDBRANCH  12  17
BRANCH   5  23
ATOM     23  O   UNL     1     110.208 128.765 135.125  0.00  0.00    +0.000 OA
BRANCH  23  32
ATOM     24  O   UNL     1     109.934 129.140 136.476  0.00  0.00    +0.000 OA
ATOM     25  O   UNL     1     108.024 130.513 135.707  0.00  0.00    +0.000 OA
ATOM     26  O   UNL     1     108.386 130.430 137.315  0.00  0.00    +0.000 OA
ATOM     27  O   UNL     1     108.935 129.681 134.612  0.00  0.00    +0.000 OA
ATOM     28  C   UNL     1     108.661 130.056 135.963  0.00  0.00    +0.000 C 
ATOM     29  C   UNL     1     108.841 130.014 136.767  0.00  0.00    +0.000 C 
ATOM     30  C   UNL     1     109.116 129.640 135.416  0.00  0.00    +0.000 C 
ATOM     31  C   UNL     1     109.478 129.556 137.023  0.00  0.00    +0.000 C 
ATOM     32  C   UNL     1     109.752 129.182 135.673  0.00  0.00    +0.000 C 
ATOM     33  C   UNL     1     109.659 129.515 137.828  0.00  0.00    +0.000 C 
ENDBRANCH  23  32
ENDBRANCH   5  23
TORSDOF 3
ENDMDL
MODEL 4
REMARK VINA RESULT:      -9.9      7.301      8.729
REMARK  Name = 76594575
REMARK  3 active torsions:
REMARK  status: ('A' for Active; 'I' for Inactive)
REMARK    1  A    between atoms: O_2  and  C_17
REMARK    2  A    between atoms: O_2  and  C_19
REMARK    3  A    between atoms: C_26  and  C_28
REMARK                            x       y       z     vdW  Elec       q    Type
REMARK                         _______ _______ _______ _____ _____    ______ ____
ROOT
ATOM      1  O   UNL     1     111.410 127.157 136.226  0.00  0.00    +0.000 OA
ATOM      2  O   UNL     1     113.251 129.274 135.536  0.00  0.00    +0.000 OA
ATOM      3  O   UNL     1     113.443 126.525 136.713  0.00  0.00    +0.000 OA
ATOM      4  O   UNL     1     113.721 128.035 136.108  0.00  0.00    +0.000 OA
ATOM      5  C   UNL     1     111.023 129.170 135.337  0.00  0.00    +0.000 A 
ATOM      6  C   UNL     1     110.884 128.383 135.653  0.00  0.00    +0.000 A 
ATOM      7  C   UNL     1     111.825 129.475 135.296  0.00  0.00    +0.000 A 
ATOM      8  C   UNL     1     111.550 127.911 135.924  0.00  0.00    +0.000 A 
ATOM      9  C   UNL     1     112.320 128.204 135.885  0.00  0.00    +0.000 A 
ATOM     10  C   UNL     1     112.478 128.989 135.572  0.00  0.00    +0.000 A 
ATOM     11  C   UNL     1     112.951 127.742 136.148  0.00  0.00    +0.000 A 
ATOM     12  C   UNL     1     112.041 126.694 136.489  0.00  0.00    +0.000 A 
ATOM     13  C   UNL     1     112.812 126.987 136.450  0.00  0.00    +0.000 A 
ENDROOT
BRANCH  12  17
ATOM     14  O   UNL     1     111.882 123.866 136.108  0.00  0.00    +0.000 OA
ATOM     15  O   UNL     1     111.366 124.993 138.684  0.00  0.00    +0.000 OA
ATOM     16  O   UNL     1     111.485 123.675 137.699  0.00  0.00    +0.000 OA
ATOM     17  C   UNL     1     111.902 125.939 136.791  0.00  0.00    +0.000 A 
ATOM     18  C   UNL     1     111.703 125.844 137.586  0.00  0.00    +0.000 A 
ATOM     19  C   UNL     1     111.961 125.280 136.299  0.00  0.00    +0.000 A 
ATOM     20  C   UNL     1     111.822 124.525 136.601  0.00  0.00    +0.000 A 
ATOM     21  C   UNL     1     111.564 125.089 137.889  0.00  0.00    +0.000 A 
ATOM     22  C   UNL     1     111.624 124.429 137.396  0.00  0.00    +0.000 A 
ENDBRANCH  12  17
BRANCH   5  23
ATOM     23  O   UNL     1     110.390 129.629 135.075  0.00  0.00    +0.000 OA
BRANCH  23  32
ATOM     24  O   UNL     1     110.183 130.395 136.264  0.00  0.00    +0.000 OA
ATOM     25  O   UNL     1     107.734 130.183 135.974  0.00  0.00    +0.000 OA
ATOM     26  O   UNL     1     108.343 131.019 137.259  0.00  0.00    +0.000 OA
ATOM     27  O   UNL     1     108.757 129.488 134.882  0.00  0.00    +0.000 OA
ATOM     28  C   UNL     1     108.550 130.254 136.071  0.00  0.00    +0.000 C 
ATOM     29  C   UNL     1     108.855 130.672 136.713  0.00  0.00    +0.000 C 
ATOM     30  C   UNL     1     109.061 129.906 135.525  0.00  0.00    +0.000 C 
ATOM     31  C   UNL     1     109.671 130.742 136.809  0.00  0.00    +0.000 C 
ATOM     32  C   UNL     1     109.877 129.977 135.622  0.00  0.00    +0.000 C 
ATOM     33  C   UNL     1     109.976 131.161 137.453  0.00  0.00    +0.000 C 
ENDBRANCH  23  32
ENDBRANCH   5  23
TORSDOF 3
ENDMDL
MODEL 5
REMARK VINA RESULT:      -9.9      7.865      9.034
REMARK  Name = 76594575
REMARK  3 active torsions:
REMARK  status: ('A' for Active; 'I' for Inactive)
REMARK    1  A    between atoms: O_2  and  C_17
REMARK    2  A    between atoms: O_2  and  C_19
REMARK    3  A    between atoms: C_26  and  C_28
REMARK                            x       y       z     vdW  Elec       q    Type
REMARK                         _______ _______ _______ _____ _____    ______ ____
ROOT
ATOM      1  O   UNL     1     111.850 126.923 136.023  0.00  0.00    +0.000 OA
ATOM      2  O   UNL     1     110.118 128.754 134.612  0.00  0.00    +0.000 OA
ATOM      3  O   UNL     1     109.837 126.082 135.938  0.00  0.00    +0.000 OA
ATOM      4  O   UNL     1     109.616 127.506 135.134  0.00  0.00    +0.000 OA
ATOM      5  C   UNL     1     112.298 128.907 135.101  0.00  0.00    +0.000 A 
ATOM      6  C   UNL     1     112.408 128.165 135.518  0.00  0.00    +0.000 A 
ATOM      7  C   UNL     1     111.523 129.111 134.792  0.00  0.00    +0.000 A 
ATOM      8  C   UNL     1     111.739 127.633 135.622  0.00  0.00    +0.000 A 
ATOM      9  C   UNL     1     110.995 127.828 135.326  0.00  0.00    +0.000 A 
ATOM     10  C   UNL     1     110.866 128.567 134.905  0.00  0.00    +0.000 A 
ATOM     11  C   UNL     1     110.360 127.311 135.431  0.00  0.00    +0.000 A 
ATOM     12  C   UNL     1     111.217 126.405 136.129  0.00  0.00    +0.000 A 
ATOM     13  C   UNL     1     110.471 126.599 135.833  0.00  0.00    +0.000 A 
ENDROOT
BRANCH  12  17
ATOM     14  O   UNL     1     111.909 123.632 136.107  0.00  0.00    +0.000 OA
ATOM     15  O   UNL     1     111.187 124.906 138.562  0.00  0.00    +0.000 OA
ATOM     16  O   UNL     1     111.659 123.557 137.737  0.00  0.00    +0.000 OA
ATOM     17  C   UNL     1     111.327 125.693 136.531  0.00  0.00    +0.000 A 
ATOM     18  C   UNL     1     111.202 125.655 137.345  0.00  0.00    +0.000 A 
ATOM     19  C   UNL     1     111.563 125.018 136.118  0.00  0.00    +0.000 A 
ATOM     20  C   UNL     1     111.674 124.306 136.520  0.00  0.00    +0.000 A 
ATOM     21  C   UNL     1     111.313 124.943 137.747  0.00  0.00    +0.000 A 
ATOM     22  C   UNL     1     111.548 124.269 137.335  0.00  0.00    +0.000 A 
ENDBRANCH  12  17
BRANCH   5  23
ATOM     23  O   UNL     1     112.934 129.422 134.997  0.00  0.00    +0.000 OA
BRANCH  23  32
ATOM     24  O   UNL     1     112.694 130.211 136.164  0.00  0.00    +0.000 OA
ATOM     25  O   UNL     1     115.134 130.459 136.499  0.00  0.00    +0.000 OA
ATOM     26  O   UNL     1     114.081 131.165 137.554  0.00  0.00    +0.000 OA
ATOM     27  O   UNL     1     114.561 129.587 135.220  0.00  0.00    +0.000 OA
ATOM     28  C   UNL     1     114.321 130.376 136.387  0.00  0.00    +0.000 C 
ATOM     29  C   UNL     1     113.795 130.729 136.914  0.00  0.00    +0.000 C 
ATOM     30  C   UNL     1     114.035 129.941 135.748  0.00  0.00    +0.000 C 
ATOM     31  C   UNL     1     112.981 130.647 136.803  0.00  0.00    +0.000 C 
ATOM     32  C   UNL     1     113.221 129.858 135.637  0.00  0.00    +0.000 C 
ATOM     33  C   UNL     1     112.454 131.001 137.331  0.00  0.00    +0.000 C 
ENDBRANCH  23  32
ENDBRANCH   5  23
TORSDOF 3
ENDMDL
MODEL 6
REMARK VINA RESULT:      -9.9      4.118      6.285
REMARK  Name = 76594575
REMARK  3 active torsions:
REMARK  status: ('A' for Active; 'I' for Inactive)
REMARK    1  A    between atoms: O_2  and  C_17
REMARK    2  A    between atoms: O_2  and  C_19
REMARK    3  A    between atoms: C_26  and  C_28
REMARK                            x       y       z     vdW  Elec       q    Type
REMARK                         _______ _______ _______ _____ _____    ______ ____
ROOT
ATOM      1  O   UNL     1     105.469 126.327 144.258  0.00  0.00    +0.000 OA
ATOM      2  O   UNL     1     107.140 126.181 146.610  0.00  0.00    +0.000 OA
ATOM      3  O   UNL     1     106.776 128.075 144.318  0.00  0.00    +0.000 OA
ATOM      4  O   UNL     1     107.244 127.287 145.690  0.00  0.00    +0.000 OA
ATOM      5  C   UNL     1     105.563 124.777 145.864  0.00  0.00    +0.000 A 
ATOM      6  C   UNL     1     105.323 125.191 145.151  0.00  0.00    +0.000 A 
ATOM      7  C   UNL     1     106.179 125.110 146.362  0.00  0.00    +0.000 A 
ATOM      8  C   UNL     1     105.703 125.934 144.944  0.00  0.00    +0.000 A 
ATOM      9  C   UNL     1     106.295 126.254 145.421  0.00  0.00    +0.000 A 
ATOM     10  C   UNL     1     106.548 125.854 146.139  0.00  0.00    +0.000 A 
ATOM     11  C   UNL     1     106.652 126.968 145.213  0.00  0.00    +0.000 A 
ATOM     12  C   UNL     1     105.826 127.041 144.049  0.00  0.00    +0.000 A 
ATOM     13  C   UNL     1     106.418 127.361 144.526  0.00  0.00    +0.000 A 
ENDROOT
BRANCH  12  17
ATOM     14  O   UNL     1     104.247 129.046 142.762  0.00  0.00    +0.000 OA
ATOM     15  O   UNL     1     106.001 127.398 141.219  0.00  0.00    +0.000 OA
ATOM     16  O   UNL     1     104.890 128.615 141.304  0.00  0.00    +0.000 OA
ATOM     17  C   UNL     1     105.592 127.435 143.363  0.00  0.00    +0.000 A 
ATOM     18  C   UNL     1     105.913 127.220 142.634  0.00  0.00    +0.000 A 
ATOM     19  C   UNL     1     105.036 128.043 143.406  0.00  0.00    +0.000 A 
ATOM     20  C   UNL     1     104.802 128.437 142.719  0.00  0.00    +0.000 A 
ATOM     21  C   UNL     1     105.679 127.614 141.948  0.00  0.00    +0.000 A 
ATOM     22  C   UNL     1     105.123 128.222 141.991  0.00  0.00    +0.000 A 
ENDBRANCH  12  17
BRANCH   5  23
ATOM     23  O   UNL     1     105.203 124.063 146.070  0.00  0.00    +0.000 OA
BRANCH  23  32
ATOM     24  O   UNL     1     104.163 124.632 146.868  0.00  0.00    +0.000 OA
ATOM     25  O   UNL     1     102.600 122.885 146.075  0.00  0.00    +0.000 OA
ATOM     26  O   UNL     1     102.081 124.036 147.137  0.00  0.00    +0.000 OA
ATOM     27  O   UNL     1     104.161 122.899 145.541  0.00  0.00    +0.000 OA
ATOM     28  C   UNL     1     103.121 123.467 146.339  0.00  0.00    +0.000 C 
ATOM     29  C   UNL     1     102.861 124.042 146.870  0.00  0.00    +0.000 C 
ATOM     30  C   UNL     1     103.901 123.474 146.073  0.00  0.00    +0.000 C 
ATOM     31  C   UNL     1     103.382 124.625 147.134  0.00  0.00    +0.000 C 
ATOM     32  C   UNL     1     104.422 124.056 146.337  0.00  0.00    +0.000 C 
ATOM     33  C   UNL     1     103.123 125.201 147.666  0.00  0.00    +0.000 C 
ENDBRANCH  23  32
ENDBRANCH   5  23
TORSDOF 3
ENDMDL
MODEL 7
REMARK VINA RESULT:      -9.8      5.591      8.789
REMARK  Name = 76594575
REMARK  3 active torsions:
REMARK  status: ('A' for Active; 'I' for Inactive)
REMARK    1  A    between atoms: O_2  and  C_17
REMARK    2  A    between atoms: O_2  and  C_19
REMARK    3  A    between atoms: C_26  and  C_28
REMARK                            x       y       z     vdW  Elec       q    Type
REMARK                         _______ _______ _______ _____ _____    ______ ____
ROOT
ATOM      1  O   UNL     1     103.194 132.802 140.877  0.00  0.00    +0.000 OA
ATOM      2  O   UNL     1     100.776 132.005 142.242  0.00  0.00    +0.000 OA
ATOM      3  O   UNL     1     102.098 134.587 141.493  0.00  0.00    +0.000 OA
ATOM      4  O   UNL     1     101.102 133.398 142.057  0.00  0.00    +0.000 OA
ATOM      5  C   UNL     1     102.401 130.763 141.327  0.00  0.00    +0.000 A 
ATOM      6  C   UNL     1     102.915 131.386 141.036  0.00  0.00    +0.000 A 
ATOM      7  C   UNL     1     101.674 130.969 141.737  0.00  0.00    +0.000 A 
ATOM      8  C   UNL     1     102.697 132.209 141.158  0.00  0.00    +0.000 A 
ATOM      9  C   UNL     1     101.999 132.407 141.552  0.00  0.00    +0.000 A 
ATOM     10  C   UNL     1     101.472 131.797 141.850  0.00  0.00    +0.000 A 
ATOM     11  C   UNL     1     101.800 133.200 141.663  0.00  0.00    +0.000 A 
ATOM     12  C   UNL     1     102.995 133.595 140.988  0.00  0.00    +0.000 A 
ATOM     13  C   UNL     1     102.298 133.794 141.382  0.00  0.00    +0.000 A 
ENDROOT
BRANCH  12  17
ATOM     14  O   UNL     1     103.890 135.268 138.850  0.00  0.00    +0.000 OA
ATOM     15  O   UNL     1     105.088 135.489 141.436  0.00  0.00    +0.000 OA
ATOM     16  O   UNL     1     104.987 135.973 139.862  0.00  0.00    +0.000 OA
ATOM     17  C   UNL     1     103.493 134.190 140.706  0.00  0.00    +0.000 A 
ATOM     18  C   UNL     1     104.042 134.542 141.212  0.00  0.00    +0.000 A 
ATOM     19  C   UNL     1     103.443 134.431 139.919  0.00  0.00    +0.000 A 
ATOM     20  C   UNL     1     103.941 135.026 139.637  0.00  0.00    +0.000 A 
ATOM     21  C   UNL     1     104.540 135.137 140.930  0.00  0.00    +0.000 A 
ATOM     22  C   UNL     1     104.489 135.379 140.143  0.00  0.00    +0.000 A 
ENDBRANCH  12  17
BRANCH   5  23
ATOM     23  O   UNL     1     102.603 129.971 141.214  0.00  0.00    +0.000 OA
BRANCH  23  32
ATOM     24  O   UNL     1     103.344 129.867 142.431  0.00  0.00    +0.000 OA
ATOM     25  O   UNL     1     104.816 128.172 141.389  0.00  0.00    +0.000 OA
ATOM     26  O   UNL     1     105.067 128.632 142.954  0.00  0.00    +0.000 OA
ATOM     27  O   UNL     1     103.584 128.841 140.519  0.00  0.00    +0.000 OA
ATOM     28  C   UNL     1     104.325 128.737 141.737  0.00  0.00    +0.000 C 
ATOM     29  C   UNL     1     104.451 128.967 142.518  0.00  0.00    +0.000 C 
ATOM     30  C   UNL     1     103.710 129.071 141.302  0.00  0.00    +0.000 C 
ATOM     31  C   UNL     1     103.960 129.532 142.866  0.00  0.00    +0.000 C 
ATOM     32  C   UNL     1     103.219 129.636 141.649  0.00  0.00    +0.000 C 
ATOM     33  C   UNL     1     104.085 129.762 143.649  0.00  0.00    +0.000 C 
ENDBRANCH  23  32
ENDBRANCH   5  23
TORSDOF 3
ENDMDL
MODEL 8
REMARK VINA RESULT:      -9.8      6.873      7.991
REMARK  Name = 76594575
REMARK  3 active torsions:
REMARK  status: ('A' for Active; 'I' for Inactive)
REMARK    1  A    between atoms: O_2  and  C_17
REMARK    2  A    between atoms: O_2  and  C_19
REMARK    3  A    between atoms: C_26  and  C_28
REMARK                            x       y       z     vdW  Elec       q    Type
REMARK                         _______ _______ _______ _____ _____    ______ ____
ROOT
ATOM      1  O   UNL     1     110.267 128.222 136.246  0.00  0.00    +0.000 OA
ATOM      2  O   UNL     1     107.905 129.786 135.678  0.00  0.00    +0.000 OA
ATOM      3  O   UNL     1     108.576 126.877 135.936  0.00  0.00    +0.000 OA
ATOM      4  O   UNL     1     107.852 128.345 135.723  0.00  0.00    +0.000 OA
ATOM      5  C   UNL     1     110.006 130.436 136.103  0.00  0.00    +0.000 A 
ATOM      6  C   UNL     1     110.377 129.670 136.212  0.00  0.00    +0.000 A 
ATOM      7  C   UNL     1     109.167 130.480 135.921  0.00  0.00    +0.000 A 
ATOM      8  C   UNL     1     109.905 128.955 136.139  0.00  0.00    +0.000 A 
ATOM      9  C   UNL     1     109.100 128.996 135.965  0.00  0.00    +0.000 A 
ATOM     10  C   UNL     1     108.711 129.754 135.852  0.00  0.00    +0.000 A 
ATOM     11  C   UNL     1     108.657 128.303 135.897  0.00  0.00    +0.000 A 
ATOM     12  C   UNL     1     109.825 127.529 136.178  0.00  0.00    +0.000 A 
ATOM     13  C   UNL     1     109.019 127.570 136.004  0.00  0.00    +0.000 A 
ENDROOT
BRANCH  12  17
ATOM     14  O   UNL     1     110.751 125.454 137.912  0.00  0.00    +0.000 OA
ATOM     15  O   UNL     1     111.071 125.202 135.083  0.00  0.00    +0.000 OA
ATOM     16  O   UNL     1     111.273 124.595 136.604  0.00  0.00    +0.000 OA
ATOM     17  C   UNL     1     110.187 126.796 136.285  0.00  0.00    +0.000 A 
ATOM     18  C   UNL     1     110.448 126.366 135.631  0.00  0.00    +0.000 A 
ATOM     19  C   UNL     1     110.288 126.492 137.045  0.00  0.00    +0.000 A 
ATOM     20  C   UNL     1     110.650 125.758 137.152  0.00  0.00    +0.000 A 
ATOM     21  C   UNL     1     110.810 125.632 135.738  0.00  0.00    +0.000 A 
ATOM     22  C   UNL     1     110.911 125.328 136.498  0.00  0.00    +0.000 A 
ENDBRANCH  12  17
BRANCH   5  23
ATOM     23  O   UNL     1     110.452 131.127 136.171  0.00  0.00    +0.000 OA
BRANCH  23  32
ATOM     24  O   UNL     1     110.388 131.221 137.595  0.00  0.00    +0.000 OA
ATOM     25  O   UNL     1     110.272 133.688 137.428  0.00  0.00    +0.000 OA
ATOM     26  O   UNL     1     110.247 132.959 138.908  0.00  0.00    +0.000 OA
ATOM     27  O   UNL     1     110.375 132.771 136.059  0.00  0.00    +0.000 OA
ATOM     28  C   UNL     1     110.311 132.865 137.484  0.00  0.00    +0.000 C 
ATOM     29  C   UNL     1     110.298 132.502 138.223  0.00  0.00    +0.000 C 
ATOM     30  C   UNL     1     110.362 132.408 136.800  0.00  0.00    +0.000 C 
ATOM     31  C   UNL     1     110.337 131.679 138.279  0.00  0.00    +0.000 C 
ATOM     32  C   UNL     1     110.401 131.586 136.856  0.00  0.00    +0.000 C 
ATOM     33  C   UNL     1     110.324 131.315 139.020  0.00  0.00    +0.000 C 
ENDBRANCH  23  32
ENDBRANCH   5  23
TORSDOF 3
ENDMDL
MODEL 9
REMARK VINA RESULT:      -9.8      2.757      6.253
REMARK  Name = 76594575
REMARK  3 active torsions:
REMARK  status: ('A' for Active; 'I' for Inactive)
REMARK    1  A    between atoms: O_2  and  C_17
REMARK    2  A    between atoms: O_2  and  C_19
REMARK    3  A    between atoms: C_26  and  C_28
REMARK                            x       y       z     vdW  Elec       q    Type
REMARK                         _______ _______ _______ _____ _____    ______ ____
ROOT
ATOM      1  O   UNL     1     106.198 125.311 144.084  0.00  0.00    +0.000 OA
ATOM      2  O   UNL     1     105.238 127.421 142.361  0.00  0.00    +0.000 OA
ATOM      3  O   UNL     1     105.363 126.912 145.311  0.00  0.00    +0.000 OA
ATOM      4  O   UNL     1     105.128 127.523 143.796  0.00  0.00    +0.000 OA
ATOM      5  C   UNL     1     106.214 125.470 141.856  0.00  0.00    +0.000 A 
ATOM      6  C   UNL     1     106.334 125.157 142.647  0.00  0.00    +0.000 A 
ATOM      7  C   UNL     1     105.843 126.238 141.755  0.00  0.00    +0.000 A 
ATOM      8  C   UNL     1     106.081 125.616 143.328  0.00  0.00    +0.000 A 
ATOM      9  C   UNL     1     105.724 126.354 143.232  0.00  0.00    +0.000 A 
ATOM     10  C   UNL     1     105.595 126.683 142.448  0.00  0.00    +0.000 A 
ATOM     11  C   UNL     1     105.485 126.785 143.893  0.00  0.00    +0.000 A 
ATOM     12  C   UNL     1     105.959 125.742 144.746  0.00  0.00    +0.000 A 
ATOM     13  C   UNL     1     105.602 126.480 144.650  0.00  0.00    +0.000 A 
ENDROOT
BRANCH  12  17
ATOM     14  O   UNL     1     105.069 124.127 146.929  0.00  0.00    +0.000 OA
ATOM     15  O   UNL     1     107.556 125.525 147.106  0.00  0.00    +0.000 OA
ATOM     16  O   UNL     1     106.431 124.520 147.775  0.00  0.00    +0.000 OA
ATOM     17  C   UNL     1     106.077 125.436 145.503  0.00  0.00    +0.000 A 
ATOM     18  C   UNL     1     106.757 125.633 145.926  0.00  0.00    +0.000 A 
ATOM     19  C   UNL     1     105.514 124.934 145.837  0.00  0.00    +0.000 A 
ATOM     20  C   UNL     1     105.632 124.629 146.595  0.00  0.00    +0.000 A 
ATOM     21  C   UNL     1     106.875 125.328 146.683  0.00  0.00    +0.000 A 
ATOM     22  C   UNL     1     106.312 124.825 147.018  0.00  0.00    +0.000 A 
ENDBRANCH  12  17
BRANCH   5  23
ATOM     23  O   UNL     1     106.455 125.036 141.197  0.00  0.00    +0.000 OA
BRANCH  23  32
ATOM     24  O   UNL     1     105.476 123.994 141.223  0.00  0.00    +0.000 OA
ATOM     25  O   UNL     1     105.174 124.218 138.777  0.00  0.00    +0.000 OA
ATOM     26  O   UNL     1     104.296 123.102 139.618  0.00  0.00    +0.000 OA
ATOM     27  O   UNL     1     106.253 125.184 139.566  0.00  0.00    +0.000 OA
ATOM     28  C   UNL     1     105.275 124.143 139.592  0.00  0.00    +0.000 C 
ATOM     29  C   UNL     1     104.836 123.586 140.012  0.00  0.00    +0.000 C 
ATOM     30  C   UNL     1     105.814 124.626 139.986  0.00  0.00    +0.000 C 
ATOM     31  C   UNL     1     104.937 123.511 140.828  0.00  0.00    +0.000 C 
ATOM     32  C   UNL     1     105.915 124.552 140.802  0.00  0.00    +0.000 C 
ATOM     33  C   UNL     1     104.498 122.953 141.249  0.00  0.00    +0.000 C 
ENDBRANCH  23  32
ENDBRANCH   5  23
TORSDOF 3
ENDMDL
MODEL 10
REMARK VINA RESULT:      -9.7      7.602     10.275
REMARK  Name = 76594575
REMARK  3 active torsions:
REMARK  status: ('A' for Active; 'I' for Inactive)
REMARK    1  A    between atoms: O_2  and  C_17
REMARK    2  A    between atoms: O_2  and  C_19
REMARK    3  A    between atoms: C_26  and  C_28
REMARK                            x       y       z     vdW  Elec       q    Type
REMARK                         _______ _______ _______ _____ _____    ______ ____
ROOT
ATOM      1  O   UNL     1     112.692 128.486 138.249  0.00  0.00    +0.000 OA
ATOM      2  O   UNL     1     113.394 128.808 135.465  0.00  0.00    +0.000 OA
ATOM      3  O   UNL     1     113.854 130.319 138.010  0.00  0.00    +0.000 OA
ATOM      4  O   UNL     1     113.805 129.776 136.453  0.00  0.00    +0.000 OA
ATOM      5  C   UNL     1     112.224 127.194 136.487  0.00  0.00    +0.000 A 
ATOM      6  C   UNL     1     112.253 127.482 137.295  0.00  0.00    +0.000 A 
ATOM      7  C   UNL     1     112.610 127.642 135.863  0.00  0.00    +0.000 A 
ATOM      8  C   UNL     1     112.668 128.215 137.471  0.00  0.00    +0.000 A 
ATOM      9  C   UNL     1     113.039 128.644 136.872  0.00  0.00    +0.000 A 
ATOM     10  C   UNL     1     113.021 128.372 136.057  0.00  0.00    +0.000 A 
ATOM     11  C   UNL     1     113.434 129.346 137.052  0.00  0.00    +0.000 A 
ATOM     12  C   UNL     1     113.087 129.187 138.429  0.00  0.00    +0.000 A 
ATOM     13  C   UNL     1     113.459 129.618 137.831  0.00  0.00    +0.000 A 
ENDROOT
BRANCH  12  17
ATOM     14  O   UNL     1     114.361 129.259 140.987  0.00  0.00    +0.000 OA
ATOM     15  O   UNL     1     111.961 130.747 140.543  0.00  0.00    +0.000 OA
ATOM     16  O   UNL     1     113.185 130.275 141.543  0.00  0.00    +0.000 OA
ATOM     17  C   UNL     1     113.112 129.459 139.208  0.00  0.00    +0.000 A 
ATOM     18  C   UNL     1     112.524 129.967 139.486  0.00  0.00    +0.000 A 
ATOM     19  C   UNL     1     113.724 129.223 139.708  0.00  0.00    +0.000 A 
ATOM     20  C   UNL     1     113.749 129.495 140.487  0.00  0.00    +0.000 A 
ATOM     21  C   UNL     1     112.549 130.239 140.265  0.00  0.00    +0.000 A 
ATOM     22  C   UNL     1     113.161 130.003 140.765  0.00  0.00    +0.000 A 
ENDBRANCH  12  17
BRANCH   5  23
ATOM     23  O   UNL     1     111.828 126.493 136.310  0.00  0.00    +0.000 OA
BRANCH  23  32
ATOM     24  O   UNL     1     112.986 125.660 136.399  0.00  0.00    +0.000 OA
ATOM     25  O   UNL     1     111.585 123.800 137.236  0.00  0.00    +0.000 OA
ATOM     26  O   UNL     1     113.210 123.588 137.046  0.00  0.00    +0.000 OA
ATOM     27  O   UNL     1     110.894 125.253 136.869  0.00  0.00    +0.000 OA
ATOM     28  C   UNL     1     112.052 124.420 136.957  0.00  0.00    +0.000 C 
ATOM     29  C   UNL     1     112.864 124.314 136.862  0.00  0.00    +0.000 C 
ATOM     30  C   UNL     1     111.707 125.146 136.773  0.00  0.00    +0.000 C 
ATOM     31  C   UNL     1     113.331 124.934 136.583  0.00  0.00    +0.000 C 
ATOM     32  C   UNL     1     112.174 125.766 136.494  0.00  0.00    +0.000 C 
ATOM     33  C   UNL     1     114.144 124.828 136.487  0.00  0.00    +0.000 C 
ENDBRANCH  23  32
ENDBRANCH   5  23
TORSDOF 3
ENDMDL
