MODEL 1
REMARK VINA RESULT:      -9.1      0.000      0.000
REMARK  Name = 5386958
REMARK  2 active torsions:
REMARK  status: ('A' for Active; 'I' for Inactive)
REMARK    1  A    between atoms: O_2  and  C_12
REMARK    2  A    between atoms: C_11  and  C_14
REMARK                            x       y       z     vdW  Elec       q    Type
REMARK                         _______ _______ _______ _____ _____    ______ ____
ROOT
ATOM      1  O   UNL     1     105.601 124.419 147.717  0.00  0.00    +0.000 OA
ATOM      2  O   UNL     1     108.143 125.587 146.999  0.00  0.00    +0.000 OA
ATOM      3  O   UNL     1     106.209 123.965 149.212  0.00  0.00    +0.000 OA
ATOM      4  O   UNL     1     107.027 125.614 146.086  0.00  0.00    +0.000 OA
ATOM      5  O   UNL     1     107.811 124.326 149.611  0.00  0.00    +0.000 OA
ATOM      6  C   UNL     1     106.858 124.996 147.363  0.00  0.00    +0.000 A 
ATOM      7  C   UNL     1     106.383 124.597 147.907  0.00  0.00    +0.000 A 
ATOM      8  C   UNL     1     105.293 124.638 146.984  0.00  0.00    +0.000 A 
ATOM      9  C   UNL     1     105.768 125.037 146.440  0.00  0.00    +0.000 A 
ATOM     10  C   UNL     1     106.552 125.216 146.629  0.00  0.00    +0.000 A 
ATOM     11  C   UNL     1     107.676 125.188 147.548  0.00  0.00    +0.000 A 
ATOM     12  C   UNL     1     106.692 124.363 148.674  0.00  0.00    +0.000 A 
ATOM     13  C   UNL     1     107.506 124.547 148.877  0.00  0.00    +0.000 A 
ATOM     14  C   UNL     1     108.002 124.962 148.310  0.00  0.00    +0.000 A 
ENDROOT
BRANCH   8  17
ATOM     15  O   UNL     1     103.370 122.876 145.815  0.00  0.00    +0.000 OA
ATOM     16  O   UNL     1     102.162 123.922 146.224  0.00  0.00    +0.000 OA
ATOM     17  C   UNL     1     104.511 124.460 146.794  0.00  0.00    +0.000 A 
ATOM     18  C   UNL     1     104.332 123.757 146.400  0.00  0.00    +0.000 A 
ATOM     19  C   UNL     1     103.906 124.982 146.999  0.00  0.00    +0.000 A 
ATOM     20  C   UNL     1     103.549 123.578 146.210  0.00  0.00    +0.000 A 
ATOM     21  C   UNL     1     103.124 124.804 146.809  0.00  0.00    +0.000 A 
ATOM     22  C   UNL     1     102.945 124.102 146.414  0.00  0.00    +0.000 A 
ENDBRANCH   8  17
BRANCH   9  23
ATOM     23  O   UNL     1     105.462 125.257 145.706  0.00  0.00    +0.000 OA
ATOM     24  C   UNL     1     105.964 125.544 145.118  0.00  0.00    +0.000 C 
ENDBRANCH   9  23
TORSDOF 2
ENDMDL
MODEL 2
REMARK VINA RESULT:      -8.8      1.116      4.219
REMARK  Name = 5386958
REMARK  2 active torsions:
REMARK  status: ('A' for Active; 'I' for Inactive)
REMARK    1  A    between atoms: O_2  and  C_12
REMARK    2  A    between atoms: C_11  and  C_14
REMARK                            x       y       z     vdW  Elec       q    Type
REMARK                         _______ _______ _______ _____ _____    ______ ____
ROOT
ATOM      1  O   UNL     1     105.178 124.274 147.193  0.00  0.00    +0.000 OA
ATOM      2  O   UNL     1     102.489 125.216 147.670  0.00  0.00    +0.000 OA
ATOM      3  O   UNL     1     104.635 123.291 145.949  0.00  0.00    +0.000 OA
ATOM      4  O   UNL     1     103.597 125.693 148.462  0.00  0.00    +0.000 OA
ATOM      5  O   UNL     1     102.992 123.266 145.555  0.00  0.00    +0.000 OA
ATOM      6  C   UNL     1     103.848 124.739 147.428  0.00  0.00    +0.000 A 
ATOM      7  C   UNL     1     104.376 124.266 147.005  0.00  0.00    +0.000 A 
ATOM      8  C   UNL     1     105.455 124.755 147.803  0.00  0.00    +0.000 A 
ATOM      9  C   UNL     1     104.928 125.228 148.226  0.00  0.00    +0.000 A 
ATOM     10  C   UNL     1     104.124 125.220 148.039  0.00  0.00    +0.000 A 
ATOM     11  C   UNL     1     103.008 124.740 147.242  0.00  0.00    +0.000 A 
ATOM     12  C   UNL     1     104.100 123.761 146.366  0.00  0.00    +0.000 A 
ATOM     13  C   UNL     1     103.265 123.748 146.166  0.00  0.00    +0.000 A 
ATOM     14  C   UNL     1     102.715 124.241 146.607  0.00  0.00    +0.000 A 
ENDROOT
BRANCH   8  17
ATOM     15  O   UNL     1     108.117 125.635 147.250  0.00  0.00    +0.000 OA
ATOM     16  O   UNL     1     108.668 124.788 148.555  0.00  0.00    +0.000 OA
ATOM     17  C   UNL     1     106.258 124.763 147.991  0.00  0.00    +0.000 A 
ATOM     18  C   UNL     1     106.785 125.195 147.527  0.00  0.00    +0.000 A 
ATOM     19  C   UNL     1     106.534 124.340 148.644  0.00  0.00    +0.000 A 
ATOM     20  C   UNL     1     107.590 125.203 147.714  0.00  0.00    +0.000 A 
ATOM     21  C   UNL     1     107.337 124.348 148.831  0.00  0.00    +0.000 A 
ATOM     22  C   UNL     1     107.864 124.780 148.367  0.00  0.00    +0.000 A 
ENDBRANCH   8  17
BRANCH   9  23
ATOM     23  O   UNL     1     105.203 125.709 148.837  0.00  0.00    +0.000 OA
ATOM     24  C   UNL     1     104.803 126.405 149.028  0.00  0.00    +0.000 C 
ENDBRANCH   9  23
TORSDOF 2
ENDMDL
MODEL 3
REMARK VINA RESULT:      -8.3     12.472     13.544
REMARK  Name = 5386958
REMARK  2 active torsions:
REMARK  status: ('A' for Active; 'I' for Inactive)
REMARK    1  A    between atoms: O_2  and  C_12
REMARK    2  A    between atoms: C_11  and  C_14
REMARK                            x       y       z     vdW  Elec       q    Type
REMARK                         _______ _______ _______ _____ _____    ______ ____
ROOT
ATOM      1  O   UNL     1     111.942 125.896 136.077  0.00  0.00    +0.000 OA
ATOM      2  O   UNL     1     110.668 128.221 134.931  0.00  0.00    +0.000 OA
ATOM      3  O   UNL     1     110.718 124.912 135.493  0.00  0.00    +0.000 OA
ATOM      4  O   UNL     1     111.905 128.336 135.662  0.00  0.00    +0.000 OA
ATOM      5  O   UNL     1     109.444 125.589 134.613  0.00  0.00    +0.000 OA
ATOM      6  C   UNL     1     111.311 127.045 135.510  0.00  0.00    +0.000 A 
ATOM      7  C   UNL     1     111.323 126.232 135.648  0.00  0.00    +0.000 A 
ATOM      8  C   UNL     1     112.550 126.372 136.368  0.00  0.00    +0.000 A 
ATOM      9  C   UNL     1     112.537 127.186 136.230  0.00  0.00    +0.000 A 
ATOM     10  C   UNL     1     111.918 127.522 135.801  0.00  0.00    +0.000 A 
ATOM     11  C   UNL     1     110.671 127.408 135.064  0.00  0.00    +0.000 A 
ATOM     12  C   UNL     1     110.697 125.724 135.350  0.00  0.00    +0.000 A 
ATOM     13  C   UNL     1     110.049 126.068 134.903  0.00  0.00    +0.000 A 
ATOM     14  C   UNL     1     110.037 126.916 134.759  0.00  0.00    +0.000 A 
ENDROOT
BRANCH   8  17
ATOM     15  O   UNL     1     115.082 125.050 136.435  0.00  0.00    +0.000 OA
ATOM     16  O   UNL     1     115.027 125.028 138.084  0.00  0.00    +0.000 OA
ATOM     17  C   UNL     1     113.169 126.037 136.797  0.00  0.00    +0.000 A 
ATOM     18  C   UNL     1     113.815 125.711 136.402  0.00  0.00    +0.000 A 
ATOM     19  C   UNL     1     113.142 126.026 137.622  0.00  0.00    +0.000 A 
ATOM     20  C   UNL     1     114.435 125.375 136.831  0.00  0.00    +0.000 A 
ATOM     21  C   UNL     1     113.761 125.690 138.051  0.00  0.00    +0.000 A 
ATOM     22  C   UNL     1     114.407 125.365 137.655  0.00  0.00    +0.000 A 
ENDBRANCH   8  17
BRANCH   9  23
ATOM     23  O   UNL     1     113.144 127.663 136.521  0.00  0.00    +0.000 OA
ATOM     24  C   UNL     1     113.312 128.385 136.157  0.00  0.00    +0.000 C 
ENDBRANCH   9  23
TORSDOF 2
ENDMDL
MODEL 4
REMARK VINA RESULT:      -8.3      1.065      2.591
REMARK  Name = 5386958
REMARK  2 active torsions:
REMARK  status: ('A' for Active; 'I' for Inactive)
REMARK    1  A    between atoms: O_2  and  C_12
REMARK    2  A    between atoms: C_11  and  C_14
REMARK                            x       y       z     vdW  Elec       q    Type
REMARK                         _______ _______ _______ _____ _____    ______ ____
ROOT
ATOM      1  O   UNL     1     106.763 125.235 146.809  0.00  0.00    +0.000 OA
ATOM      2  O   UNL     1     105.581 124.321 149.280  0.00  0.00    +0.000 OA
ATOM      3  O   UNL     1     108.294 125.145 147.485  0.00  0.00    +0.000 OA
ATOM      4  O   UNL     1     104.763 124.627 148.133  0.00  0.00    +0.000 OA
ATOM      5  O   UNL     1     108.477 124.636 149.086  0.00  0.00    +0.000 OA
ATOM      6  C   UNL     1     106.180 124.783 148.031  0.00  0.00    +0.000 A 
ATOM      7  C   UNL     1     106.847 124.985 147.590  0.00  0.00    +0.000 A 
ATOM      8  C   UNL     1     106.014 125.282 146.467  0.00  0.00    +0.000 A 
ATOM      9  C   UNL     1     105.347 125.079 146.909  0.00  0.00    +0.000 A 
ATOM     10  C   UNL     1     105.430 124.829 147.691  0.00  0.00    +0.000 A 
ATOM     11  C   UNL     1     106.252 124.521 148.847  0.00  0.00    +0.000 A 
ATOM     12  C   UNL     1     107.633 124.941 147.934  0.00  0.00    +0.000 A 
ATOM     13  C   UNL     1     107.726 124.682 148.747  0.00  0.00    +0.000 A 
ATOM     14  C   UNL     1     107.031 124.470 149.208  0.00  0.00    +0.000 A 
ENDROOT
BRANCH   8  17
ATOM     15  O   UNL     1     106.031 124.701 143.669  0.00  0.00    +0.000 OA
ATOM     16  O   UNL     1     105.681 126.279 143.339  0.00  0.00    +0.000 OA
ATOM     17  C   UNL     1     105.930 125.531 145.686  0.00  0.00    +0.000 A 
ATOM     18  C   UNL     1     106.022 124.991 145.069  0.00  0.00    +0.000 A 
ATOM     19  C   UNL     1     105.755 126.320 145.520  0.00  0.00    +0.000 A 
ATOM     20  C   UNL     1     105.939 125.241 144.286  0.00  0.00    +0.000 A 
ATOM     21  C   UNL     1     105.672 126.570 144.739  0.00  0.00    +0.000 A 
ATOM     22  C   UNL     1     105.764 126.030 144.122  0.00  0.00    +0.000 A 
ENDBRANCH   8  17
BRANCH   9  23
ATOM     23  O   UNL     1     104.597 125.126 146.569  0.00  0.00    +0.000 OA
ATOM     24  C   UNL     1     103.982 124.658 146.858  0.00  0.00    +0.000 C 
ENDBRANCH   9  23
TORSDOF 2
ENDMDL
MODEL 5
REMARK VINA RESULT:      -8.2      2.044      3.987
REMARK  Name = 5386958
REMARK  2 active torsions:
REMARK  status: ('A' for Active; 'I' for Inactive)
REMARK    1  A    between atoms: O_2  and  C_12
REMARK    2  A    between atoms: C_11  and  C_14
REMARK                            x       y       z     vdW  Elec       q    Type
REMARK                         _______ _______ _______ _____ _____    ______ ____
ROOT
ATOM      1  O   UNL     1     106.555 125.113 146.042  0.00  0.00    +0.000 OA
ATOM      2  O   UNL     1     105.624 127.415 144.566  0.00  0.00    +0.000 OA
ATOM      3  O   UNL     1     106.268 124.124 144.720  0.00  0.00    +0.000 OA
ATOM      4  O   UNL     1     106.081 127.540 145.929  0.00  0.00    +0.000 OA
ATOM      5  O   UNL     1     105.649 124.787 143.294  0.00  0.00    +0.000 OA
ATOM      6  C   UNL     1     106.095 126.251 145.312  0.00  0.00    +0.000 A 
ATOM      7  C   UNL     1     106.253 125.442 145.349  0.00  0.00    +0.000 A 
ATOM      8  C   UNL     1     106.700 125.593 146.698  0.00  0.00    +0.000 A 
ATOM      9  C   UNL     1     106.542 126.401 146.660  0.00  0.00    +0.000 A 
ATOM     10  C   UNL     1     106.239 126.731 145.967  0.00  0.00    +0.000 A 
ATOM     11  C   UNL     1     105.779 126.606 144.595  0.00  0.00    +0.000 A 
ATOM     12  C   UNL     1     106.107 124.932 144.673  0.00  0.00    +0.000 A 
ATOM     13  C   UNL     1     105.792 125.269 143.948  0.00  0.00    +0.000 A 
ATOM     14  C   UNL     1     105.627 126.112 143.909  0.00  0.00    +0.000 A 
ENDROOT
BRANCH   8  17
ATOM     15  O   UNL     1     106.285 124.248 149.186  0.00  0.00    +0.000 OA
ATOM     16  O   UNL     1     107.910 124.276 149.472  0.00  0.00    +0.000 OA
ATOM     17  C   UNL     1     107.002 125.264 147.391  0.00  0.00    +0.000 A 
ATOM     18  C   UNL     1     106.493 124.920 147.941  0.00  0.00    +0.000 A 
ATOM     19  C   UNL     1     107.815 125.278 147.535  0.00  0.00    +0.000 A 
ATOM     20  C   UNL     1     106.795 124.591 148.635  0.00  0.00    +0.000 A 
ATOM     21  C   UNL     1     108.117 124.949 148.228  0.00  0.00    +0.000 A 
ATOM     22  C   UNL     1     107.607 124.606 148.778  0.00  0.00    +0.000 A 
ENDBRANCH   8  17
BRANCH   9  23
ATOM     23  O   UNL     1     106.686 126.881 147.316  0.00  0.00    +0.000 OA
ATOM     24  C   UNL     1     106.239 127.565 147.433  0.00  0.00    +0.000 C 
ENDBRANCH   9  23
TORSDOF 2
ENDMDL
MODEL 6
REMARK VINA RESULT:      -8.2     12.050     13.383
REMARK  Name = 5386958
REMARK  2 active torsions:
REMARK  status: ('A' for Active; 'I' for Inactive)
REMARK    1  A    between atoms: O_2  and  C_12
REMARK    2  A    between atoms: C_11  and  C_14
REMARK                            x       y       z     vdW  Elec       q    Type
REMARK                         _______ _______ _______ _____ _____    ______ ____
ROOT
ATOM      1  O   UNL     1     112.211 126.795 136.136  0.00  0.00    +0.000 OA
ATOM      2  O   UNL     1     109.846 125.840 134.779  0.00  0.00    +0.000 OA
ATOM      3  O   UNL     1     111.923 128.351 135.583  0.00  0.00    +0.000 OA
ATOM      4  O   UNL     1     110.679 124.944 135.543  0.00  0.00    +0.000 OA
ATOM      5  O   UNL     1     110.576 128.663 134.612  0.00  0.00    +0.000 OA
ATOM      6  C   UNL     1     111.041 126.324 135.465  0.00  0.00    +0.000 A 
ATOM      7  C   UNL     1     111.552 126.941 135.662  0.00  0.00    +0.000 A 
ATOM      8  C   UNL     1     112.360 126.032 136.412  0.00  0.00    +0.000 A 
ATOM      9  C   UNL     1     111.850 125.415 136.214  0.00  0.00    +0.000 A 
ATOM     10  C   UNL     1     111.190 125.561 135.740  0.00  0.00    +0.000 A 
ATOM     11  C   UNL     1     110.350 126.463 134.971  0.00  0.00    +0.000 A 
ATOM     12  C   UNL     1     111.407 127.741 135.381  0.00  0.00    +0.000 A 
ATOM     13  C   UNL     1     110.722 127.899 134.887  0.00  0.00    +0.000 A 
ATOM     14  C   UNL     1     110.190 127.255 134.681  0.00  0.00    +0.000 A 
ENDROOT
BRANCH   8  17
ATOM     15  O   UNL     1     113.628 126.083 138.973  0.00  0.00    +0.000 OA
ATOM     16  O   UNL     1     114.998 125.448 138.308  0.00  0.00    +0.000 OA
ATOM     17  C   UNL     1     113.019 125.886 136.885  0.00  0.00    +0.000 A 
ATOM     18  C   UNL     1     112.993 126.058 137.692  0.00  0.00    +0.000 A 
ATOM     19  C   UNL     1     113.705 125.569 136.553  0.00  0.00    +0.000 A 
ATOM     20  C   UNL     1     113.653 125.911 138.166  0.00  0.00    +0.000 A 
ATOM     21  C   UNL     1     114.364 125.423 137.027  0.00  0.00    +0.000 A 
ATOM     22  C   UNL     1     114.338 125.594 137.833  0.00  0.00    +0.000 A 
ENDBRANCH   8  17
BRANCH   9  23
ATOM     23  O   UNL     1     111.998 124.652 136.490  0.00  0.00    +0.000 OA
ATOM     24  C   UNL     1     111.633 124.005 136.131  0.00  0.00    +0.000 C 
ENDBRANCH   9  23
TORSDOF 2
ENDMDL
MODEL 7
REMARK VINA RESULT:      -8.1     11.194     12.651
REMARK  Name = 5386958
REMARK  2 active torsions:
REMARK  status: ('A' for Active; 'I' for Inactive)
REMARK    1  A    between atoms: O_2  and  C_12
REMARK    2  A    between atoms: C_11  and  C_14
REMARK                            x       y       z     vdW  Elec       q    Type
REMARK                         _______ _______ _______ _____ _____    ______ ____
ROOT
ATOM      1  O   UNL     1     110.073 126.829 136.254  0.00  0.00    +0.000 OA
ATOM      2  O   UNL     1     110.770 129.488 135.365  0.00  0.00    +0.000 OA
ATOM      3  O   UNL     1     108.444 127.223 136.219  0.00  0.00    +0.000 OA
ATOM      4  O   UNL     1     111.788 128.499 135.624  0.00  0.00    +0.000 OA
ATOM      5  O   UNL     1     107.965 128.775 135.751  0.00  0.00    +0.000 OA
ATOM      6  C   UNL     1     110.417 128.144 135.814  0.00  0.00    +0.000 A 
ATOM      7  C   UNL     1     109.845 127.588 136.024  0.00  0.00    +0.000 A 
ATOM      8  C   UNL     1     110.872 126.626 136.274  0.00  0.00    +0.000 A 
ATOM      9  C   UNL     1     111.444 127.183 136.064  0.00  0.00    +0.000 A 
ATOM     10  C   UNL     1     111.216 127.942 135.834  0.00  0.00    +0.000 A 
ATOM     11  C   UNL     1     110.192 128.939 135.573  0.00  0.00    +0.000 A 
ATOM     12  C   UNL     1     109.009 127.787 136.008  0.00  0.00    +0.000 A 
ATOM     13  C   UNL     1     108.765 128.575 135.769  0.00  0.00    +0.000 A 
ATOM     14  C   UNL     1     109.361 129.155 135.551  0.00  0.00    +0.000 A 
ENDROOT
BRANCH   8  17
ATOM     15  O   UNL     1     111.459 124.736 138.336  0.00  0.00    +0.000 OA
ATOM     16  O   UNL     1     111.785 123.591 137.193  0.00  0.00    +0.000 OA
ATOM     17  C   UNL     1     111.100 125.868 136.503  0.00  0.00    +0.000 A 
ATOM     18  C   UNL     1     111.165 125.682 137.304  0.00  0.00    +0.000 A 
ATOM     19  C   UNL     1     111.263 125.295 135.932  0.00  0.00    +0.000 A 
ATOM     20  C   UNL     1     111.394 124.922 137.534  0.00  0.00    +0.000 A 
ATOM     21  C   UNL     1     111.491 124.537 136.162  0.00  0.00    +0.000 A 
ATOM     22  C   UNL     1     111.556 124.350 136.963  0.00  0.00    +0.000 A 
ENDBRANCH   8  17
BRANCH   9  23
ATOM     23  O   UNL     1     112.244 126.981 136.083  0.00  0.00    +0.000 OA
ATOM     24  C   UNL     1     112.816 127.569 136.174  0.00  0.00    +0.000 C 
ENDBRANCH   9  23
TORSDOF 2
ENDMDL
MODEL 8
REMARK VINA RESULT:      -8.1      6.826      8.401
REMARK  Name = 5386958
REMARK  2 active torsions:
REMARK  status: ('A' for Active; 'I' for Inactive)
REMARK    1  A    between atoms: O_2  and  C_12
REMARK    2  A    between atoms: C_11  and  C_14
REMARK                            x       y       z     vdW  Elec       q    Type
REMARK                         _______ _______ _______ _____ _____    ______ ____
ROOT
ATOM      1  O   UNL     1     103.363 130.193 142.358  0.00  0.00    +0.000 OA
ATOM      2  O   UNL     1     104.329 127.838 140.993  0.00  0.00    +0.000 OA
ATOM      3  O   UNL     1     104.313 129.835 143.692  0.00  0.00    +0.000 OA
ATOM      4  O   UNL     1     103.375 128.721 140.369  0.00  0.00    +0.000 OA
ATOM      5  O   UNL     1     105.289 128.456 143.681  0.00  0.00    +0.000 OA
ATOM      6  C   UNL     1     103.841 129.028 141.684  0.00  0.00    +0.000 A 
ATOM      7  C   UNL     1     103.837 129.519 142.347  0.00  0.00    +0.000 A 
ATOM      8  C   UNL     1     102.892 130.378 141.706  0.00  0.00    +0.000 A 
ATOM      9  C   UNL     1     102.896 129.887 141.043  0.00  0.00    +0.000 A 
ATOM     10  C   UNL     1     103.371 129.212 141.032  0.00  0.00    +0.000 A 
ATOM     11  C   UNL     1     104.332 128.322 141.660  0.00  0.00    +0.000 A 
ATOM     12  C   UNL     1     104.323 129.338 143.033  0.00  0.00    +0.000 A 
ATOM     13  C   UNL     1     104.820 128.637 143.027  0.00  0.00    +0.000 A 
ATOM     14  C   UNL     1     104.824 128.126 142.336  0.00  0.00    +0.000 A 
ENDROOT
BRANCH   8  17
ATOM     15  O   UNL     1     102.559 133.177 141.235  0.00  0.00    +0.000 OA
ATOM     16  O   UNL     1     100.994 133.077 141.748  0.00  0.00    +0.000 OA
ATOM     17  C   UNL     1     102.418 131.052 141.716  0.00  0.00    +0.000 A 
ATOM     18  C   UNL     1     102.726 131.777 141.471  0.00  0.00    +0.000 A 
ATOM     19  C   UNL     1     101.635 131.003 141.973  0.00  0.00    +0.000 A 
ATOM     20  C   UNL     1     102.251 132.452 141.481  0.00  0.00    +0.000 A 
ATOM     21  C   UNL     1     101.161 131.677 141.984  0.00  0.00    +0.000 A 
ATOM     22  C   UNL     1     101.469 132.402 141.738  0.00  0.00    +0.000 A 
ENDBRANCH   8  17
BRANCH   9  23
ATOM     23  O   UNL     1     102.426 130.070 140.390  0.00  0.00    +0.000 OA
ATOM     24  C   UNL     1     102.254 129.491 139.829  0.00  0.00    +0.000 C 
ENDBRANCH   9  23
TORSDOF 2
ENDMDL
MODEL 9
REMARK VINA RESULT:      -8.1      1.255      4.227
REMARK  Name = 5386958
REMARK  2 active torsions:
REMARK  status: ('A' for Active; 'I' for Inactive)
REMARK    1  A    between atoms: O_2  and  C_12
REMARK    2  A    between atoms: C_11  and  C_14
REMARK                            x       y       z     vdW  Elec       q    Type
REMARK                         _______ _______ _______ _____ _____    ______ ____
ROOT
ATOM      1  O   UNL     1     104.930 124.552 146.213  0.00  0.00    +0.000 OA
ATOM      2  O   UNL     1     102.599 123.473 147.534  0.00  0.00    +0.000 OA
ATOM      3  O   UNL     1     104.529 123.743 144.800  0.00  0.00    +0.000 OA
ATOM      4  O   UNL     1     103.507 124.352 148.228  0.00  0.00    +0.000 OA
ATOM      5  O   UNL     1     103.140 122.782 144.749  0.00  0.00    +0.000 OA
ATOM      6  C   UNL     1     103.777 124.018 146.865  0.00  0.00    +0.000 A 
ATOM      7  C   UNL     1     104.252 124.084 146.193  0.00  0.00    +0.000 A 
ATOM      8  C   UNL     1     105.136 124.954 146.903  0.00  0.00    +0.000 A 
ATOM      9  C   UNL     1     104.661 124.887 147.575  0.00  0.00    +0.000 A 
ATOM     10  C   UNL     1     103.982 124.419 147.556  0.00  0.00    +0.000 A 
ATOM     11  C   UNL     1     103.067 123.533 146.858  0.00  0.00    +0.000 A 
ATOM     12  C   UNL     1     104.049 123.671 145.467  0.00  0.00    +0.000 A 
ATOM     13  C   UNL     1     103.343 123.182 145.441  0.00  0.00    +0.000 A 
ATOM     14  C   UNL     1     102.848 123.113 146.141  0.00  0.00    +0.000 A 
ENDROOT
BRANCH   8  17
ATOM     15  O   UNL     1     107.951 125.214 147.324  0.00  0.00    +0.000 OA
ATOM     16  O   UNL     1     107.853 126.825 146.982  0.00  0.00    +0.000 OA
ATOM     17  C   UNL     1     105.814 125.421 146.923  0.00  0.00    +0.000 A 
ATOM     18  C   UNL     1     106.542 125.084 147.114  0.00  0.00    +0.000 A 
ATOM     19  C   UNL     1     105.766 126.227 146.752  0.00  0.00    +0.000 A 
ATOM     20  C   UNL     1     107.222 125.552 147.133  0.00  0.00    +0.000 A 
ATOM     21  C   UNL     1     106.445 126.695 146.771  0.00  0.00    +0.000 A 
ATOM     22  C   UNL     1     107.173 126.357 146.962  0.00  0.00    +0.000 A 
ENDBRANCH   8  17
BRANCH   9  23
ATOM     23  O   UNL     1     104.866 125.288 148.266  0.00  0.00    +0.000 OA
ATOM     24  C   UNL     1     104.294 125.434 148.843  0.00  0.00    +0.000 C 
ENDBRANCH   9  23
TORSDOF 2
ENDMDL
MODEL 10
REMARK VINA RESULT:      -8.0      1.401      2.785
REMARK  Name = 5386958
REMARK  2 active torsions:
REMARK  status: ('A' for Active; 'I' for Inactive)
REMARK    1  A    between atoms: O_2  and  C_12
REMARK    2  A    between atoms: C_11  and  C_14
REMARK                            x       y       z     vdW  Elec       q    Type
REMARK                         _______ _______ _______ _____ _____    ______ ____
ROOT
ATOM      1  O   UNL     1     104.249 124.425 145.958  0.00  0.00    +0.000 OA
ATOM      2  O   UNL     1     106.405 125.313 147.663  0.00  0.00    +0.000 OA
ATOM      3  O   UNL     1     105.120 124.861 144.594  0.00  0.00    +0.000 OA
ATOM      4  O   UNL     1     105.196 124.758 148.220  0.00  0.00    +0.000 OA
ATOM      5  O   UNL     1     106.661 125.535 144.763  0.00  0.00    +0.000 OA
ATOM      6  C   UNL     1     105.315 124.864 146.800  0.00  0.00    +0.000 A 
ATOM      7  C   UNL     1     105.000 124.753 146.046  0.00  0.00    +0.000 A 
ATOM      8  C   UNL     1     103.812 124.207 146.623  0.00  0.00    +0.000 A 
ATOM      9  C   UNL     1     104.128 124.318 147.378  0.00  0.00    +0.000 A 
ATOM     10  C   UNL     1     104.880 124.647 147.466  0.00  0.00    +0.000 A 
ATOM     11  C   UNL     1     106.098 125.206 146.906  0.00  0.00    +0.000 A 
ATOM     12  C   UNL     1     105.444 124.976 145.344  0.00  0.00    +0.000 A 
ATOM     13  C   UNL     1     106.227 125.318 145.430  0.00  0.00    +0.000 A 
ATOM     14  C   UNL     1     106.556 125.434 146.216  0.00  0.00    +0.000 A 
ENDROOT
BRANCH   8  17
ATOM     15  O   UNL     1     100.973 124.518 146.513  0.00  0.00    +0.000 OA
ATOM     16  O   UNL     1     100.805 122.894 146.271  0.00  0.00    +0.000 OA
ATOM     17  C   UNL     1     103.061 123.879 146.535  0.00  0.00    +0.000 A 
ATOM     18  C   UNL     1     102.393 124.363 146.568  0.00  0.00    +0.000 A 
ATOM     19  C   UNL     1     102.976 123.067 146.415  0.00  0.00    +0.000 A 
ATOM     20  C   UNL     1     101.641 124.034 146.480  0.00  0.00    +0.000 A 
ATOM     21  C   UNL     1     102.225 122.739 146.327  0.00  0.00    +0.000 A 
ATOM     22  C   UNL     1     101.557 123.223 146.359  0.00  0.00    +0.000 A 
ENDBRANCH   8  17
BRANCH   9  23
ATOM     23  O   UNL     1     103.692 124.101 148.044  0.00  0.00    +0.000 OA
ATOM     24  C   UNL     1     103.826 124.478 148.765  0.00  0.00    +0.000 C 
ENDBRANCH   9  23
TORSDOF 2
ENDMDL
