MODEL 1
REMARK VINA RESULT:      -9.9      0.000      0.000
REMARK  Name = 44259144
REMARK  7 active torsions:
REMARK  status: ('A' for Active; 'I' for Inactive)
REMARK    1  A    between atoms: O_1  and  C_18
REMARK    2  A    between atoms: O_1  and  C_21
REMARK    3  A    between atoms: O_5  and  C_23
REMARK    4  A    between atoms: O_5  and  C_30
REMARK    5  A    between atoms: C_24  and  C_28
REMARK    6  A    between atoms: C_27  and  C_29
REMARK    7  A    between atoms: C_31  and  C_34
REMARK                            x       y       z     vdW  Elec       q    Type
REMARK                         _______ _______ _______ _____ _____    ______ ____
ROOT
ATOM      1  O   UNL     1     112.212 127.087 137.578  0.00  0.00    +0.000 OA
ENDROOT
BRANCH   1   6
ATOM      2  O   UNL     1     113.610 126.157 138.973  0.00  0.00    +0.000 OA
ATOM      3  O   UNL     1     112.482 128.332 138.627  0.00  0.00    +0.000 OA
ATOM      4  O   UNL     1     113.121 128.883 139.797  0.00  0.00    +0.000 OA
ATOM      5  O   UNL     1     114.935 127.200 141.347  0.00  0.00    +0.000 OA
ATOM      6  C   UNL     1     112.723 126.985 138.218  0.00  0.00    +0.000 A 
ATOM      7  C   UNL     1     113.099 126.259 138.333  0.00  0.00    +0.000 A 
ATOM      8  C   UNL     1     112.858 127.607 138.742  0.00  0.00    +0.000 A 
ATOM      9  C   UNL     1     113.369 127.505 139.381  0.00  0.00    +0.000 A 
ATOM     10  C   UNL     1     113.745 126.780 139.497  0.00  0.00    +0.000 A 
ATOM     11  C   UNL     1     113.501 128.161 139.921  0.00  0.00    +0.000 A 
ATOM     12  C   UNL     1     114.280 126.660 140.159  0.00  0.00    +0.000 A 
ATOM     13  C   UNL     1     114.032 128.060 140.588  0.00  0.00    +0.000 A 
ATOM     14  C   UNL     1     114.424 127.305 140.708  0.00  0.00    +0.000 A 
BRANCH   7  17
ATOM     15  O   UNL     1     113.925 124.683 136.097  0.00  0.00    +0.000 OA
ATOM     16  O   UNL     1     112.560 123.767 136.238  0.00  0.00    +0.000 OA
ATOM     17  C   UNL     1     112.965 125.637 137.809  0.00  0.00    +0.000 A 
ATOM     18  C   UNL     1     113.512 125.471 137.215  0.00  0.00    +0.000 A 
ATOM     19  C   UNL     1     112.282 125.179 137.880  0.00  0.00    +0.000 A 
ATOM     20  C   UNL     1     113.378 124.849 136.691  0.00  0.00    +0.000 A 
ATOM     21  C   UNL     1     112.147 124.555 137.356  0.00  0.00    +0.000 A 
ATOM     22  C   UNL     1     112.695 124.391 136.762  0.00  0.00    +0.000 A 
ENDBRANCH   7  17
ENDBRANCH   1   6
BRANCH   1  29
ATOM     23  O   UNL     1     113.080 127.900 136.786  0.00  0.00    +0.000 OA
ATOM     24  O   UNL     1     111.141 129.247 136.044  0.00  0.00    +0.000 OA
ATOM     25  O   UNL     1     112.655 129.610 135.499  0.00  0.00    +0.000 OA
ATOM     26  C   UNL     1     111.676 128.167 136.811  0.00  0.00    +0.000 C 
ATOM     27  C   UNL     1     111.787 128.798 136.291  0.00  0.00    +0.000 C 
ATOM     28  C   UNL     1     112.544 128.979 136.019  0.00  0.00    +0.000 C 
ATOM     29  C   UNL     1     112.322 127.718 137.059  0.00  0.00    +0.000 C 
ATOM     30  C   UNL     1     113.190 128.530 136.266  0.00  0.00    +0.000 C 
BRANCH  30  32
ATOM     31  O   UNL     1     114.363 128.165 135.535  0.00  0.00    +0.000 OA
ATOM     32  C   UNL     1     113.948 128.712 135.994  0.00  0.00    +0.000 C 
ENDBRANCH  30  32
BRANCH  26  33
ATOM     33  O   UNL     1     110.919 127.985 137.084  0.00  0.00    +0.000 OA
BRANCH  33  38
ATOM     34  O   UNL     1     110.639 127.291 135.866  0.00  0.00    +0.000 OA
ATOM     35  O   UNL     1     109.343 127.817 137.541  0.00  0.00    +0.000 OA
ATOM     36  O   UNL     1     108.275 127.040 136.553  0.00  0.00    +0.000 OA
ATOM     37  O   UNL     1     108.784 126.430 135.106  0.00  0.00    +0.000 OA
ATOM     38  C   UNL     1     110.385 127.596 136.589  0.00  0.00    +0.000 C 
ATOM     39  C   UNL     1     109.597 127.512 136.818  0.00  0.00    +0.000 C 
ATOM     40  C   UNL     1     109.063 127.123 136.324  0.00  0.00    +0.000 C 
ATOM     41  C   UNL     1     109.318 126.819 135.600  0.00  0.00    +0.000 C 
ATOM     42  C   UNL     1     110.105 126.903 135.371  0.00  0.00    +0.000 C 
BRANCH  42  44
ATOM     43  O   UNL     1     110.706 125.851 134.613  0.00  0.00    +0.000 OA
ATOM     44  C   UNL     1     110.360 126.598 134.648  0.00  0.00    +0.000 C 
ENDBRANCH  42  44
ENDBRANCH  33  38
ENDBRANCH  26  33
ENDBRANCH   1  29
TORSDOF 7
ENDMDL
MODEL 2
REMARK VINA RESULT:      -9.8      2.257      4.230
REMARK  Name = 44259144
REMARK  7 active torsions:
REMARK  status: ('A' for Active; 'I' for Inactive)
REMARK    1  A    between atoms: O_1  and  C_18
REMARK    2  A    between atoms: O_1  and  C_21
REMARK    3  A    between atoms: O_5  and  C_23
REMARK    4  A    between atoms: O_5  and  C_30
REMARK    5  A    between atoms: C_24  and  C_28
REMARK    6  A    between atoms: C_27  and  C_29
REMARK    7  A    between atoms: C_31  and  C_34
REMARK                            x       y       z     vdW  Elec       q    Type
REMARK                         _______ _______ _______ _____ _____    ______ ____
ROOT
ATOM      1  O   UNL     1     111.526 126.381 138.985  0.00  0.00    +0.000 OA
ENDROOT
BRANCH   1   6
ATOM      2  O   UNL     1     113.678 126.202 138.668  0.00  0.00    +0.000 OA
ATOM      3  O   UNL     1     111.572 125.244 137.790  0.00  0.00    +0.000 OA
ATOM      4  O   UNL     1     112.302 124.407 136.869  0.00  0.00    +0.000 OA
ATOM      5  O   UNL     1     115.219 124.543 136.837  0.00  0.00    +0.000 OA
ATOM      6  C   UNL     1     112.251 126.132 138.680  0.00  0.00    +0.000 A 
ATOM      7  C   UNL     1     112.953 126.452 138.973  0.00  0.00    +0.000 A 
ATOM      8  C   UNL     1     112.274 125.564 138.083  0.00  0.00    +0.000 A 
ATOM      9  C   UNL     1     112.999 125.314 137.778  0.00  0.00    +0.000 A 
ATOM     10  C   UNL     1     113.701 125.633 138.070  0.00  0.00    +0.000 A 
ATOM     11  C   UNL     1     113.010 124.721 137.156  0.00  0.00    +0.000 A 
ATOM     12  C   UNL     1     114.463 125.382 137.762  0.00  0.00    +0.000 A 
ATOM     13  C   UNL     1     113.762 124.458 136.835  0.00  0.00    +0.000 A 
ATOM     14  C   UNL     1     114.493 124.791 137.139  0.00  0.00    +0.000 A 
BRANCH   7  17
ATOM     15  O   UNL     1     112.982 129.192 139.785  0.00  0.00    +0.000 OA
ATOM     16  O   UNL     1     112.863 128.726 141.363  0.00  0.00    +0.000 OA
ATOM     17  C   UNL     1     112.931 127.020 139.570  0.00  0.00    +0.000 A 
ATOM     18  C   UNL     1     112.968 127.822 139.379  0.00  0.00    +0.000 A 
ATOM     19  C   UNL     1     112.871 126.787 140.359  0.00  0.00    +0.000 A 
ATOM     20  C   UNL     1     112.945 128.390 139.976  0.00  0.00    +0.000 A 
ATOM     21  C   UNL     1     112.848 127.355 140.957  0.00  0.00    +0.000 A 
ATOM     22  C   UNL     1     112.886 128.157 140.765  0.00  0.00    +0.000 A 
ENDBRANCH   7  17
ENDBRANCH   1   6
BRANCH   1  29
ATOM     23  O   UNL     1     111.140 127.145 137.840  0.00  0.00    +0.000 OA
ATOM     24  O   UNL     1     108.775 126.525 138.225  0.00  0.00    +0.000 OA
ATOM     25  O   UNL     1     109.177 127.495 136.953  0.00  0.00    +0.000 OA
ATOM     26  C   UNL     1     110.150 126.453 138.605  0.00  0.00    +0.000 C 
ATOM     27  C   UNL     1     109.563 126.732 138.097  0.00  0.00    +0.000 C 
ATOM     28  C   UNL     1     109.764 127.216 137.461  0.00  0.00    +0.000 C 
ATOM     29  C   UNL     1     110.939 126.659 138.477  0.00  0.00    +0.000 C 
ATOM     30  C   UNL     1     110.552 127.423 137.333  0.00  0.00    +0.000 C 
BRANCH  30  32
ATOM     31  O   UNL     1     111.119 128.636 136.833  0.00  0.00    +0.000 OA
ATOM     32  C   UNL     1     110.754 127.908 136.697  0.00  0.00    +0.000 C 
ENDBRANCH  30  32
BRANCH  26  33
ATOM     33  O   UNL     1     109.950 125.968 139.241  0.00  0.00    +0.000 OA
BRANCH  33  38
ATOM     34  O   UNL     1     109.602 127.117 140.017  0.00  0.00    +0.000 OA
ATOM     35  O   UNL     1     109.355 124.987 140.428  0.00  0.00    +0.000 OA
ATOM     36  O   UNL     1     108.709 125.646 141.796  0.00  0.00    +0.000 OA
ATOM     37  O   UNL     1     108.659 127.286 141.977  0.00  0.00    +0.000 OA
ATOM     38  C   UNL     1     109.627 126.297 139.925  0.00  0.00    +0.000 C 
ATOM     39  C   UNL     1     109.329 125.807 140.519  0.00  0.00    +0.000 C 
ATOM     40  C   UNL     1     109.007 126.136 141.203  0.00  0.00    +0.000 C 
ATOM     41  C   UNL     1     108.982 126.956 141.293  0.00  0.00    +0.000 C 
ATOM     42  C   UNL     1     109.279 127.446 140.701  0.00  0.00    +0.000 C 
BRANCH  42  44
ATOM     43  O   UNL     1     108.669 128.706 140.412  0.00  0.00    +0.000 OA
ATOM     44  C   UNL     1     109.254 128.266 140.791  0.00  0.00    +0.000 C 
ENDBRANCH  42  44
ENDBRANCH  33  38
ENDBRANCH  26  33
ENDBRANCH   1  29
TORSDOF 7
ENDMDL
MODEL 3
REMARK VINA RESULT:      -9.8      1.543      3.644
REMARK  Name = 44259144
REMARK  7 active torsions:
REMARK  status: ('A' for Active; 'I' for Inactive)
REMARK    1  A    between atoms: O_1  and  C_18
REMARK    2  A    between atoms: O_1  and  C_21
REMARK    3  A    between atoms: O_5  and  C_23
REMARK    4  A    between atoms: O_5  and  C_30
REMARK    5  A    between atoms: C_24  and  C_28
REMARK    6  A    between atoms: C_27  and  C_29
REMARK    7  A    between atoms: C_31  and  C_34
REMARK                            x       y       z     vdW  Elec       q    Type
REMARK                         _______ _______ _______ _____ _____    ______ ____
ROOT
ATOM      1  O   UNL     1     112.462 127.677 138.147  0.00  0.00    +0.000 OA
ENDROOT
BRANCH   1   6
ATOM      2  O   UNL     1     113.390 129.653 138.135  0.00  0.00    +0.000 OA
ATOM      3  O   UNL     1     112.970 127.792 139.713  0.00  0.00    +0.000 OA
ATOM      4  O   UNL     1     113.619 128.513 140.781  0.00  0.00    +0.000 OA
ATOM      5  O   UNL     1     114.713 131.166 140.242  0.00  0.00    +0.000 OA
ATOM      6  C   UNL     1     112.856 128.355 138.405  0.00  0.00    +0.000 A 
ATOM      7  C   UNL     1     112.996 128.975 137.878  0.00  0.00    +0.000 A 
ATOM      8  C   UNL     1     113.110 128.412 139.187  0.00  0.00    +0.000 A 
ATOM      9  C   UNL     1     113.504 129.090 139.444  0.00  0.00    +0.000 A 
ATOM     10  C   UNL     1     113.644 129.711 138.919  0.00  0.00    +0.000 A 
ATOM     11  C   UNL     1     113.764 129.139 140.262  0.00  0.00    +0.000 A 
ATOM     12  C   UNL     1     114.053 130.422 139.174  0.00  0.00    +0.000 A 
ATOM     13  C   UNL     1     114.174 129.842 140.535  0.00  0.00    +0.000 A 
ATOM     14  C   UNL     1     114.320 130.487 139.988  0.00  0.00    +0.000 A 
BRANCH   7  17
ATOM     15  O   UNL     1     111.076 129.575 135.848  0.00  0.00    +0.000 OA
ATOM     16  O   UNL     1     111.981 128.745 134.746  0.00  0.00    +0.000 OA
ATOM     17  C   UNL     1     112.742 128.918 137.096  0.00  0.00    +0.000 A 
ATOM     18  C   UNL     1     112.036 129.275 136.863  0.00  0.00    +0.000 A 
ATOM     19  C   UNL     1     113.195 128.503 136.545  0.00  0.00    +0.000 A 
ATOM     20  C   UNL     1     111.782 129.218 136.081  0.00  0.00    +0.000 A 
ATOM     21  C   UNL     1     112.941 128.445 135.761  0.00  0.00    +0.000 A 
ATOM     22  C   UNL     1     112.235 128.803 135.530  0.00  0.00    +0.000 A 
ENDBRANCH   7  17
ENDBRANCH   1   6
BRANCH   1  29
ATOM     23  O   UNL     1     111.228 127.955 138.813  0.00  0.00    +0.000 OA
ATOM     24  O   UNL     1     110.904 125.536 139.221  0.00  0.00    +0.000 OA
ATOM     25  O   UNL     1     109.779 126.620 139.750  0.00  0.00    +0.000 OA
ATOM     26  C   UNL     1     111.683 126.606 138.684  0.00  0.00    +0.000 C 
ATOM     27  C   UNL     1     111.012 126.342 139.085  0.00  0.00    +0.000 C 
ATOM     28  C   UNL     1     110.450 126.884 139.349  0.00  0.00    +0.000 C 
ATOM     29  C   UNL     1     111.792 127.412 138.548  0.00  0.00    +0.000 C 
ATOM     30  C   UNL     1     110.558 127.690 139.213  0.00  0.00    +0.000 C 
BRANCH  30  32
ATOM     31  O   UNL     1     109.544 128.657 138.932  0.00  0.00    +0.000 OA
ATOM     32  C   UNL     1     109.996 128.233 139.478  0.00  0.00    +0.000 C 
ENDBRANCH  30  32
BRANCH  26  33
ATOM     33  O   UNL     1     112.246 126.064 138.419  0.00  0.00    +0.000 OA
BRANCH  33  38
ATOM     34  O   UNL     1     111.399 125.721 137.320  0.00  0.00    +0.000 OA
ATOM     35  O   UNL     1     113.358 124.959 137.906  0.00  0.00    +0.000 OA
ATOM     36  O   UNL     1     113.067 124.064 136.551  0.00  0.00    +0.000 OA
ATOM     37  O   UNL     1     111.664 124.274 135.709  0.00  0.00    +0.000 OA
ATOM     38  C   UNL     1     112.100 125.617 137.742  0.00  0.00    +0.000 C 
ATOM     39  C   UNL     1     112.657 125.064 137.485  0.00  0.00    +0.000 C 
ATOM     40  C   UNL     1     112.511 124.616 136.807  0.00  0.00    +0.000 C 
ATOM     41  C   UNL     1     111.809 124.722 136.386  0.00  0.00    +0.000 C 
ATOM     42  C   UNL     1     111.254 125.274 136.643  0.00  0.00    +0.000 C 
BRANCH  42  44
ATOM     43  O   UNL     1     110.416 126.083 135.815  0.00  0.00    +0.000 OA
ATOM     44  C   UNL     1     110.552 125.379 136.222  0.00  0.00    +0.000 C 
ENDBRANCH  42  44
ENDBRANCH  33  38
ENDBRANCH  26  33
ENDBRANCH   1  29
TORSDOF 7
ENDMDL
MODEL 4
REMARK VINA RESULT:      -9.8      1.679      3.812
REMARK  Name = 44259144
REMARK  7 active torsions:
REMARK  status: ('A' for Active; 'I' for Inactive)
REMARK    1  A    between atoms: O_1  and  C_18
REMARK    2  A    between atoms: O_1  and  C_21
REMARK    3  A    between atoms: O_5  and  C_23
REMARK    4  A    between atoms: O_5  and  C_30
REMARK    5  A    between atoms: C_24  and  C_28
REMARK    6  A    between atoms: C_27  and  C_29
REMARK    7  A    between atoms: C_31  and  C_34
REMARK                            x       y       z     vdW  Elec       q    Type
REMARK                         _______ _______ _______ _____ _____    ______ ____
ROOT
ATOM      1  O   UNL     1     111.196 127.774 136.938  0.00  0.00    +0.000 OA
ENDROOT
BRANCH   1   6
ATOM      2  O   UNL     1     112.747 126.392 136.269  0.00  0.00    +0.000 OA
ATOM      3  O   UNL     1     110.677 126.367 137.625  0.00  0.00    +0.000 OA
ATOM      4  O   UNL     1     110.825 124.954 137.877  0.00  0.00    +0.000 OA
ATOM      5  O   UNL     1     113.111 123.540 136.736  0.00  0.00    +0.000 OA
ATOM      6  C   UNL     1     111.627 127.079 136.829  0.00  0.00    +0.000 A 
ATOM      7  C   UNL     1     112.317 127.087 136.377  0.00  0.00    +0.000 A 
ATOM      8  C   UNL     1     111.367 126.376 137.172  0.00  0.00    +0.000 A 
ATOM      9  C   UNL     1     111.797 125.680 137.064  0.00  0.00    +0.000 A 
ATOM     10  C   UNL     1     112.487 125.688 136.612  0.00  0.00    +0.000 A 
ATOM     11  C   UNL     1     111.516 124.953 137.427  0.00  0.00    +0.000 A 
ATOM     12  C   UNL     1     112.944 124.970 136.491  0.00  0.00    +0.000 A 
ATOM     13  C   UNL     1     111.960 124.225 137.317  0.00  0.00    +0.000 A 
ATOM     14  C   UNL     1     112.678 124.234 136.846  0.00  0.00    +0.000 A 
BRANCH   7  17
ATOM     15  O   UNL     1     114.038 129.369 136.408  0.00  0.00    +0.000 OA
ATOM     16  O   UNL     1     113.357 129.902 135.003  0.00  0.00    +0.000 OA
ATOM     17  C   UNL     1     112.577 127.790 136.034  0.00  0.00    +0.000 A 
ATOM     18  C   UNL     1     113.177 128.228 136.393  0.00  0.00    +0.000 A 
ATOM     19  C   UNL     1     112.236 128.057 135.331  0.00  0.00    +0.000 A 
ATOM     20  C   UNL     1     113.437 128.931 136.050  0.00  0.00    +0.000 A 
ATOM     21  C   UNL     1     112.497 128.761 134.987  0.00  0.00    +0.000 A 
ATOM     22  C   UNL     1     113.097 129.198 135.347  0.00  0.00    +0.000 A 
ENDBRANCH   7  17
ENDBRANCH   1   6
BRANCH   1  29
ATOM     23  O   UNL     1     111.583 127.987 138.297  0.00  0.00    +0.000 OA
ATOM     24  O   UNL     1     109.336 128.898 138.793  0.00  0.00    +0.000 OA
ATOM     25  O   UNL     1     110.471 128.807 139.986  0.00  0.00    +0.000 OA
ATOM     26  C   UNL     1     110.266 128.336 137.865  0.00  0.00    +0.000 C 
ATOM     27  C   UNL     1     110.085 128.594 138.628  0.00  0.00    +0.000 C 
ATOM     28  C   UNL     1     110.652 128.549 139.224  0.00  0.00    +0.000 C 
ATOM     29  C   UNL     1     111.015 128.033 137.700  0.00  0.00    +0.000 C 
ATOM     30  C   UNL     1     111.401 128.246 139.059  0.00  0.00    +0.000 C 
BRANCH  30  32
ATOM     31  O   UNL     1     112.683 128.608 139.576  0.00  0.00    +0.000 OA
ATOM     32  C   UNL     1     111.969 128.200 139.655  0.00  0.00    +0.000 C 
ENDBRANCH  30  32
BRANCH  26  33
ATOM     33  O   UNL     1     109.698 128.381 137.269  0.00  0.00    +0.000 OA
BRANCH  33  38
ATOM     34  O   UNL     1     109.956 129.780 137.129  0.00  0.00    +0.000 OA
ATOM     35  O   UNL     1     108.543 128.477 136.095  0.00  0.00    +0.000 OA
ATOM     36  O   UNL     1     108.223 129.924 135.369  0.00  0.00    +0.000 OA
ATOM     37  O   UNL     1     109.058 131.274 135.816  0.00  0.00    +0.000 OA
ATOM     38  C   UNL     1     109.538 129.104 136.906  0.00  0.00    +0.000 C 
ATOM     39  C   UNL     1     108.960 129.153 136.318  0.00  0.00    +0.000 C 
ATOM     40  C   UNL     1     108.800 129.876 135.955  0.00  0.00    +0.000 C 
ATOM     41  C   UNL     1     109.218 130.551 136.180  0.00  0.00    +0.000 C 
ATOM     42  C   UNL     1     109.796 130.503 136.766  0.00  0.00    +0.000 C 
BRANCH  42  44
ATOM     43  O   UNL     1     111.020 131.237 136.829  0.00  0.00    +0.000 OA
ATOM     44  C   UNL     1     110.214 131.178 136.990  0.00  0.00    +0.000 C 
ENDBRANCH  42  44
ENDBRANCH  33  38
ENDBRANCH  26  33
ENDBRANCH   1  29
TORSDOF 7
ENDMDL
MODEL 5
REMARK VINA RESULT:      -9.7      2.419      4.676
REMARK  Name = 44259144
REMARK  7 active torsions:
REMARK  status: ('A' for Active; 'I' for Inactive)
REMARK    1  A    between atoms: O_1  and  C_18
REMARK    2  A    between atoms: O_1  and  C_21
REMARK    3  A    between atoms: O_5  and  C_23
REMARK    4  A    between atoms: O_5  and  C_30
REMARK    5  A    between atoms: C_24  and  C_28
REMARK    6  A    between atoms: C_27  and  C_29
REMARK    7  A    between atoms: C_31  and  C_34
REMARK                            x       y       z     vdW  Elec       q    Type
REMARK                         _______ _______ _______ _____ _____    ______ ____
ROOT
ATOM      1  O   UNL     1     111.200 129.191 136.961  0.00  0.00    +0.000 OA
ENDROOT
BRANCH   1   6
ATOM      2  O   UNL     1     110.669 127.477 135.719  0.00  0.00    +0.000 OA
ATOM      3  O   UNL     1     112.108 128.005 137.662  0.00  0.00    +0.000 OA
ATOM      4  O   UNL     1     112.556 126.636 137.739  0.00  0.00    +0.000 OA
ATOM      5  O   UNL     1     111.529 124.696 135.813  0.00  0.00    +0.000 OA
ATOM      6  C   UNL     1     111.174 128.422 136.664  0.00  0.00    +0.000 A 
ATOM      7  C   UNL     1     110.694 128.246 136.016  0.00  0.00    +0.000 A 
ATOM      8  C   UNL     1     111.628 127.829 137.014  0.00  0.00    +0.000 A 
ATOM      9  C   UNL     1     111.602 127.060 136.717  0.00  0.00    +0.000 A 
ATOM     10  C   UNL     1     111.123 126.883 136.070  0.00  0.00    +0.000 A 
ATOM     11  C   UNL     1     112.079 126.450 137.091  0.00  0.00    +0.000 A 
ATOM     12  C   UNL     1     111.087 126.086 135.751  0.00  0.00    +0.000 A 
ATOM     13  C   UNL     1     112.056 125.647 136.786  0.00  0.00    +0.000 A 
ATOM     14  C   UNL     1     111.557 125.464 136.112  0.00  0.00    +0.000 A 
BRANCH   7  17
ATOM     15  O   UNL     1     108.322 129.838 135.955  0.00  0.00    +0.000 OA
ATOM     16  O   UNL     1     108.879 130.618 134.612  0.00  0.00    +0.000 OA
ATOM     17  C   UNL     1     110.241 128.839 135.665  0.00  0.00    +0.000 A 
ATOM     18  C   UNL     1     109.508 129.042 135.985  0.00  0.00    +0.000 A 
ATOM     19  C   UNL     1     110.520 129.228 134.994  0.00  0.00    +0.000 A 
ATOM     20  C   UNL     1     109.054 129.634 135.635  0.00  0.00    +0.000 A 
ATOM     21  C   UNL     1     110.066 129.822 134.643  0.00  0.00    +0.000 A 
ATOM     22  C   UNL     1     109.333 130.024 134.963  0.00  0.00    +0.000 A 
ENDBRANCH   7  17
ENDBRANCH   1   6
BRANCH   1  29
ATOM     23  O   UNL     1     112.506 129.491 136.465  0.00  0.00    +0.000 OA
ATOM     24  O   UNL     1     112.934 130.909 138.448  0.00  0.00    +0.000 OA
ATOM     25  O   UNL     1     114.096 130.736 137.291  0.00  0.00    +0.000 OA
ATOM     26  C   UNL     1     112.067 130.050 137.705  0.00  0.00    +0.000 C 
ATOM     27  C   UNL     1     112.791 130.436 137.787  0.00  0.00    +0.000 C 
ATOM     28  C   UNL     1     113.373 130.350 137.209  0.00  0.00    +0.000 C 
ATOM     29  C   UNL     1     111.924 129.577 137.044  0.00  0.00    +0.000 C 
ATOM     30  C   UNL     1     113.230 129.878 136.548  0.00  0.00    +0.000 C 
BRANCH  30  32
ATOM     31  O   UNL     1     113.647 129.996 135.186  0.00  0.00    +0.000 OA
ATOM     32  C   UNL     1     113.811 129.791 135.969  0.00  0.00    +0.000 C 
ENDBRANCH  30  32
BRANCH  26  33
ATOM     33  O   UNL     1     111.485 130.136 138.283  0.00  0.00    +0.000 OA
BRANCH  33  38
ATOM     34  O   UNL     1     111.157 131.425 137.762  0.00  0.00    +0.000 OA
ATOM     35  O   UNL     1     110.314 130.304 139.433  0.00  0.00    +0.000 OA
ATOM     36  O   UNL     1     109.400 131.677 139.486  0.00  0.00    +0.000 OA
ATOM     37  O   UNL     1     109.658 132.882 138.389  0.00  0.00    +0.000 OA
ATOM     38  C   UNL     1     111.028 130.822 138.310  0.00  0.00    +0.000 C 
ATOM     39  C   UNL     1     110.442 130.907 138.885  0.00  0.00    +0.000 C 
ATOM     40  C   UNL     1     109.986 131.593 138.912  0.00  0.00    +0.000 C 
ATOM     41  C   UNL     1     110.115 132.196 138.363  0.00  0.00    +0.000 C 
ATOM     42  C   UNL     1     110.700 132.112 137.788  0.00  0.00    +0.000 C 
BRANCH  42  44
ATOM     43  O   UNL     1     110.620 132.606 136.450  0.00  0.00    +0.000 OA
ATOM     44  C   UNL     1     110.830 132.714 137.239  0.00  0.00    +0.000 C 
ENDBRANCH  42  44
ENDBRANCH  33  38
ENDBRANCH  26  33
ENDBRANCH   1  29
TORSDOF 7
ENDMDL
MODEL 6
REMARK VINA RESULT:      -9.7      1.563      4.508
REMARK  Name = 44259144
REMARK  7 active torsions:
REMARK  status: ('A' for Active; 'I' for Inactive)
REMARK    1  A    between atoms: O_1  and  C_18
REMARK    2  A    between atoms: O_1  and  C_21
REMARK    3  A    between atoms: O_5  and  C_23
REMARK    4  A    between atoms: O_5  and  C_30
REMARK    5  A    between atoms: C_24  and  C_28
REMARK    6  A    between atoms: C_27  and  C_29
REMARK    7  A    between atoms: C_31  and  C_34
REMARK                            x       y       z     vdW  Elec       q    Type
REMARK                         _______ _______ _______ _____ _____    ______ ____
ROOT
ATOM      1  O   UNL     1     112.232 127.452 137.903  0.00  0.00    +0.000 OA
ENDROOT
BRANCH   1   6
ATOM      2  O   UNL     1     112.458 125.293 138.132  0.00  0.00    +0.000 OA
ATOM      3  O   UNL     1     111.660 126.923 136.448  0.00  0.00    +0.000 OA
ATOM      4  O   UNL     1     111.343 125.859 135.527  0.00  0.00    +0.000 OA
ATOM      5  O   UNL     1     111.843 123.095 136.323  0.00  0.00    +0.000 OA
ATOM      6  C   UNL     1     112.212 126.644 137.737  0.00  0.00    +0.000 A 
ATOM      7  C   UNL     1     112.478 126.101 138.298  0.00  0.00    +0.000 A 
ATOM      8  C   UNL     1     111.927 126.380 137.010  0.00  0.00    +0.000 A 
ATOM      9  C   UNL     1     111.907 125.572 136.843  0.00  0.00    +0.000 A 
ATOM     10  C   UNL     1     112.173 125.028 137.404  0.00  0.00    +0.000 A 
ATOM     11  C   UNL     1     111.607 125.308 136.082  0.00  0.00    +0.000 A 
ATOM     12  C   UNL     1     112.158 124.184 137.243  0.00  0.00    +0.000 A 
ATOM     13  C   UNL     1     111.584 124.468 135.903  0.00  0.00    +0.000 A 
ATOM     14  C   UNL     1     111.861 123.903 136.487  0.00  0.00    +0.000 A 
BRANCH   7  17
ATOM     15  O   UNL     1     112.046 126.689 141.061  0.00  0.00    +0.000 OA
ATOM     16  O   UNL     1     113.621 127.158 141.208  0.00  0.00    +0.000 OA
ATOM     17  C   UNL     1     112.764 126.365 139.025  0.00  0.00    +0.000 A 
ATOM     18  C   UNL     1     112.262 126.395 139.680  0.00  0.00    +0.000 A 
ATOM     19  C   UNL     1     113.551 126.599 139.098  0.00  0.00    +0.000 A 
ATOM     20  C   UNL     1     112.547 126.659 140.407  0.00  0.00    +0.000 A 
ATOM     21  C   UNL     1     113.837 126.864 139.826  0.00  0.00    +0.000 A 
ATOM     22  C   UNL     1     113.335 126.893 140.480  0.00  0.00    +0.000 A 
ENDBRANCH   7  17
ENDBRANCH   1   6
BRANCH   1  29
ATOM     23  O   UNL     1     110.825 127.601 138.109  0.00  0.00    +0.000 OA
ATOM     24  O   UNL     1     110.919 129.862 137.105  0.00  0.00    +0.000 OA
ATOM     25  O   UNL     1     109.482 129.257 137.645  0.00  0.00    +0.000 OA
ATOM     26  C   UNL     1     111.576 128.657 137.504  0.00  0.00    +0.000 C 
ATOM     27  C   UNL     1     110.888 129.108 137.440  0.00  0.00    +0.000 C 
ATOM     28  C   UNL     1     110.169 128.806 137.709  0.00  0.00    +0.000 C 
ATOM     29  C   UNL     1     111.545 127.904 137.838  0.00  0.00    +0.000 C 
ATOM     30  C   UNL     1     110.138 128.053 138.044  0.00  0.00    +0.000 C 
BRANCH  30  32
ATOM     31  O   UNL     1     109.335 127.537 139.107  0.00  0.00    +0.000 OA
ATOM     32  C   UNL     1     109.420 127.750 138.314  0.00  0.00    +0.000 C 
ENDBRANCH  30  32
BRANCH  26  33
ATOM     33  O   UNL     1     112.294 128.959 137.234  0.00  0.00    +0.000 OA
BRANCH  33  38
ATOM     34  O   UNL     1     112.467 129.653 138.471  0.00  0.00    +0.000 OA
ATOM     35  O   UNL     1     113.706 129.603 136.675  0.00  0.00    +0.000 OA
ATOM     36  O   UNL     1     114.585 130.620 137.632  0.00  0.00    +0.000 OA
ATOM     37  O   UNL     1     114.052 130.992 139.149  0.00  0.00    +0.000 OA
ATOM     38  C   UNL     1     112.733 129.467 137.713  0.00  0.00    +0.000 C 
ATOM     39  C   UNL     1     113.440 129.790 137.433  0.00  0.00    +0.000 C 
ATOM     40  C   UNL     1     113.880 130.298 137.912  0.00  0.00    +0.000 C 
ATOM     41  C   UNL     1     113.612 130.484 138.670  0.00  0.00    +0.000 C 
ATOM     42  C   UNL     1     112.907 130.162 138.950  0.00  0.00    +0.000 C 
BRANCH  42  44
ATOM     43  O   UNL     1     112.058 130.923 139.812  0.00  0.00    +0.000 OA
ATOM     44  C   UNL     1     112.640 130.347 139.708  0.00  0.00    +0.000 C 
ENDBRANCH  42  44
ENDBRANCH  33  38
ENDBRANCH  26  33
ENDBRANCH   1  29
TORSDOF 7
ENDMDL
MODEL 7
REMARK VINA RESULT:      -9.7      1.821      3.218
REMARK  Name = 44259144
REMARK  7 active torsions:
REMARK  status: ('A' for Active; 'I' for Inactive)
REMARK    1  A    between atoms: O_1  and  C_18
REMARK    2  A    between atoms: O_1  and  C_21
REMARK    3  A    between atoms: O_5  and  C_23
REMARK    4  A    between atoms: O_5  and  C_30
REMARK    5  A    between atoms: C_24  and  C_28
REMARK    6  A    between atoms: C_27  and  C_29
REMARK    7  A    between atoms: C_31  and  C_34
REMARK                            x       y       z     vdW  Elec       q    Type
REMARK                         _______ _______ _______ _____ _____    ______ ____
ROOT
ATOM      1  O   UNL     1     111.598 127.821 137.343  0.00  0.00    +0.000 OA
ENDROOT
BRANCH   1   6
ATOM      2  O   UNL     1     112.314 125.880 138.037  0.00  0.00    +0.000 OA
ATOM      3  O   UNL     1     113.012 127.692 136.502  0.00  0.00    +0.000 OA
ATOM      4  O   UNL     1     114.213 126.973 136.152  0.00  0.00    +0.000 OA
ATOM      5  O   UNL     1     114.717 124.371 137.379  0.00  0.00    +0.000 OA
ATOM      6  C   UNL     1     112.073 127.152 137.434  0.00  0.00    +0.000 A 
ATOM      7  C   UNL     1     111.840 126.548 137.946  0.00  0.00    +0.000 A 
ATOM      8  C   UNL     1     112.779 127.088 137.014  0.00  0.00    +0.000 A 
ATOM      9  C   UNL     1     113.254 126.419 137.105  0.00  0.00    +0.000 A 
ATOM     10  C   UNL     1     113.022 125.815 137.617  0.00  0.00    +0.000 A 
ATOM     11  C   UNL     1     113.988 126.363 136.662  0.00  0.00    +0.000 A 
ATOM     12  C   UNL     1     113.507 125.114 137.721  0.00  0.00    +0.000 A 
ATOM     13  C   UNL     1     114.486 125.669 136.753  0.00  0.00    +0.000 A 
ATOM     14  C   UNL     1     114.244 125.041 137.286  0.00  0.00    +0.000 A 
BRANCH   7  17
ATOM     15  O   UNL     1     108.993 126.319 138.052  0.00  0.00    +0.000 OA
ATOM     16  O   UNL     1     109.012 126.806 139.629  0.00  0.00    +0.000 OA
ATOM     17  C   UNL     1     111.133 126.613 138.366  0.00  0.00    +0.000 A 
ATOM     18  C   UNL     1     110.416 126.434 137.999  0.00  0.00    +0.000 A 
ATOM     19  C   UNL     1     111.143 126.856 139.155  0.00  0.00    +0.000 A 
ATOM     20  C   UNL     1     109.710 126.498 138.419  0.00  0.00    +0.000 A 
ATOM     21  C   UNL     1     110.436 126.921 139.576  0.00  0.00    +0.000 A 
ATOM     22  C   UNL     1     109.720 126.742 139.208  0.00  0.00    +0.000 A 
ENDBRANCH   7  17
ENDBRANCH   1   6
BRANCH   1  29
ATOM     23  O   UNL     1     112.438 128.701 138.092  0.00  0.00    +0.000 OA
ATOM     24  O   UNL     1     111.822 130.568 136.588  0.00  0.00    +0.000 OA
ATOM     25  O   UNL     1     112.867 130.826 137.838  0.00  0.00    +0.000 OA
ATOM     26  C   UNL     1     111.710 129.195 136.965  0.00  0.00    +0.000 C 
ATOM     27  C   UNL     1     112.027 129.946 137.089  0.00  0.00    +0.000 C 
ATOM     28  C   UNL     1     112.550 130.075 137.714  0.00  0.00    +0.000 C 
ATOM     29  C   UNL     1     111.915 128.572 137.466  0.00  0.00    +0.000 C 
ATOM     30  C   UNL     1     112.755 129.453 138.215  0.00  0.00    +0.000 C 
BRANCH  30  32
ATOM     31  O   UNL     1     113.034 129.442 139.617  0.00  0.00    +0.000 OA
ATOM     32  C   UNL     1     113.278 129.581 138.840  0.00  0.00    +0.000 C 
ENDBRANCH  30  32
BRANCH  26  33
ATOM     33  O   UNL     1     111.187 129.065 136.341  0.00  0.00    +0.000 OA
BRANCH  33  38
ATOM     34  O   UNL     1     110.137 129.679 137.091  0.00  0.00    +0.000 OA
ATOM     35  O   UNL     1     110.133 128.773 135.106  0.00  0.00    +0.000 OA
ATOM     36  O   UNL     1     108.556 129.241 135.239  0.00  0.00    +0.000 OA
ATOM     37  O   UNL     1     108.034 130.000 136.608  0.00  0.00    +0.000 OA
ATOM     38  C   UNL     1     110.399 129.299 136.407  0.00  0.00    +0.000 C 
ATOM     39  C   UNL     1     109.871 129.153 135.789  0.00  0.00    +0.000 C 
ATOM     40  C   UNL     1     109.083 129.387 135.856  0.00  0.00    +0.000 C 
ATOM     41  C   UNL     1     108.822 129.767 136.541  0.00  0.00    +0.000 C 
ATOM     42  C   UNL     1     109.349 129.913 137.158  0.00  0.00    +0.000 C 
BRANCH  42  44
ATOM     43  O   UNL     1     108.892 129.851 138.511  0.00  0.00    +0.000 OA
ATOM     44  C   UNL     1     109.088 130.293 137.843  0.00  0.00    +0.000 C 
ENDBRANCH  42  44
ENDBRANCH  33  38
ENDBRANCH  26  33
ENDBRANCH   1  29
TORSDOF 7
ENDMDL
MODEL 8
REMARK VINA RESULT:      -9.7      1.846      4.554
REMARK  Name = 44259144
REMARK  7 active torsions:
REMARK  status: ('A' for Active; 'I' for Inactive)
REMARK    1  A    between atoms: O_1  and  C_18
REMARK    2  A    between atoms: O_1  and  C_21
REMARK    3  A    between atoms: O_5  and  C_23
REMARK    4  A    between atoms: O_5  and  C_30
REMARK    5  A    between atoms: C_24  and  C_28
REMARK    6  A    between atoms: C_27  and  C_29
REMARK    7  A    between atoms: C_31  and  C_34
REMARK                            x       y       z     vdW  Elec       q    Type
REMARK                         _______ _______ _______ _____ _____    ______ ____
ROOT
ATOM      1  O   UNL     1     111.751 127.532 137.680  0.00  0.00    +0.000 OA
ENDROOT
BRANCH   1   6
ATOM      2  O   UNL     1     112.122 129.270 136.414  0.00  0.00    +0.000 OA
ATOM      3  O   UNL     1     113.200 127.122 137.005  0.00  0.00    +0.000 OA
ATOM      4  O   UNL     1     114.312 127.406 136.131  0.00  0.00    +0.000 OA
ATOM      5  O   UNL     1     114.335 129.912 134.632  0.00  0.00    +0.000 OA
ATOM      6  C   UNL     1     112.116 128.043 137.145  0.00  0.00    +0.000 A 
ATOM      7  C   UNL     1     111.757 128.759 136.949  0.00  0.00    +0.000 A 
ATOM      8  C   UNL     1     112.840 127.838 136.808  0.00  0.00    +0.000 A 
ATOM      9  C   UNL     1     113.206 128.349 136.273  0.00  0.00    +0.000 A 
ATOM     10  C   UNL     1     112.847 129.065 136.076  0.00  0.00    +0.000 A 
ATOM     11  C   UNL     1     113.960 128.125 135.928  0.00  0.00    +0.000 A 
ATOM     12  C   UNL     1     113.217 129.607 135.521  0.00  0.00    +0.000 A 
ATOM     13  C   UNL     1     114.345 128.653 135.371  0.00  0.00    +0.000 A 
ATOM     14  C   UNL     1     113.971 129.398 135.166  0.00  0.00    +0.000 A 
BRANCH   7  17
ATOM     15  O   UNL     1     108.906 128.892 136.801  0.00  0.00    +0.000 OA
ATOM     16  O   UNL     1     108.860 129.580 138.299  0.00  0.00    +0.000 OA
ATOM     17  C   UNL     1     111.033 128.964 137.286  0.00  0.00    +0.000 A 
ATOM     18  C   UNL     1     110.331 128.825 136.875  0.00  0.00    +0.000 A 
ATOM     19  C   UNL     1     111.010 129.309 138.035  0.00  0.00    +0.000 A 
ATOM     20  C   UNL     1     109.608 129.030 137.212  0.00  0.00    +0.000 A 
ATOM     21  C   UNL     1     110.286 129.514 138.373  0.00  0.00    +0.000 A 
ATOM     22  C   UNL     1     109.585 129.375 137.961  0.00  0.00    +0.000 A 
ENDBRANCH   7  17
ENDBRANCH   1   6
BRANCH   1  29
ATOM     23  O   UNL     1     111.359 126.564 136.704  0.00  0.00    +0.000 OA
ATOM     24  O   UNL     1     111.682 124.758 138.366  0.00  0.00    +0.000 OA
ATOM     25  O   UNL     1     111.183 124.393 136.837  0.00  0.00    +0.000 OA
ATOM     26  C   UNL     1     111.717 126.145 138.023  0.00  0.00    +0.000 C 
ATOM     27  C   UNL     1     111.574 125.360 137.812  0.00  0.00    +0.000 C 
ATOM     28  C   UNL     1     111.325 125.177 137.048  0.00  0.00    +0.000 C 
ATOM     29  C   UNL     1     111.609 126.747 137.470  0.00  0.00    +0.000 C 
ATOM     30  C   UNL     1     111.217 125.779 136.494  0.00  0.00    +0.000 C 
BRANCH  30  32
ATOM     31  O   UNL     1     110.246 125.887 135.451  0.00  0.00    +0.000 OA
ATOM     32  C   UNL     1     110.967 125.597 135.729  0.00  0.00    +0.000 C 
ENDBRANCH  30  32
BRANCH  26  33
ATOM     33  O   UNL     1     111.966 126.328 138.787  0.00  0.00    +0.000 OA
BRANCH  33  38
ATOM     34  O   UNL     1     110.632 126.151 139.266  0.00  0.00    +0.000 OA
ATOM     35  O   UNL     1     112.460 126.723 140.311  0.00  0.00    +0.000 OA
ATOM     36  O   UNL     1     111.372 126.743 141.552  0.00  0.00    +0.000 OA
ATOM     37  O   UNL     1     109.791 126.369 141.268  0.00  0.00    +0.000 OA
ATOM     38  C   UNL     1     111.423 126.338 139.408  0.00  0.00    +0.000 C 
ATOM     39  C   UNL     1     111.669 126.536 140.170  0.00  0.00    +0.000 C 
ATOM     40  C   UNL     1     111.126 126.546 140.791  0.00  0.00    +0.000 C 
ATOM     41  C   UNL     1     110.335 126.358 140.648  0.00  0.00    +0.000 C 
ATOM     42  C   UNL     1     110.088 126.161 139.887  0.00  0.00    +0.000 C 
BRANCH  42  44
ATOM     43  O   UNL     1     108.831 126.472 139.282  0.00  0.00    +0.000 OA
ATOM     44  C   UNL     1     109.297 125.973 139.744  0.00  0.00    +0.000 C 
ENDBRANCH  42  44
ENDBRANCH  33  38
ENDBRANCH  26  33
ENDBRANCH   1  29
TORSDOF 7
ENDMDL
MODEL 9
REMARK VINA RESULT:      -9.7      1.630      4.697
REMARK  Name = 44259144
REMARK  7 active torsions:
REMARK  status: ('A' for Active; 'I' for Inactive)
REMARK    1  A    between atoms: O_1  and  C_18
REMARK    2  A    between atoms: O_1  and  C_21
REMARK    3  A    between atoms: O_5  and  C_23
REMARK    4  A    between atoms: O_5  and  C_30
REMARK    5  A    between atoms: C_24  and  C_28
REMARK    6  A    between atoms: C_27  and  C_29
REMARK    7  A    between atoms: C_31  and  C_34
REMARK                            x       y       z     vdW  Elec       q    Type
REMARK                         _______ _______ _______ _____ _____    ______ ____
ROOT
ATOM      1  O   UNL     1     112.526 127.683 137.799  0.00  0.00    +0.000 OA
ENDROOT
BRANCH   1   6
ATOM      2  O   UNL     1     112.535 126.217 136.183  0.00  0.00    +0.000 OA
ATOM      3  O   UNL     1     111.902 126.365 138.571  0.00  0.00    +0.000 OA
ATOM      4  O   UNL     1     111.477 124.987 138.574  0.00  0.00    +0.000 OA
ATOM      5  O   UNL     1     111.697 123.429 136.114  0.00  0.00    +0.000 OA
ATOM      6  C   UNL     1     112.425 126.975 137.389  0.00  0.00    +0.000 A 
ATOM      7  C   UNL     1     112.636 126.926 136.593  0.00  0.00    +0.000 A 
ATOM      8  C   UNL     1     112.113 126.316 137.775  0.00  0.00    +0.000 A 
ATOM      9  C   UNL     1     112.012 125.608 137.365  0.00  0.00    +0.000 A 
ATOM     10  C   UNL     1     112.222 125.558 136.569  0.00  0.00    +0.000 A 
ATOM     11  C   UNL     1     111.686 124.928 137.778  0.00  0.00    +0.000 A 
ATOM     12  C   UNL     1     112.122 124.826 136.130  0.00  0.00    +0.000 A 
ATOM     13  C   UNL     1     111.578 124.187 137.356  0.00  0.00    +0.000 A 
ATOM     14  C   UNL     1     111.797 124.136 136.527  0.00  0.00    +0.000 A 
BRANCH   7  17
ATOM     15  O   UNL     1     112.276 129.218 134.924  0.00  0.00    +0.000 OA
ATOM     16  O   UNL     1     113.885 129.561 135.048  0.00  0.00    +0.000 OA
ATOM     17  C   UNL     1     112.948 127.584 136.207  0.00  0.00    +0.000 A 
ATOM     18  C   UNL     1     112.456 128.072 135.758  0.00  0.00    +0.000 A 
ATOM     19  C   UNL     1     113.753 127.756 136.269  0.00  0.00    +0.000 A 
ATOM     20  C   UNL     1     112.768 128.730 135.373  0.00  0.00    +0.000 A 
ATOM     21  C   UNL     1     114.065 128.415 135.883  0.00  0.00    +0.000 A 
ATOM     22  C   UNL     1     113.573 128.902 135.435  0.00  0.00    +0.000 A 
ENDBRANCH   7  17
ENDBRANCH   1   6
BRANCH   1  29
ATOM     23  O   UNL     1     111.149 128.062 137.830  0.00  0.00    +0.000 OA
ATOM     24  O   UNL     1     111.453 128.986 140.105  0.00  0.00    +0.000 OA
ATOM     25  O   UNL     1     109.975 129.056 139.377  0.00  0.00    +0.000 OA
ATOM     26  C   UNL     1     111.990 128.335 138.953  0.00  0.00    +0.000 C 
ATOM     27  C   UNL     1     111.352 128.678 139.347  0.00  0.00    +0.000 C 
ATOM     28  C   UNL     1     110.613 128.713 138.983  0.00  0.00    +0.000 C 
ATOM     29  C   UNL     1     111.889 128.027 138.194  0.00  0.00    +0.000 C 
ATOM     30  C   UNL     1     110.511 128.405 138.225  0.00  0.00    +0.000 C 
BRANCH  30  32
ATOM     31  O   UNL     1     109.681 128.855 137.152  0.00  0.00    +0.000 OA
ATOM     32  C   UNL     1     109.772 128.440 137.860  0.00  0.00    +0.000 C 
ENDBRANCH  30  32
BRANCH  26  33
ATOM     33  O   UNL     1     112.729 128.299 139.316  0.00  0.00    +0.000 OA
BRANCH  33  38
ATOM     34  O   UNL     1     113.109 129.591 138.838  0.00  0.00    +0.000 OA
ATOM     35  O   UNL     1     113.801 128.447 140.562  0.00  0.00    +0.000 OA
ATOM     36  O   UNL     1     114.716 129.813 140.706  0.00  0.00    +0.000 OA
ATOM     37  O   UNL     1     114.558 131.031 139.604  0.00  0.00    +0.000 OA
ATOM     38  C   UNL     1     113.187 128.982 139.388  0.00  0.00    +0.000 C 
ATOM     39  C   UNL     1     113.723 129.056 140.012  0.00  0.00    +0.000 C 
ATOM     40  C   UNL     1     114.180 129.739 140.084  0.00  0.00    +0.000 C 
ATOM     41  C   UNL     1     114.101 130.348 139.532  0.00  0.00    +0.000 C 
ATOM     42  C   UNL     1     113.566 130.274 138.910  0.00  0.00    +0.000 C 
BRANCH  42  44
ATOM     43  O   UNL     1     112.747 131.218 138.216  0.00  0.00    +0.000 OA
ATOM     44  C   UNL     1     113.487 130.883 138.358  0.00  0.00    +0.000 C 
ENDBRANCH  42  44
ENDBRANCH  33  38
ENDBRANCH  26  33
ENDBRANCH   1  29
TORSDOF 7
ENDMDL
MODEL 10
REMARK VINA RESULT:      -9.6      1.626      3.852
REMARK  Name = 44259144
REMARK  7 active torsions:
REMARK  status: ('A' for Active; 'I' for Inactive)
REMARK    1  A    between atoms: O_1  and  C_18
REMARK    2  A    between atoms: O_1  and  C_21
REMARK    3  A    between atoms: O_5  and  C_23
REMARK    4  A    between atoms: O_5  and  C_30
REMARK    5  A    between atoms: C_24  and  C_28
REMARK    6  A    between atoms: C_27  and  C_29
REMARK    7  A    between atoms: C_31  and  C_34
REMARK                            x       y       z     vdW  Elec       q    Type
REMARK                         _______ _______ _______ _____ _____    ______ ____
ROOT
ATOM      1  O   UNL     1     111.482 127.281 137.126  0.00  0.00    +0.000 OA
ENDROOT
BRANCH   1   6
ATOM      2  O   UNL     1     113.576 126.815 137.529  0.00  0.00    +0.000 OA
ATOM      3  O   UNL     1     111.530 125.685 136.713  0.00  0.00    +0.000 OA
ATOM      4  O   UNL     1     112.243 124.440 136.561  0.00  0.00    +0.000 OA
ATOM      5  O   UNL     1     115.080 124.337 137.247  0.00  0.00    +0.000 OA
ATOM      6  C   UNL     1     112.188 126.860 137.191  0.00  0.00    +0.000 A 
ATOM      7  C   UNL     1     112.870 127.237 137.463  0.00  0.00    +0.000 A 
ATOM      8  C   UNL     1     112.212 126.062 136.985  0.00  0.00    +0.000 A 
ATOM      9  C   UNL     1     112.918 125.640 137.050  0.00  0.00    +0.000 A 
ATOM     10  C   UNL     1     113.600 126.016 137.322  0.00  0.00    +0.000 A 
ATOM     11  C   UNL     1     112.931 124.808 136.832  0.00  0.00    +0.000 A 
ATOM     12  C   UNL     1     114.341 125.588 137.394  0.00  0.00    +0.000 A 
ATOM     13  C   UNL     1     113.663 124.364 136.897  0.00  0.00    +0.000 A 
ATOM     14  C   UNL     1     114.373 124.756 137.180  0.00  0.00    +0.000 A 
BRANCH   7  17
ATOM     15  O   UNL     1     112.999 129.992 136.716  0.00  0.00    +0.000 OA
ATOM     16  O   UNL     1     112.774 130.430 138.291  0.00  0.00    +0.000 OA
ATOM     17  C   UNL     1     112.846 128.034 137.670  0.00  0.00    +0.000 A 
ATOM     18  C   UNL     1     112.934 128.614 137.090  0.00  0.00    +0.000 A 
ATOM     19  C   UNL     1     112.734 128.253 138.458  0.00  0.00    +0.000 A 
ATOM     20  C   UNL     1     112.911 129.412 137.296  0.00  0.00    +0.000 A 
ATOM     21  C   UNL     1     112.710 129.052 138.665  0.00  0.00    +0.000 A 
ATOM     22  C   UNL     1     112.798 129.631 138.084  0.00  0.00    +0.000 A 
ENDBRANCH   7  17
ENDBRANCH   1   6
BRANCH   1  29
ATOM     23  O   UNL     1     110.842 126.681 138.255  0.00  0.00    +0.000 OA
ATOM     24  O   UNL     1     108.664 126.808 137.087  0.00  0.00    +0.000 OA
ATOM     25  O   UNL     1     108.751 126.166 138.603  0.00  0.00    +0.000 OA
ATOM     26  C   UNL     1     110.073 127.045 137.106  0.00  0.00    +0.000 C 
ATOM     27  C   UNL     1     109.390 126.766 137.476  0.00  0.00    +0.000 C 
ATOM     28  C   UNL     1     109.433 126.445 138.234  0.00  0.00    +0.000 C 
ATOM     29  C   UNL     1     110.799 127.003 137.495  0.00  0.00    +0.000 C 
ATOM     30  C   UNL     1     110.159 126.403 138.623  0.00  0.00    +0.000 C 
BRANCH  30  32
ATOM     31  O   UNL     1     110.477 126.543 140.010  0.00  0.00    +0.000 OA
ATOM     32  C   UNL     1     110.203 126.082 139.382  0.00  0.00    +0.000 C 
ENDBRANCH  30  32
BRANCH  26  33
ATOM     33  O   UNL     1     110.030 127.366 136.348  0.00  0.00    +0.000 OA
BRANCH  33  38
ATOM     34  O   UNL     1     109.655 128.631 136.898  0.00  0.00    +0.000 OA
ATOM     35  O   UNL     1     109.769 127.952 134.827  0.00  0.00    +0.000 OA
ATOM     36  O   UNL     1     109.264 129.509 134.618  0.00  0.00    +0.000 OA
ATOM     37  O   UNL     1     109.020 130.480 135.930  0.00  0.00    +0.000 OA
ATOM     38  C   UNL     1     109.777 128.145 136.243  0.00  0.00    +0.000 C 
ATOM     39  C   UNL     1     109.647 128.438 135.483  0.00  0.00    +0.000 C 
ATOM     40  C   UNL     1     109.394 129.216 135.378  0.00  0.00    +0.000 C 
ATOM     41  C   UNL     1     109.273 129.701 136.034  0.00  0.00    +0.000 C 
ATOM     42  C   UNL     1     109.403 129.409 136.794  0.00  0.00    +0.000 C 
BRANCH  42  44
ATOM     43  O   UNL     1     108.584 129.833 137.886  0.00  0.00    +0.000 OA
ATOM     44  C   UNL     1     109.281 129.894 137.450  0.00  0.00    +0.000 C 
ENDBRANCH  42  44
ENDBRANCH  33  38
ENDBRANCH  26  33
ENDBRANCH   1  29
TORSDOF 7
ENDMDL
