MODEL 1
REMARK VINA RESULT:     -10.5      0.000      0.000
REMARK  Name = 
REMARK  12 active torsions:
REMARK  status: ('A' for Active; 'I' for Inactive)
REMARK    1  A    between atoms: C_5  and  O_21
REMARK    2  A    between atoms: C_9  and  C_11
REMARK    3  A    between atoms: C_14  and  O_17
REMARK    4  A    between atoms: O_21  and  C_25
REMARK    5  A    between atoms: C_24  and  O_30
REMARK    6  A    between atoms: C_27  and  C_31
REMARK    7  A    between atoms: O_30  and  C_37
REMARK    8  A    between atoms: C_31  and  O_32
REMARK    9  A    between atoms: O_32  and  C_49
REMARK   10  A    between atoms: C_35  and  O_41
REMARK   11  A    between atoms: O_41  and  C_43
REMARK   12  A    between atoms: C_51  and  C_52
REMARK                            x       y       z     vdW  Elec       q    Type
REMARK                         _______ _______ _______ _____ _____    ______ ____
ROOT
ATOM      1  C   UNL     1     112.798 129.579 135.256  0.00  0.00    +0.000 C 
ATOM      2  C   UNL     1     112.800 128.518 135.467  0.00  0.00    +0.000 C 
ATOM      3  C   UNL     1     112.934 128.440 136.538  0.00  0.00    +0.000 C 
ATOM      4  C   UNL     1     113.031 127.824 137.422  0.00  0.00    +0.000 C 
ATOM      5  O   UNL     1     113.030 128.884 137.211  0.00  0.00    +0.000 OA
ATOM      6  C   UNL     1     112.896 128.963 136.140  0.00  0.00    +0.000 C 
ATOM      7  O   UNL     1     112.713 129.434 134.612  0.00  0.00    +0.000 OA
ATOM      8  O   UNL     1     112.711 128.818 134.710  0.00  0.00    +0.000 OA
ENDROOT
BRANCH   4   9
ATOM      9  O   UNL     1     113.135 127.721 138.260  0.00  0.00    +0.000 OA
BRANCH   9  14
ATOM     10  C   UNL     1     113.033 129.037 140.694  0.00  0.00    +0.000 A 
ATOM     11  C   UNL     1     111.978 128.917 140.932  0.00  0.00    +0.000 A 
ATOM     12  C   UNL     1     111.324 128.383 140.247  0.00  0.00    +0.000 A 
ATOM     13  C   UNL     1     111.724 127.970 139.324  0.00  0.00    +0.000 A 
ATOM     14  C   UNL     1     112.777 128.090 139.086  0.00  0.00    +0.000 A 
ATOM     15  C   UNL     1     113.432 128.624 139.771  0.00  0.00    +0.000 A 
ATOM     16  C   UNL     1     111.579 129.330 141.855  0.00  0.00    +0.000 A 
ATOM     17  C   UNL     1     110.525 129.210 142.092  0.00  0.00    +0.000 A 
ATOM     18  C   UNL     1     109.870 128.676 141.408  0.00  0.00    +0.000 A 
ATOM     19  O   UNL     1     110.270 128.263 140.486  0.00  0.00    +0.000 OA
ATOM     20  O   UNL     1     112.131 129.781 142.433  0.00  0.00    +0.000 OA
ATOM     21  O   UNL     1     113.602 129.501 141.289  0.00  0.00    +0.000 OA
BRANCH  18  22
ATOM     22  C   UNL     1     108.790 128.553 141.652  0.00  0.00    +0.000 A 
ATOM     23  C   UNL     1     108.434 127.625 142.056  0.00  0.00    +0.000 A 
ATOM     24  C   UNL     1     107.393 127.506 142.291  0.00  0.00    +0.000 A 
ATOM     25  C   UNL     1     106.709 128.315 142.122  0.00  0.00    +0.000 A 
ATOM     26  C   UNL     1     107.066 129.244 141.717  0.00  0.00    +0.000 A 
ATOM     27  C   UNL     1     108.106 129.362 141.482  0.00  0.00    +0.000 A 
BRANCH  25  28
ATOM     28  O   UNL     1     105.848 128.217 142.317  0.00  0.00    +0.000 OA
ATOM     29  C   UNL     1     104.965 128.203 142.049  0.00  0.00    +0.000 C 
ENDBRANCH  25  28
ENDBRANCH  18  22
ENDBRANCH   9  14
ENDBRANCH   4   9
BRANCH   3  30
ATOM     30  O   UNL     1     112.962 127.425 136.948  0.00  0.00    +0.000 OA
BRANCH  30  35
ATOM     31  C   UNL     1     111.649 125.943 136.195  0.00  0.00    +0.000 C 
ATOM     32  C   UNL     1     111.478 124.885 136.048  0.00  0.00    +0.000 C 
ATOM     33  C   UNL     1     112.260 125.493 136.481  0.00  0.00    +0.000 C 
ATOM     34  C   UNL     1     113.221 125.563 136.973  0.00  0.00    +0.000 C 
ATOM     35  C   UNL     1     113.391 126.621 137.120  0.00  0.00    +0.000 C 
ATOM     36  O   UNL     1     112.609 126.012 136.687  0.00  0.00    +0.000 OA
ATOM     37  C   UNL     1     110.884 125.574 135.785  0.00  0.00    +0.000 C 
ATOM     38  O   UNL     1     110.728 125.056 135.676  0.00  0.00    +0.000 OA
ATOM     39  O   UNL     1     113.462 124.852 137.056  0.00  0.00    +0.000 OA
BRANCH  33  40
ATOM     40  O   UNL     1     111.819 124.455 136.197  0.00  0.00    +0.000 OA
BRANCH  40  41
ATOM     41  C   UNL     1     111.744 124.076 137.049  0.00  0.00    +0.000 C 
ATOM     42  C   UNL     1     112.062 123.309 137.092  0.00  0.00    +0.000 C 
ATOM     43  O   UNL     1     111.421 124.410 137.689  0.00  0.00    +0.000 OA
ENDBRANCH  40  41
ENDBRANCH  33  40
ENDBRANCH  30  35
ENDBRANCH   3  30
BRANCH   6  44
ATOM     44  C   UNL     1     112.894 129.643 136.001  0.00  0.00    +0.000 C 
BRANCH  44  45
ATOM     45  O   UNL     1     112.420 130.202 136.416  0.00  0.00    +0.000 OA
BRANCH  45  49
ATOM     46  C   UNL     1     109.861 132.189 138.259  0.00  0.00    +0.000 C 
ATOM     47  C   UNL     1     110.828 132.432 137.837  0.00  0.00    +0.000 C 
ATOM     48  C   UNL     1     111.189 131.510 137.400  0.00  0.00    +0.000 C 
ATOM     49  C   UNL     1     111.959 130.973 136.862  0.00  0.00    +0.000 C 
ATOM     50  O   UNL     1     110.993 130.731 137.284  0.00  0.00    +0.000 OA
ATOM     51  C   UNL     1     110.632 131.653 137.721  0.00  0.00    +0.000 C 
ATOM     52  O   UNL     1     109.727 132.817 138.500  0.00  0.00    +0.000 OA
ATOM     53  O   UNL     1     110.256 132.882 138.250  0.00  0.00    +0.000 OA
ATOM     54  O   UNL     1     112.088 131.649 136.983  0.00  0.00    +0.000 OA
BRANCH  51  55
ATOM     55  C   UNL     1     109.929 131.551 138.048  0.00  0.00    +0.000 C 
ATOM     56  O   UNL     1     109.710 131.021 138.720  0.00  0.00    +0.000 OA
ENDBRANCH  51  55
ENDBRANCH  45  49
ENDBRANCH  44  45
ENDBRANCH   6  44
TORSDOF 12
ENDMDL
MODEL 2
REMARK VINA RESULT:     -10.5      2.066      3.544
REMARK  Name = 
REMARK  12 active torsions:
REMARK  status: ('A' for Active; 'I' for Inactive)
REMARK    1  A    between atoms: C_5  and  O_21
REMARK    2  A    between atoms: C_9  and  C_11
REMARK    3  A    between atoms: C_14  and  O_17
REMARK    4  A    between atoms: O_21  and  C_25
REMARK    5  A    between atoms: C_24  and  O_30
REMARK    6  A    between atoms: C_27  and  C_31
REMARK    7  A    between atoms: O_30  and  C_37
REMARK    8  A    between atoms: C_31  and  O_32
REMARK    9  A    between atoms: O_32  and  C_49
REMARK   10  A    between atoms: C_35  and  O_41
REMARK   11  A    between atoms: O_41  and  C_43
REMARK   12  A    between atoms: C_51  and  C_52
REMARK                            x       y       z     vdW  Elec       q    Type
REMARK                         _______ _______ _______ _____ _____    ______ ____
ROOT
ATOM      1  C   UNL     1     114.247 129.486 136.125  0.00  0.00    +0.000 C 
ATOM      2  C   UNL     1     113.790 128.513 136.000  0.00  0.00    +0.000 C 
ATOM      3  C   UNL     1     112.917 128.523 136.640  0.00  0.00    +0.000 C 
ATOM      4  C   UNL     1     112.047 128.017 137.036  0.00  0.00    +0.000 C 
ATOM      5  O   UNL     1     112.504 128.989 137.161  0.00  0.00    +0.000 OA
ATOM      6  C   UNL     1     113.376 128.980 136.521  0.00  0.00    +0.000 C 
ATOM      7  O   UNL     1     114.719 129.301 135.693  0.00  0.00    +0.000 OA
ATOM      8  O   UNL     1     114.474 128.734 135.605  0.00  0.00    +0.000 OA
ENDROOT
BRANCH   4   9
ATOM      9  O   UNL     1     111.353 127.986 137.527  0.00  0.00    +0.000 OA
BRANCH   9  14
ATOM     10  C   UNL     1     109.365 129.686 138.435  0.00  0.00    +0.000 A 
ATOM     11  C   UNL     1     109.740 129.903 139.433  0.00  0.00    +0.000 A 
ATOM     12  C   UNL     1     110.672 129.457 139.772  0.00  0.00    +0.000 A 
ATOM     13  C   UNL     1     111.229 128.795 139.113  0.00  0.00    +0.000 A 
ATOM     14  C   UNL     1     110.854 128.578 138.117  0.00  0.00    +0.000 A 
ATOM     15  C   UNL     1     109.923 129.024 137.778  0.00  0.00    +0.000 A 
ATOM     16  C   UNL     1     109.183 130.565 140.092  0.00  0.00    +0.000 A 
ATOM     17  C   UNL     1     109.558 130.781 141.088  0.00  0.00    +0.000 A 
ATOM     18  C   UNL     1     110.490 130.336 141.427  0.00  0.00    +0.000 A 
ATOM     19  O   UNL     1     111.047 129.675 140.769  0.00  0.00    +0.000 OA
ATOM     20  O   UNL     1     108.396 130.941 139.805  0.00  0.00    +0.000 OA
ATOM     21  O   UNL     1     108.555 130.073 138.141  0.00  0.00    +0.000 OA
BRANCH  18  22
ATOM     22  C   UNL     1     110.874 130.559 142.449  0.00  0.00    +0.000 A 
ATOM     23  C   UNL     1     110.498 130.014 143.294  0.00  0.00    +0.000 A 
ATOM     24  C   UNL     1     110.869 130.228 144.279  0.00  0.00    +0.000 A 
ATOM     25  C   UNL     1     111.614 130.987 144.418  0.00  0.00    +0.000 A 
ATOM     26  C   UNL     1     111.990 131.532 143.573  0.00  0.00    +0.000 A 
ATOM     27  C   UNL     1     111.620 131.318 142.589  0.00  0.00    +0.000 A 
BRANCH  25  28
ATOM     28  O   UNL     1     111.920 131.164 145.233  0.00  0.00    +0.000 OA
ATOM     29  C   UNL     1     111.940 131.708 145.979  0.00  0.00    +0.000 C 
ENDBRANCH  25  28
ENDBRANCH  18  22
ENDBRANCH   9  14
ENDBRANCH   4   9
BRANCH   3  30
ATOM     30  O   UNL     1     112.315 127.609 136.648  0.00  0.00    +0.000 OA
BRANCH  30  35
ATOM     31  C   UNL     1     113.303 125.747 136.854  0.00  0.00    +0.000 C 
ATOM     32  C   UNL     1     113.268 124.685 136.654  0.00  0.00    +0.000 C 
ATOM     33  C   UNL     1     112.627 125.533 136.460  0.00  0.00    +0.000 C 
ATOM     34  C   UNL     1     111.712 125.934 136.044  0.00  0.00    +0.000 C 
ATOM     35  C   UNL     1     111.748 126.996 136.244  0.00  0.00    +0.000 C 
ATOM     36  O   UNL     1     112.389 126.147 136.438  0.00  0.00    +0.000 OA
ATOM     37  C   UNL     1     113.972 125.131 137.103  0.00  0.00    +0.000 C 
ATOM     38  O   UNL     1     114.025 124.586 137.038  0.00  0.00    +0.000 OA
ATOM     39  O   UNL     1     111.344 125.344 135.749  0.00  0.00    +0.000 OA
BRANCH  33  40
ATOM     40  O   UNL     1     112.857 124.396 136.388  0.00  0.00    +0.000 OA
BRANCH  40  41
ATOM     41  C   UNL     1     112.144 124.057 136.891  0.00  0.00    +0.000 C 
ATOM     42  C   UNL     1     111.793 123.387 136.546  0.00  0.00    +0.000 C 
ATOM     43  O   UNL     1     111.868 124.344 137.575  0.00  0.00    +0.000 OA
ENDBRANCH  40  41
ENDBRANCH  33  40
ENDBRANCH  30  35
ENDBRANCH   3  30
BRANCH   6  44
ATOM     44  C   UNL     1     113.673 129.603 136.599  0.00  0.00    +0.000 C 
BRANCH  44  45
ATOM     45  O   UNL     1     113.867 129.936 137.348  0.00  0.00    +0.000 OA
BRANCH  45  49
ATOM     46  C   UNL     1     114.876 130.783 140.834  0.00  0.00    +0.000 C 
ATOM     47  C   UNL     1     114.572 131.378 139.984  0.00  0.00    +0.000 C 
ATOM     48  C   UNL     1     114.380 130.667 139.191  0.00  0.00    +0.000 C 
ATOM     49  C   UNL     1     114.081 130.469 138.170  0.00  0.00    +0.000 C 
ATOM     50  O   UNL     1     114.386 129.874 139.021  0.00  0.00    +0.000 OA
ATOM     51  C   UNL     1     114.577 130.585 139.814  0.00  0.00    +0.000 C 
ATOM     52  O   UNL     1     114.970 131.309 141.263  0.00  0.00    +0.000 OA
ATOM     53  O   UNL     1     114.798 131.573 140.766  0.00  0.00    +0.000 OA
ATOM     54  O   UNL     1     114.090 131.141 138.359  0.00  0.00    +0.000 OA
BRANCH  51  55
ATOM     55  C   UNL     1     114.804 130.220 140.467  0.00  0.00    +0.000 C 
ATOM     56  O   UNL     1     114.336 129.677 140.982  0.00  0.00    +0.000 OA
ENDBRANCH  51  55
ENDBRANCH  45  49
ENDBRANCH  44  45
ENDBRANCH   6  44
TORSDOF 12
ENDMDL
MODEL 3
REMARK VINA RESULT:     -10.3      1.542      2.784
REMARK  Name = 
REMARK  12 active torsions:
REMARK  status: ('A' for Active; 'I' for Inactive)
REMARK    1  A    between atoms: C_5  and  O_21
REMARK    2  A    between atoms: C_9  and  C_11
REMARK    3  A    between atoms: C_14  and  O_17
REMARK    4  A    between atoms: O_21  and  C_25
REMARK    5  A    between atoms: C_24  and  O_30
REMARK    6  A    between atoms: C_27  and  C_31
REMARK    7  A    between atoms: O_30  and  C_37
REMARK    8  A    between atoms: C_31  and  O_32
REMARK    9  A    between atoms: O_32  and  C_49
REMARK   10  A    between atoms: C_35  and  O_41
REMARK   11  A    between atoms: O_41  and  C_43
REMARK   12  A    between atoms: C_51  and  C_52
REMARK                            x       y       z     vdW  Elec       q    Type
REMARK                         _______ _______ _______ _____ _____    ______ ____
ROOT
ATOM      1  C   UNL     1     112.770 129.690 135.805  0.00  0.00    +0.000 C 
ATOM      2  C   UNL     1     112.847 128.624 135.975  0.00  0.00    +0.000 C 
ATOM      3  C   UNL     1     112.632 128.486 137.027  0.00  0.00    +0.000 C 
ATOM      4  C   UNL     1     112.517 127.824 137.874  0.00  0.00    +0.000 C 
ATOM      5  O   UNL     1     112.440 128.889 137.705  0.00  0.00    +0.000 OA
ATOM      6  C   UNL     1     112.655 129.028 136.654  0.00  0.00    +0.000 C 
ATOM      7  O   UNL     1     112.921 129.582 135.166  0.00  0.00    +0.000 OA
ATOM      8  O   UNL     1     112.971 128.965 135.240  0.00  0.00    +0.000 OA
ENDROOT
BRANCH   4   9
ATOM      9  O   UNL     1     112.353 127.674 138.696  0.00  0.00    +0.000 OA
BRANCH   9  14
ATOM     10  C   UNL     1     109.952 128.035 140.025  0.00  0.00    +0.000 A 
ATOM     11  C   UNL     1     110.293 128.608 140.885  0.00  0.00    +0.000 A 
ATOM     12  C   UNL     1     111.346 128.858 140.988  0.00  0.00    +0.000 A 
ATOM     13  C   UNL     1     112.057 128.535 140.231  0.00  0.00    +0.000 A 
ATOM     14  C   UNL     1     111.717 127.963 139.373  0.00  0.00    +0.000 A 
ATOM     15  C   UNL     1     110.664 127.713 139.270  0.00  0.00    +0.000 A 
ATOM     16  C   UNL     1     109.581 128.931 141.641  0.00  0.00    +0.000 A 
ATOM     17  C   UNL     1     109.923 129.503 142.499  0.00  0.00    +0.000 A 
ATOM     18  C   UNL     1     110.976 129.753 142.602  0.00  0.00    +0.000 A 
ATOM     19  O   UNL     1     111.687 129.430 141.847  0.00  0.00    +0.000 OA
ATOM     20  O   UNL     1     108.692 128.720 141.554  0.00  0.00    +0.000 OA
ATOM     21  O   UNL     1     109.036 127.818 139.935  0.00  0.00    +0.000 OA
BRANCH  18  22
ATOM     22  C   UNL     1     111.325 130.339 143.483  0.00  0.00    +0.000 A 
ATOM     23  C   UNL     1     111.368 129.879 144.451  0.00  0.00    +0.000 A 
ATOM     24  C   UNL     1     111.705 130.444 145.300  0.00  0.00    +0.000 A 
ATOM     25  C   UNL     1     111.999 131.469 145.179  0.00  0.00    +0.000 A 
ATOM     26  C   UNL     1     111.956 131.930 144.210  0.00  0.00    +0.000 A 
ATOM     27  C   UNL     1     111.619 131.364 143.362  0.00  0.00    +0.000 A 
BRANCH  25  28
ATOM     28  O   UNL     1     112.278 131.937 145.881  0.00  0.00    +0.000 OA
ATOM     29  C   UNL     1     112.794 132.003 146.643  0.00  0.00    +0.000 C 
ENDBRANCH  25  28
ENDBRANCH  18  22
ENDBRANCH   9  14
ENDBRANCH   4   9
BRANCH   3  30
ATOM     30  O   UNL     1     112.662 127.455 137.393  0.00  0.00    +0.000 OA
BRANCH  30  35
ATOM     31  C   UNL     1     111.692 125.918 136.303  0.00  0.00    +0.000 C 
ATOM     32  C   UNL     1     111.658 124.861 136.079  0.00  0.00    +0.000 C 
ATOM     33  C   UNL     1     112.264 125.504 136.702  0.00  0.00    +0.000 C 
ATOM     34  C   UNL     1     113.080 125.622 137.403  0.00  0.00    +0.000 C 
ATOM     35  C   UNL     1     113.114 126.679 137.627  0.00  0.00    +0.000 C 
ATOM     36  O   UNL     1     112.508 126.036 137.003  0.00  0.00    +0.000 OA
ATOM     37  C   UNL     1     111.076 125.514 135.715  0.00  0.00    +0.000 C 
ATOM     38  O   UNL     1     110.997 124.992 135.553  0.00  0.00    +0.000 OA
ATOM     39  O   UNL     1     113.361 124.930 137.510  0.00  0.00    +0.000 OA
BRANCH  33  40
ATOM     40  O   UNL     1     111.995 124.452 136.285  0.00  0.00    +0.000 OA
BRANCH  40  41
ATOM     41  C   UNL     1     111.786 124.012 137.084  0.00  0.00    +0.000 C 
ATOM     42  C   UNL     1     112.123 123.254 137.135  0.00  0.00    +0.000 C 
ATOM     43  O   UNL     1     111.341 124.291 137.675  0.00  0.00    +0.000 OA
ENDBRANCH  40  41
ENDBRANCH  33  40
ENDBRANCH  30  35
ENDBRANCH   3  30
BRANCH   6  44
ATOM     44  C   UNL     1     112.607 129.712 136.541  0.00  0.00    +0.000 C 
BRANCH  44  45
ATOM     45  O   UNL     1     111.987 130.191 136.848  0.00  0.00    +0.000 OA
BRANCH  45  49
ATOM     46  C   UNL     1     108.824 131.835 137.938  0.00  0.00    +0.000 C 
ATOM     47  C   UNL     1     109.857 132.156 137.911  0.00  0.00    +0.000 C 
ATOM     48  C   UNL     1     110.407 131.315 137.509  0.00  0.00    +0.000 C 
ATOM     49  C   UNL     1     111.350 130.879 137.205  0.00  0.00    +0.000 C 
ATOM     50  O   UNL     1     110.317 130.559 137.231  0.00  0.00    +0.000 OA
ATOM     51  C   UNL     1     109.766 131.399 137.634  0.00  0.00    +0.000 C 
ATOM     52  O   UNL     1     108.573 132.418 138.198  0.00  0.00    +0.000 OA
ATOM     53  O   UNL     1     109.149 132.529 138.157  0.00  0.00    +0.000 OA
ATOM     54  O   UNL     1     111.383 131.532 137.451  0.00  0.00    +0.000 OA
BRANCH  51  55
ATOM     55  C   UNL     1     109.003 131.236 137.682  0.00  0.00    +0.000 C 
ATOM     56  O   UNL     1     108.593 130.699 138.250  0.00  0.00    +0.000 OA
ENDBRANCH  51  55
ENDBRANCH  45  49
ENDBRANCH  44  45
ENDBRANCH   6  44
TORSDOF 12
ENDMDL
MODEL 4
REMARK VINA RESULT:     -10.1      1.270      1.451
REMARK  Name = 
REMARK  12 active torsions:
REMARK  status: ('A' for Active; 'I' for Inactive)
REMARK    1  A    between atoms: C_5  and  O_21
REMARK    2  A    between atoms: C_9  and  C_11
REMARK    3  A    between atoms: C_14  and  O_17
REMARK    4  A    between atoms: O_21  and  C_25
REMARK    5  A    between atoms: C_24  and  O_30
REMARK    6  A    between atoms: C_27  and  C_31
REMARK    7  A    between atoms: O_30  and  C_37
REMARK    8  A    between atoms: C_31  and  O_32
REMARK    9  A    between atoms: O_32  and  C_49
REMARK   10  A    between atoms: C_35  and  O_41
REMARK   11  A    between atoms: O_41  and  C_43
REMARK   12  A    between atoms: C_51  and  C_52
REMARK                            x       y       z     vdW  Elec       q    Type
REMARK                         _______ _______ _______ _____ _____    ______ ____
ROOT
ATOM      1  C   UNL     1     112.503 129.417 135.430  0.00  0.00    +0.000 C 
ATOM      2  C   UNL     1     112.579 128.427 135.859  0.00  0.00    +0.000 C 
ATOM      3  C   UNL     1     112.867 128.583 136.891  0.00  0.00    +0.000 C 
ATOM      4  C   UNL     1     113.115 128.174 137.860  0.00  0.00    +0.000 C 
ATOM      5  O   UNL     1     113.039 129.164 137.432  0.00  0.00    +0.000 OA
ATOM      6  C   UNL     1     112.751 129.007 136.401  0.00  0.00    +0.000 C 
ATOM      7  O   UNL     1     112.333 129.135 134.851  0.00  0.00    +0.000 OA
ATOM      8  O   UNL     1     112.371 128.555 135.077  0.00  0.00    +0.000 OA
ENDROOT
BRANCH   4   9
ATOM      9  O   UNL     1     113.341 128.255 138.677  0.00  0.00    +0.000 OA
BRANCH   9  14
ATOM     10  C   UNL     1     113.704 130.227 140.586  0.00  0.00    +0.000 A 
ATOM     11  C   UNL     1     112.743 130.180 141.095  0.00  0.00    +0.000 A 
ATOM     12  C   UNL     1     111.990 129.468 140.768  0.00  0.00    +0.000 A 
ATOM     13  C   UNL     1     112.196 128.803 139.932  0.00  0.00    +0.000 A 
ATOM     14  C   UNL     1     113.156 128.850 139.424  0.00  0.00    +0.000 A 
ATOM     15  C   UNL     1     113.909 129.562 139.752  0.00  0.00    +0.000 A 
ATOM     16  C   UNL     1     112.537 130.845 141.930  0.00  0.00    +0.000 A 
ATOM     17  C   UNL     1     111.577 130.798 142.438  0.00  0.00    +0.000 A 
ATOM     18  C   UNL     1     110.823 130.086 142.111  0.00  0.00    +0.000 A 
ATOM     19  O   UNL     1     111.030 129.422 141.276  0.00  0.00    +0.000 OA
ATOM     20  O   UNL     1     113.174 131.446 142.206  0.00  0.00    +0.000 OA
ATOM     21  O   UNL     1     114.359 130.845 140.871  0.00  0.00    +0.000 OA
BRANCH  18  22
ATOM     22  C   UNL     1     109.840 130.038 142.631  0.00  0.00    +0.000 A 
ATOM     23  C   UNL     1     108.989 130.547 142.219  0.00  0.00    +0.000 A 
ATOM     24  C   UNL     1     108.041 130.500 142.722  0.00  0.00    +0.000 A 
ATOM     25  C   UNL     1     107.944 129.945 143.635  0.00  0.00    +0.000 A 
ATOM     26  C   UNL     1     108.795 129.436 144.047  0.00  0.00    +0.000 A 
ATOM     27  C   UNL     1     109.742 129.483 143.545  0.00  0.00    +0.000 A 
BRANCH  25  28
ATOM     28  O   UNL     1     107.159 129.907 144.050  0.00  0.00    +0.000 OA
ATOM     29  C   UNL     1     106.595 130.198 144.720  0.00  0.00    +0.000 C 
ENDBRANCH  25  28
ENDBRANCH  18  22
ENDBRANCH   9  14
ENDBRANCH   4   9
BRANCH   3  30
ATOM     30  O   UNL     1     112.995 127.681 137.497  0.00  0.00    +0.000 OA
BRANCH  30  35
ATOM     31  C   UNL     1     111.553 126.139 137.320  0.00  0.00    +0.000 C 
ATOM     32  C   UNL     1     111.355 125.080 137.415  0.00  0.00    +0.000 C 
ATOM     33  C   UNL     1     112.210 125.726 137.558  0.00  0.00    +0.000 C 
ATOM     34  C   UNL     1     113.251 125.848 137.827  0.00  0.00    +0.000 C 
ATOM     35  C   UNL     1     113.449 126.907 137.732  0.00  0.00    +0.000 C 
ATOM     36  O   UNL     1     112.594 126.260 137.588  0.00  0.00    +0.000 OA
ATOM     37  C   UNL     1     110.721 125.731 137.149  0.00  0.00    +0.000 C 
ATOM     38  O   UNL     1     110.545 125.209 137.175  0.00  0.00    +0.000 OA
ATOM     39  O   UNL     1     113.503 125.156 137.994  0.00  0.00    +0.000 OA
BRANCH  33  40
ATOM     40  O   UNL     1     111.718 124.672 137.572  0.00  0.00    +0.000 OA
BRANCH  40  41
ATOM     41  C   UNL     1     112.212 124.257 136.894  0.00  0.00    +0.000 C 
ATOM     42  C   UNL     1     112.482 123.500 137.106  0.00  0.00    +0.000 C 
ATOM     43  O   UNL     1     112.381 124.555 136.181  0.00  0.00    +0.000 OA
ENDBRANCH  40  41
ENDBRANCH  33  40
ENDBRANCH  30  35
ENDBRANCH   3  30
BRANCH   6  44
ATOM     44  C   UNL     1     112.701 129.642 136.121  0.00  0.00    +0.000 C 
BRANCH  44  45
ATOM     45  O   UNL     1     112.273 130.274 136.477  0.00  0.00    +0.000 OA
BRANCH  45  49
ATOM     46  C   UNL     1     110.078 132.595 138.397  0.00  0.00    +0.000 C 
ATOM     47  C   UNL     1     110.804 132.741 137.607  0.00  0.00    +0.000 C 
ATOM     48  C   UNL     1     111.180 131.752 137.378  0.00  0.00    +0.000 C 
ATOM     49  C   UNL     1     111.835 131.118 136.796  0.00  0.00    +0.000 C 
ATOM     50  O   UNL     1     111.109 130.972 137.586  0.00  0.00    +0.000 OA
ATOM     51  C   UNL     1     110.733 131.960 137.815  0.00  0.00    +0.000 C 
ATOM     52  O   UNL     1     109.909 133.256 138.464  0.00  0.00    +0.000 OA
ATOM     53  O   UNL     1     110.312 133.266 138.036  0.00  0.00    +0.000 OA
ATOM     54  O   UNL     1     111.864 131.800 136.649  0.00  0.00    +0.000 OA
BRANCH  51  55
ATOM     55  C   UNL     1     110.198 131.930 138.384  0.00  0.00    +0.000 C 
ATOM     56  O   UNL     1     110.319 132.015 139.255  0.00  0.00    +0.000 OA
ENDBRANCH  51  55
ENDBRANCH  45  49
ENDBRANCH  44  45
ENDBRANCH   6  44
TORSDOF 12
ENDMDL
MODEL 5
REMARK VINA RESULT:     -10.0      2.412      3.341
REMARK  Name = 
REMARK  12 active torsions:
REMARK  status: ('A' for Active; 'I' for Inactive)
REMARK    1  A    between atoms: C_5  and  O_21
REMARK    2  A    between atoms: C_9  and  C_11
REMARK    3  A    between atoms: C_14  and  O_17
REMARK    4  A    between atoms: O_21  and  C_25
REMARK    5  A    between atoms: C_24  and  O_30
REMARK    6  A    between atoms: C_27  and  C_31
REMARK    7  A    between atoms: O_30  and  C_37
REMARK    8  A    between atoms: C_31  and  O_32
REMARK    9  A    between atoms: O_32  and  C_49
REMARK   10  A    between atoms: C_35  and  O_41
REMARK   11  A    between atoms: O_41  and  C_43
REMARK   12  A    between atoms: C_51  and  C_52
REMARK                            x       y       z     vdW  Elec       q    Type
REMARK                         _______ _______ _______ _____ _____    ______ ____
ROOT
ATOM      1  C   UNL     1     109.296 126.740 135.356  0.00  0.00    +0.000 C 
ATOM      2  C   UNL     1     110.201 126.343 135.797  0.00  0.00    +0.000 C 
ATOM      3  C   UNL     1     110.181 126.665 136.830  0.00  0.00    +0.000 C 
ATOM      4  C   UNL     1     110.644 126.688 137.807  0.00  0.00    +0.000 C 
ATOM      5  O   UNL     1     109.740 127.085 137.367  0.00  0.00    +0.000 OA
ATOM      6  C   UNL     1     109.759 126.763 136.334  0.00  0.00    +0.000 C 
ATOM      7  O   UNL     1     109.475 126.461 134.778  0.00  0.00    +0.000 OA
ATOM      8  O   UNL     1     110.002 126.222 135.010  0.00  0.00    +0.000 OA
ENDROOT
BRANCH   4   9
ATOM      9  O   UNL     1     110.665 126.922 138.625  0.00  0.00    +0.000 OA
BRANCH   9  14
ATOM     10  C   UNL     1     109.125 126.035 140.748  0.00  0.00    +0.000 A 
ATOM     11  C   UNL     1     108.718 126.981 141.097  0.00  0.00    +0.000 A 
ATOM     12  C   UNL     1     108.983 127.906 140.593  0.00  0.00    +0.000 A 
ATOM     13  C   UNL     1     109.656 127.885 139.739  0.00  0.00    +0.000 A 
ATOM     14  C   UNL     1     110.063 126.940 139.389  0.00  0.00    +0.000 A 
ATOM     15  C   UNL     1     109.797 126.015 139.894  0.00  0.00    +0.000 A 
ATOM     16  C   UNL     1     108.045 127.001 141.952  0.00  0.00    +0.000 A 
ATOM     17  C   UNL     1     107.639 127.947 142.301  0.00  0.00    +0.000 A 
ATOM     18  C   UNL     1     107.904 128.872 141.796  0.00  0.00    +0.000 A 
ATOM     19  O   UNL     1     108.576 128.852 140.943  0.00  0.00    +0.000 OA
ATOM     20  O   UNL     1     107.820 126.219 142.378  0.00  0.00    +0.000 OA
ATOM     21  O   UNL     1     108.894 125.230 141.186  0.00  0.00    +0.000 OA
BRANCH  18  22
ATOM     22  C   UNL     1     107.487 129.841 142.154  0.00  0.00    +0.000 A 
ATOM     23  C   UNL     1     107.942 130.346 142.985  0.00  0.00    +0.000 A 
ATOM     24  C   UNL     1     107.540 131.280 143.330  0.00  0.00    +0.000 A 
ATOM     25  C   UNL     1     106.684 131.708 142.844  0.00  0.00    +0.000 A 
ATOM     26  C   UNL     1     106.230 131.203 142.013  0.00  0.00    +0.000 A 
ATOM     27  C   UNL     1     106.632 130.270 141.668  0.00  0.00    +0.000 A 
BRANCH  25  28
ATOM     28  O   UNL     1     106.352 132.482 143.130  0.00  0.00    +0.000 OA
ATOM     29  C   UNL     1     106.038 133.011 143.818  0.00  0.00    +0.000 C 
ENDBRANCH  25  28
ENDBRANCH  18  22
ENDBRANCH   9  14
ENDBRANCH   4   9
BRANCH   3  30
ATOM     30  O   UNL     1     111.029 126.354 137.448  0.00  0.00    +0.000 OA
BRANCH  30  35
ATOM     31  C   UNL     1     112.026 124.530 137.037  0.00  0.00    +0.000 C 
ATOM     32  C   UNL     1     112.949 123.973 137.122  0.00  0.00    +0.000 C 
ATOM     33  C   UNL     1     112.607 124.957 137.411  0.00  0.00    +0.000 C 
ATOM     34  C   UNL     1     112.807 125.914 137.873  0.00  0.00    +0.000 C 
ATOM     35  C   UNL     1     111.884 126.472 137.788  0.00  0.00    +0.000 C 
ATOM     36  O   UNL     1     112.226 125.487 137.499  0.00  0.00    +0.000 OA
ATOM     37  C   UNL     1     112.154 123.652 136.719  0.00  0.00    +0.000 C 
ATOM     38  O   UNL     1     112.585 123.309 136.725  0.00  0.00    +0.000 OA
ATOM     39  O   UNL     1     113.524 125.885 138.105  0.00  0.00    +0.000 OA
BRANCH  33  40
ATOM     40  O   UNL     1     113.436 124.144 137.359  0.00  0.00    +0.000 OA
BRANCH  40  41
ATOM     41  C   UNL     1     114.088 124.612 136.878  0.00  0.00    +0.000 C 
ATOM     42  C   UNL     1     114.824 124.633 137.264  0.00  0.00    +0.000 C 
ATOM     43  O   UNL     1     113.996 124.967 136.177  0.00  0.00    +0.000 OA
ENDBRANCH  40  41
ENDBRANCH  33  40
ENDBRANCH  30  35
ENDBRANCH   3  30
BRANCH   6  44
ATOM     44  C   UNL     1     109.179 127.016 136.047  0.00  0.00    +0.000 C 
BRANCH  44  45
ATOM     45  O   UNL     1     108.998 127.838 136.012  0.00  0.00    +0.000 OA
BRANCH  45  49
ATOM     46  C   UNL     1     108.839 131.542 135.630  0.00  0.00    +0.000 C 
ATOM     47  C   UNL     1     108.094 130.783 135.828  0.00  0.00    +0.000 C 
ATOM     48  C   UNL     1     108.637 129.847 135.847  0.00  0.00    +0.000 C 
ATOM     49  C   UNL     1     108.635 128.772 135.966  0.00  0.00    +0.000 C 
ATOM     50  O   UNL     1     109.380 129.531 135.768  0.00  0.00    +0.000 OA
ATOM     51  C   UNL     1     108.836 130.467 135.749  0.00  0.00    +0.000 C 
ATOM     52  O   UNL     1     108.406 132.074 135.639  0.00  0.00    +0.000 OA
ATOM     53  O   UNL     1     108.054 131.615 135.743  0.00  0.00    +0.000 OA
ATOM     54  O   UNL     1     108.014 129.085 136.027  0.00  0.00    +0.000 OA
BRANCH  51  55
ATOM     55  C   UNL     1     109.318 131.067 135.608  0.00  0.00    +0.000 C 
ATOM     56  O   UNL     1     109.963 131.382 136.123  0.00  0.00    +0.000 OA
ENDBRANCH  51  55
ENDBRANCH  45  49
ENDBRANCH  44  45
ENDBRANCH   6  44
TORSDOF 12
ENDMDL
MODEL 6
REMARK VINA RESULT:     -10.0      7.187      9.886
REMARK  Name = 
REMARK  12 active torsions:
REMARK  status: ('A' for Active; 'I' for Inactive)
REMARK    1  A    between atoms: C_5  and  O_21
REMARK    2  A    between atoms: C_9  and  C_11
REMARK    3  A    between atoms: C_14  and  O_17
REMARK    4  A    between atoms: O_21  and  C_25
REMARK    5  A    between atoms: C_24  and  O_30
REMARK    6  A    between atoms: C_27  and  C_31
REMARK    7  A    between atoms: O_30  and  C_37
REMARK    8  A    between atoms: C_31  and  O_32
REMARK    9  A    between atoms: O_32  and  C_49
REMARK   10  A    between atoms: C_35  and  O_41
REMARK   11  A    between atoms: O_41  and  C_43
REMARK   12  A    between atoms: C_51  and  C_52
REMARK                            x       y       z     vdW  Elec       q    Type
REMARK                         _______ _______ _______ _____ _____    ______ ____
ROOT
ATOM      1  C   UNL     1     105.771 125.130 142.978  0.00  0.00    +0.000 C 
ATOM      2  C   UNL     1     105.716 124.911 144.036  0.00  0.00    +0.000 C 
ATOM      3  C   UNL     1     106.190 125.751 144.528  0.00  0.00    +0.000 C 
ATOM      4  C   UNL     1     106.502 126.240 145.440  0.00  0.00    +0.000 C 
ATOM      5  O   UNL     1     106.558 126.460 144.383  0.00  0.00    +0.000 OA
ATOM      6  C   UNL     1     106.084 125.621 143.891  0.00  0.00    +0.000 C 
ATOM      7  O   UNL     1     105.459 124.555 142.860  0.00  0.00    +0.000 OA
ATOM      8  O   UNL     1     105.415 124.407 143.464  0.00  0.00    +0.000 OA
ENDROOT
BRANCH   4   9
ATOM      9  O   UNL     1     106.868 126.883 145.863  0.00  0.00    +0.000 OA
BRANCH   9  14
ATOM     10  C   UNL     1     105.905 129.475 145.988  0.00  0.00    +0.000 A 
ATOM     11  C   UNL     1     106.829 130.029 145.838  0.00  0.00    +0.000 A 
ATOM     12  C   UNL     1     107.766 129.496 145.697  0.00  0.00    +0.000 A 
ATOM     13  C   UNL     1     107.779 128.409 145.706  0.00  0.00    +0.000 A 
ATOM     14  C   UNL     1     106.856 127.855 145.855  0.00  0.00    +0.000 A 
ATOM     15  C   UNL     1     105.919 128.389 145.996  0.00  0.00    +0.000 A 
ATOM     16  C   UNL     1     106.816 131.117 145.829  0.00  0.00    +0.000 A 
ATOM     17  C   UNL     1     107.739 131.670 145.680  0.00  0.00    +0.000 A 
ATOM     18  C   UNL     1     108.676 131.137 145.539  0.00  0.00    +0.000 A 
ATOM     19  O   UNL     1     108.689 130.051 145.547  0.00  0.00    +0.000 OA
ATOM     20  O   UNL     1     106.025 131.567 145.948  0.00  0.00    +0.000 OA
ATOM     21  O   UNL     1     105.091 129.939 146.110  0.00  0.00    +0.000 OA
BRANCH  18  22
ATOM     22  C   UNL     1     109.622 131.705 145.385  0.00  0.00    +0.000 A 
ATOM     23  C   UNL     1     110.220 131.525 144.513  0.00  0.00    +0.000 A 
ATOM     24  C   UNL     1     111.133 132.072 144.365  0.00  0.00    +0.000 A 
ATOM     25  C   UNL     1     111.445 132.799 145.090  0.00  0.00    +0.000 A 
ATOM     26  C   UNL     1     110.847 132.979 145.963  0.00  0.00    +0.000 A 
ATOM     27  C   UNL     1     109.935 132.432 146.110  0.00  0.00    +0.000 A 
BRANCH  25  28
ATOM     28  O   UNL     1     112.200 133.252 144.967  0.00  0.00    +0.000 OA
ATOM     29  C   UNL     1     113.106 133.262 144.789  0.00  0.00    +0.000 C 
ENDBRANCH  25  28
ENDBRANCH  18  22
ENDBRANCH   9  14
ENDBRANCH   4   9
BRANCH   3  30
ATOM     30  O   UNL     1     106.231 125.709 145.621  0.00  0.00    +0.000 OA
BRANCH  30  35
ATOM     31  C   UNL     1     104.567 125.016 146.735  0.00  0.00    +0.000 C 
ATOM     32  C   UNL     1     104.230 124.567 147.659  0.00  0.00    +0.000 C 
ATOM     33  C   UNL     1     105.182 124.867 147.243  0.00  0.00    +0.000 C 
ATOM     34  C   UNL     1     106.256 124.954 147.342  0.00  0.00    +0.000 C 
ATOM     35  C   UNL     1     106.593 125.402 146.418  0.00  0.00    +0.000 C 
ATOM     36  O   UNL     1     105.640 125.103 146.834  0.00  0.00    +0.000 OA
ATOM     37  C   UNL     1     103.669 124.817 146.938  0.00  0.00    +0.000 C 
ATOM     38  O   UNL     1     103.423 124.593 147.378  0.00  0.00    +0.000 OA
ATOM     39  O   UNL     1     106.423 124.674 148.023  0.00  0.00    +0.000 OA
BRANCH  33  40
ATOM     40  O   UNL     1     104.547 124.410 148.104  0.00  0.00    +0.000 OA
BRANCH  40  41
ATOM     41  C   UNL     1     104.730 125.029 148.782  0.00  0.00    +0.000 C 
ATOM     42  C   UNL     1     104.922 124.669 149.506  0.00  0.00    +0.000 C 
ATOM     43  O   UNL     1     104.716 125.817 148.720  0.00  0.00    +0.000 OA
ENDBRANCH  40  41
ENDBRANCH  33  40
ENDBRANCH  30  35
ENDBRANCH   3  30
BRANCH   6  44
ATOM     44  C   UNL     1     106.118 125.758 143.211  0.00  0.00    +0.000 C 
BRANCH  44  45
ATOM     45  O   UNL     1     105.801 126.455 142.861  0.00  0.00    +0.000 OA
BRANCH  45  49
ATOM     46  C   UNL     1     103.986 129.545 141.836  0.00  0.00    +0.000 C 
ATOM     47  C   UNL     1     104.850 129.026 141.442  0.00  0.00    +0.000 C 
ATOM     48  C   UNL     1     104.990 128.171 142.092  0.00  0.00    +0.000 C 
ATOM     49  C   UNL     1     105.548 127.282 142.351  0.00  0.00    +0.000 C 
ATOM     50  O   UNL     1     104.684 127.801 142.745  0.00  0.00    +0.000 OA
ATOM     51  C   UNL     1     104.544 128.655 142.095  0.00  0.00    +0.000 C 
ATOM     52  O   UNL     1     103.985 130.049 141.370  0.00  0.00    +0.000 OA
ATOM     53  O   UNL     1     104.445 129.721 141.208  0.00  0.00    +0.000 OA
ATOM     54  O   UNL     1     105.779 127.632 141.793  0.00  0.00    +0.000 OA
BRANCH  51  55
ATOM     55  C   UNL     1     103.929 129.081 142.323  0.00  0.00    +0.000 C 
ATOM     56  O   UNL     1     103.839 129.563 143.058  0.00  0.00    +0.000 OA
ENDBRANCH  51  55
ENDBRANCH  45  49
ENDBRANCH  44  45
ENDBRANCH   6  44
TORSDOF 12
ENDMDL
MODEL 7
REMARK VINA RESULT:     -10.0      2.174      5.573
REMARK  Name = 
REMARK  12 active torsions:
REMARK  status: ('A' for Active; 'I' for Inactive)
REMARK    1  A    between atoms: C_5  and  O_21
REMARK    2  A    between atoms: C_9  and  C_11
REMARK    3  A    between atoms: C_14  and  O_17
REMARK    4  A    between atoms: O_21  and  C_25
REMARK    5  A    between atoms: C_24  and  O_30
REMARK    6  A    between atoms: C_27  and  C_31
REMARK    7  A    between atoms: O_30  and  C_37
REMARK    8  A    between atoms: C_31  and  O_32
REMARK    9  A    between atoms: O_32  and  C_49
REMARK   10  A    between atoms: C_35  and  O_41
REMARK   11  A    between atoms: O_41  and  C_43
REMARK   12  A    between atoms: C_51  and  C_52
REMARK                            x       y       z     vdW  Elec       q    Type
REMARK                         _______ _______ _______ _____ _____    ______ ____
ROOT
ATOM      1  C   UNL     1     112.741 128.767 135.369  0.00  0.00    +0.000 C 
ATOM      2  C   UNL     1     111.747 129.191 135.316  0.00  0.00    +0.000 C 
ATOM      3  C   UNL     1     111.253 128.876 136.226  0.00  0.00    +0.000 C 
ATOM      4  C   UNL     1     110.372 128.873 136.854  0.00  0.00    +0.000 C 
ATOM      5  O   UNL     1     111.366 128.449 136.908  0.00  0.00    +0.000 OA
ATOM      6  C   UNL     1     111.860 128.764 135.998  0.00  0.00    +0.000 C 
ATOM      7  O   UNL     1     112.873 129.046 134.779  0.00  0.00    +0.000 OA
ATOM      8  O   UNL     1     112.306 129.300 134.727  0.00  0.00    +0.000 OA
ENDROOT
BRANCH   4   9
ATOM      9  O   UNL     1     109.950 128.646 137.557  0.00  0.00    +0.000 OA
BRANCH   9  14
ATOM     10  C   UNL     1     110.349 127.227 139.901  0.00  0.00    +0.000 A 
ATOM     11  C   UNL     1     110.582 128.043 140.581  0.00  0.00    +0.000 A 
ATOM     12  C   UNL     1     110.596 129.067 140.217  0.00  0.00    +0.000 A 
ATOM     13  C   UNL     1     110.377 129.275 139.172  0.00  0.00    +0.000 A 
ATOM     14  C   UNL     1     110.145 128.460 138.492  0.00  0.00    +0.000 A 
ATOM     15  C   UNL     1     110.131 127.436 138.856  0.00  0.00    +0.000 A 
ATOM     16  C   UNL     1     110.800 127.834 141.626  0.00  0.00    +0.000 A 
ATOM     17  C   UNL     1     111.032 128.650 142.306  0.00  0.00    +0.000 A 
ATOM     18  C   UNL     1     111.046 129.674 141.941  0.00  0.00    +0.000 A 
ATOM     19  O   UNL     1     110.828 129.882 140.898  0.00  0.00    +0.000 OA
ATOM     20  O   UNL     1     110.788 126.969 141.934  0.00  0.00    +0.000 OA
ATOM     21  O   UNL     1     110.337 126.337 140.217  0.00  0.00    +0.000 OA
BRANCH  18  22
ATOM     22  C   UNL     1     111.284 130.510 142.639  0.00  0.00    +0.000 A 
ATOM     23  C   UNL     1     110.588 130.781 143.409  0.00  0.00    +0.000 A 
ATOM     24  C   UNL     1     110.817 131.587 144.081  0.00  0.00    +0.000 A 
ATOM     25  C   UNL     1     111.743 132.120 143.982  0.00  0.00    +0.000 A 
ATOM     26  C   UNL     1     112.439 131.849 143.211  0.00  0.00    +0.000 A 
ATOM     27  C   UNL     1     112.210 131.044 142.540  0.00  0.00    +0.000 A 
BRANCH  25  28
ATOM     28  O   UNL     1     111.932 132.787 144.538  0.00  0.00    +0.000 OA
ATOM     29  C   UNL     1     111.988 133.692 144.711  0.00  0.00    +0.000 C 
ENDBRANCH  25  28
ENDBRANCH  18  22
ENDBRANCH   9  14
ENDBRANCH   4   9
BRANCH   3  30
ATOM     30  O   UNL     1     110.220 129.214 136.355  0.00  0.00    +0.000 OA
BRANCH  30  35
ATOM     31  C   UNL     1     109.673 131.211 135.906  0.00  0.00    +0.000 C 
ATOM     32  C   UNL     1     108.873 131.880 135.621  0.00  0.00    +0.000 C 
ATOM     33  C   UNL     1     108.967 130.821 135.817  0.00  0.00    +0.000 C 
ATOM     34  C   UNL     1     108.512 129.841 135.880  0.00  0.00    +0.000 C 
ATOM     35  C   UNL     1     109.312 129.172 136.164  0.00  0.00    +0.000 C 
ATOM     36  O   UNL     1     109.218 130.232 135.969  0.00  0.00    +0.000 OA
ATOM     37  C   UNL     1     109.771 132.139 135.774  0.00  0.00    +0.000 C 
ATOM     38  O   UNL     1     109.419 132.538 135.631  0.00  0.00    +0.000 OA
ATOM     39  O   UNL     1     107.785 129.941 135.705  0.00  0.00    +0.000 OA
BRANCH  33  40
ATOM     40  O   UNL     1     108.329 131.748 135.524  0.00  0.00    +0.000 OA
BRANCH  40  41
ATOM     41  C   UNL     1     107.678 131.711 136.196  0.00  0.00    +0.000 C 
ATOM     42  C   UNL     1     106.902 131.740 135.898  0.00  0.00    +0.000 C 
ATOM     43  O   UNL     1     107.804 131.659 136.975  0.00  0.00    +0.000 OA
ENDBRANCH  40  41
ENDBRANCH  33  40
ENDBRANCH  30  35
ENDBRANCH   3  30
BRANCH   6  44
ATOM     44  C   UNL     1     112.499 128.493 136.028  0.00  0.00    +0.000 C 
BRANCH  44  45
ATOM     45  O   UNL     1     112.657 127.693 136.240  0.00  0.00    +0.000 OA
BRANCH  45  49
ATOM     46  C   UNL     1     112.806 124.002 136.731  0.00  0.00    +0.000 C 
ATOM     47  C   UNL     1     113.492 124.809 136.951  0.00  0.00    +0.000 C 
ATOM     48  C   UNL     1     112.991 125.709 136.619  0.00  0.00    +0.000 C 
ATOM     49  C   UNL     1     112.992 126.784 136.497  0.00  0.00    +0.000 C 
ATOM     50  O   UNL     1     112.306 125.977 136.277  0.00  0.00    +0.000 OA
ATOM     51  C   UNL     1     112.808 125.077 136.608  0.00  0.00    +0.000 C 
ATOM     52  O   UNL     1     113.205 123.499 136.970  0.00  0.00    +0.000 OA
ATOM     53  O   UNL     1     113.530 123.980 137.063  0.00  0.00    +0.000 OA
ATOM     54  O   UNL     1     113.565 126.511 136.789  0.00  0.00    +0.000 OA
BRANCH  51  55
ATOM     55  C   UNL     1     112.364 124.446 136.479  0.00  0.00    +0.000 C 
ATOM     56  O   UNL     1     111.589 124.237 136.846  0.00  0.00    +0.000 OA
ENDBRANCH  51  55
ENDBRANCH  45  49
ENDBRANCH  44  45
ENDBRANCH   6  44
TORSDOF 12
ENDMDL
MODEL 8
REMARK VINA RESULT:     -10.0      7.096     10.336
REMARK  Name = 
REMARK  12 active torsions:
REMARK  status: ('A' for Active; 'I' for Inactive)
REMARK    1  A    between atoms: C_5  and  O_21
REMARK    2  A    between atoms: C_9  and  C_11
REMARK    3  A    between atoms: C_14  and  O_17
REMARK    4  A    between atoms: O_21  and  C_25
REMARK    5  A    between atoms: C_24  and  O_30
REMARK    6  A    between atoms: C_27  and  C_31
REMARK    7  A    between atoms: O_30  and  C_37
REMARK    8  A    between atoms: C_31  and  O_32
REMARK    9  A    between atoms: O_32  and  C_49
REMARK   10  A    between atoms: C_35  and  O_41
REMARK   11  A    between atoms: O_41  and  C_43
REMARK   12  A    between atoms: C_51  and  C_52
REMARK                            x       y       z     vdW  Elec       q    Type
REMARK                         _______ _______ _______ _____ _____    ______ ____
ROOT
ATOM      1  C   UNL     1     103.055 129.044 140.433  0.00  0.00    +0.000 C 
ATOM      2  C   UNL     1     102.677 130.010 140.739  0.00  0.00    +0.000 C 
ATOM      3  C   UNL     1     102.985 130.124 141.770  0.00  0.00    +0.000 C 
ATOM      4  C   UNL     1     103.007 130.717 142.675  0.00  0.00    +0.000 C 
ATOM      5  O   UNL     1     103.385 129.751 142.370  0.00  0.00    +0.000 OA
ATOM      6  C   UNL     1     103.078 129.637 141.339  0.00  0.00    +0.000 C 
ATOM      7  O   UNL     1     102.789 129.149 139.832  0.00  0.00    +0.000 OA
ATOM      8  O   UNL     1     102.562 129.708 139.986  0.00  0.00    +0.000 OA
ENDROOT
BRANCH   4   9
ATOM      9  O   UNL     1     103.230 130.844 143.487  0.00  0.00    +0.000 OA
BRANCH   9  14
ATOM     10  C   UNL     1     105.651 131.369 144.723  0.00  0.00    +0.000 A 
ATOM     11  C   UNL     1     105.768 130.460 145.308  0.00  0.00    +0.000 A 
ATOM     12  C   UNL     1     105.008 129.683 145.264  0.00  0.00    +0.000 A 
ATOM     13  C   UNL     1     104.132 129.817 144.634  0.00  0.00    +0.000 A 
ATOM     14  C   UNL     1     104.015 130.725 144.050  0.00  0.00    +0.000 A 
ATOM     15  C   UNL     1     104.774 131.501 144.094  0.00  0.00    +0.000 A 
ATOM     16  C   UNL     1     106.645 130.327 145.937  0.00  0.00    +0.000 A 
ATOM     17  C   UNL     1     106.762 129.418 146.522  0.00  0.00    +0.000 A 
ATOM     18  C   UNL     1     106.002 128.642 146.477  0.00  0.00    +0.000 A 
ATOM     19  O   UNL     1     105.126 128.775 145.849  0.00  0.00    +0.000 OA
ATOM     20  O   UNL     1     107.287 130.983 145.975  0.00  0.00    +0.000 OA
ATOM     21  O   UNL     1     106.311 132.044 144.761  0.00  0.00    +0.000 OA
BRANCH  18  22
ATOM     22  C   UNL     1     106.122 127.710 147.077  0.00  0.00    +0.000 A 
ATOM     23  C   UNL     1     106.861 126.984 146.797  0.00  0.00    +0.000 A 
ATOM     24  C   UNL     1     106.977 126.087 147.375  0.00  0.00    +0.000 A 
ATOM     25  C   UNL     1     106.354 125.916 148.231  0.00  0.00    +0.000 A 
ATOM     26  C   UNL     1     105.615 126.643 148.511  0.00  0.00    +0.000 A 
ATOM     27  C   UNL     1     105.499 127.540 147.933  0.00  0.00    +0.000 A 
BRANCH  25  28
ATOM     28  O   UNL     1     106.450 125.173 148.709  0.00  0.00    +0.000 OA
ATOM     29  C   UNL     1     106.901 124.386 148.881  0.00  0.00    +0.000 C 
ENDBRANCH  25  28
ENDBRANCH  18  22
ENDBRANCH   9  14
ENDBRANCH   4   9
BRANCH   3  30
ATOM     30  O   UNL     1     102.688 131.057 142.261  0.00  0.00    +0.000 OA
BRANCH  30  35
ATOM     31  C   UNL     1     102.914 132.901 141.243  0.00  0.00    +0.000 C 
ATOM     32  C   UNL     1     102.570 133.922 141.147  0.00  0.00    +0.000 C 
ATOM     33  C   UNL     1     102.316 133.071 141.764  0.00  0.00    +0.000 C 
ATOM     34  C   UNL     1     101.712 132.638 142.551  0.00  0.00    +0.000 C 
ATOM     35  C   UNL     1     102.057 131.617 142.647  0.00  0.00    +0.000 C 
ATOM     36  O   UNL     1     102.311 132.468 142.029  0.00  0.00    +0.000 OA
ATOM     37  C   UNL     1     103.260 133.529 140.630  0.00  0.00    +0.000 C 
ATOM     38  O   UNL     1     103.139 134.056 140.524  0.00  0.00    +0.000 OA
ATOM     39  O   UNL     1     101.246 133.186 142.778  0.00  0.00    +0.000 OA
BRANCH  33  40
ATOM     40  O   UNL     1     102.159 134.178 141.444  0.00  0.00    +0.000 OA
BRANCH  40  41
ATOM     41  C   UNL     1     102.379 134.608 142.246  0.00  0.00    +0.000 C 
ATOM     42  C   UNL     1     101.823 135.185 142.468  0.00  0.00    +0.000 C 
ATOM     43  O   UNL     1     103.013 134.471 142.698  0.00  0.00    +0.000 OA
ENDBRANCH  40  41
ENDBRANCH  33  40
ENDBRANCH  30  35
ENDBRANCH   3  30
BRANCH   6  44
ATOM     44  C   UNL     1     103.319 129.016 141.138  0.00  0.00    +0.000 C 
BRANCH  44  45
ATOM     45  O   UNL     1     104.049 128.692 141.408  0.00  0.00    +0.000 OA
BRANCH  45  49
ATOM     46  C   UNL     1     106.600 126.515 143.033  0.00  0.00    +0.000 C 
ATOM     47  C   UNL     1     106.619 127.162 142.166  0.00  0.00    +0.000 C 
ATOM     48  C   UNL     1     105.624 127.582 142.101  0.00  0.00    +0.000 C 
ATOM     49  C   UNL     1     104.917 128.227 141.595  0.00  0.00    +0.000 C 
ATOM     50  O   UNL     1     104.898 127.580 142.462  0.00  0.00    +0.000 OA
ATOM     51  C   UNL     1     105.893 127.160 142.528  0.00  0.00    +0.000 C 
ATOM     52  O   UNL     1     107.252 126.308 142.985  0.00  0.00    +0.000 OA
ATOM     53  O   UNL     1     107.195 126.674 142.528  0.00  0.00    +0.000 OA
ATOM     54  O   UNL     1     105.556 128.199 141.316  0.00  0.00    +0.000 OA
BRANCH  51  55
ATOM     55  C   UNL     1     105.952 126.676 143.140  0.00  0.00    +0.000 C 
ATOM     56  O   UNL     1     105.303 126.317 143.618  0.00  0.00    +0.000 OA
ENDBRANCH  51  55
ENDBRANCH  45  49
ENDBRANCH  44  45
ENDBRANCH   6  44
TORSDOF 12
ENDMDL
MODEL 9
REMARK VINA RESULT:      -9.9      1.845      2.674
REMARK  Name = 
REMARK  12 active torsions:
REMARK  status: ('A' for Active; 'I' for Inactive)
REMARK    1  A    between atoms: C_5  and  O_21
REMARK    2  A    between atoms: C_9  and  C_11
REMARK    3  A    between atoms: C_14  and  O_17
REMARK    4  A    between atoms: O_21  and  C_25
REMARK    5  A    between atoms: C_24  and  O_30
REMARK    6  A    between atoms: C_27  and  C_31
REMARK    7  A    between atoms: O_30  and  C_37
REMARK    8  A    between atoms: C_31  and  O_32
REMARK    9  A    between atoms: O_32  and  C_49
REMARK   10  A    between atoms: C_35  and  O_41
REMARK   11  A    between atoms: O_41  and  C_43
REMARK   12  A    between atoms: C_51  and  C_52
REMARK                            x       y       z     vdW  Elec       q    Type
REMARK                         _______ _______ _______ _____ _____    ______ ____
ROOT
ATOM      1  C   UNL     1     113.876 129.479 136.287  0.00  0.00    +0.000 C 
ATOM      2  C   UNL     1     113.552 128.453 136.173  0.00  0.00    +0.000 C 
ATOM      3  C   UNL     1     112.708 128.343 136.841  0.00  0.00    +0.000 C 
ATOM      4  C   UNL     1     111.928 127.723 137.262  0.00  0.00    +0.000 C 
ATOM      5  O   UNL     1     112.252 128.748 137.378  0.00  0.00    +0.000 OA
ATOM      6  C   UNL     1     113.096 128.858 136.709  0.00  0.00    +0.000 C 
ATOM      7  O   UNL     1     114.355 129.360 135.840  0.00  0.00    +0.000 OA
ATOM      8  O   UNL     1     114.186 128.766 135.757  0.00  0.00    +0.000 OA
ENDROOT
BRANCH   4   9
ATOM      9  O   UNL     1     111.261 127.597 137.776  0.00  0.00    +0.000 OA
BRANCH   9  14
ATOM     10  C   UNL     1     111.446 127.575 140.538  0.00  0.00    +0.000 A 
ATOM     11  C   UNL     1     110.507 128.060 140.796  0.00  0.00    +0.000 A 
ATOM     12  C   UNL     1     109.830 128.385 140.011  0.00  0.00    +0.000 A 
ATOM     13  C   UNL     1     110.090 128.225 138.968  0.00  0.00    +0.000 A 
ATOM     14  C   UNL     1     111.028 127.740 138.710  0.00  0.00    +0.000 A 
ATOM     15  C   UNL     1     111.705 127.415 139.495  0.00  0.00    +0.000 A 
ATOM     16  C   UNL     1     110.247 128.220 141.840  0.00  0.00    +0.000 A 
ATOM     17  C   UNL     1     109.309 128.705 142.098  0.00  0.00    +0.000 A 
ATOM     18  C   UNL     1     108.631 129.031 141.313  0.00  0.00    +0.000 A 
ATOM     19  O   UNL     1     108.892 128.871 140.270  0.00  0.00    +0.000 OA
ATOM     20  O   UNL     1     110.819 127.945 142.503  0.00  0.00    +0.000 OA
ATOM     21  O   UNL     1     112.035 127.292 141.221  0.00  0.00    +0.000 OA
BRANCH  18  22
ATOM     22  C   UNL     1     107.670 129.528 141.577  0.00  0.00    +0.000 A 
ATOM     23  C   UNL     1     106.804 128.935 141.802  0.00  0.00    +0.000 A 
ATOM     24  C   UNL     1     105.878 129.415 142.058  0.00  0.00    +0.000 A 
ATOM     25  C   UNL     1     105.818 130.486 142.087  0.00  0.00    +0.000 A 
ATOM     26  C   UNL     1     106.685 131.078 141.861  0.00  0.00    +0.000 A 
ATOM     27  C   UNL     1     107.610 130.599 141.607  0.00  0.00    +0.000 A 
BRANCH  25  28
ATOM     28  O   UNL     1     105.051 130.882 142.298  0.00  0.00    +0.000 OA
ATOM     29  C   UNL     1     104.140 130.973 142.182  0.00  0.00    +0.000 C 
ENDBRANCH  25  28
ENDBRANCH  18  22
ENDBRANCH   9  14
ENDBRANCH   4   9
BRANCH   3  30
ATOM     30  O   UNL     1     112.237 127.355 136.864  0.00  0.00    +0.000 OA
BRANCH  30  35
ATOM     31  C   UNL     1     113.409 125.592 136.882  0.00  0.00    +0.000 C 
ATOM     32  C   UNL     1     113.447 124.536 136.649  0.00  0.00    +0.000 C 
ATOM     33  C   UNL     1     112.712 125.324 136.564  0.00  0.00    +0.000 C 
ATOM     34  C   UNL     1     111.720 125.646 136.276  0.00  0.00    +0.000 C 
ATOM     35  C   UNL     1     111.683 126.702 136.509  0.00  0.00    +0.000 C 
ATOM     36  O   UNL     1     112.418 125.913 136.594  0.00  0.00    +0.000 OA
ATOM     37  C   UNL     1     114.158 125.036 137.026  0.00  0.00    +0.000 C 
ATOM     38  O   UNL     1     114.252 124.501 136.936  0.00  0.00    +0.000 OA
ATOM     39  O   UNL     1     111.375 125.031 136.006  0.00  0.00    +0.000 OA
BRANCH  33  40
ATOM     40  O   UNL     1     113.035 124.216 136.424  0.00  0.00    +0.000 OA
BRANCH  40  41
ATOM     41  C   UNL     1     112.410 123.797 136.980  0.00  0.00    +0.000 C 
ATOM     42  C   UNL     1     112.036 123.149 136.618  0.00  0.00    +0.000 C 
ATOM     43  O   UNL     1     112.224 124.001 137.722  0.00  0.00    +0.000 OA
ENDBRANCH  40  41
ENDBRANCH  33  40
ENDBRANCH  30  35
ENDBRANCH   3  30
BRANCH   6  44
ATOM     44  C   UNL     1     113.307 129.517 136.780  0.00  0.00    +0.000 C 
BRANCH  44  45
ATOM     45  O   UNL     1     113.575 129.843 137.509  0.00  0.00    +0.000 OA
BRANCH  45  49
ATOM     46  C   UNL     1     114.923 130.665 140.885  0.00  0.00    +0.000 C 
ATOM     47  C   UNL     1     114.525 131.265 140.078  0.00  0.00    +0.000 C 
ATOM     48  C   UNL     1     114.263 130.560 139.299  0.00  0.00    +0.000 C 
ATOM     49  C   UNL     1     113.864 130.370 138.312  0.00  0.00    +0.000 C 
ATOM     50  O   UNL     1     114.263 129.770 139.119  0.00  0.00    +0.000 OA
ATOM     51  C   UNL     1     114.524 130.474 139.898  0.00  0.00    +0.000 C 
ATOM     52  O   UNL     1     115.052 131.187 141.309  0.00  0.00    +0.000 OA
ATOM     53  O   UNL     1     114.827 131.454 140.836  0.00  0.00    +0.000 OA
ATOM     54  O   UNL     1     113.882 131.040 138.508  0.00  0.00    +0.000 OA
BRANCH  51  55
ATOM     55  C   UNL     1     114.822 130.105 140.519  0.00  0.00    +0.000 C 
ATOM     56  O   UNL     1     114.475 129.434 140.976  0.00  0.00    +0.000 OA
ENDBRANCH  51  55
ENDBRANCH  45  49
ENDBRANCH  44  45
ENDBRANCH   6  44
TORSDOF 12
ENDMDL
MODEL 10
REMARK VINA RESULT:      -9.9      2.393      5.810
REMARK  Name = 
REMARK  12 active torsions:
REMARK  status: ('A' for Active; 'I' for Inactive)
REMARK    1  A    between atoms: C_5  and  O_21
REMARK    2  A    between atoms: C_9  and  C_11
REMARK    3  A    between atoms: C_14  and  O_17
REMARK    4  A    between atoms: O_21  and  C_25
REMARK    5  A    between atoms: C_24  and  O_30
REMARK    6  A    between atoms: C_27  and  C_31
REMARK    7  A    between atoms: O_30  and  C_37
REMARK    8  A    between atoms: C_31  and  O_32
REMARK    9  A    between atoms: O_32  and  C_49
REMARK   10  A    between atoms: C_35  and  O_41
REMARK   11  A    between atoms: O_41  and  C_43
REMARK   12  A    between atoms: C_51  and  C_52
REMARK                            x       y       z     vdW  Elec       q    Type
REMARK                         _______ _______ _______ _____ _____    ______ ____
ROOT
ATOM      1  C   UNL     1     108.602 127.571 135.997  0.00  0.00    +0.000 C 
ATOM      2  C   UNL     1     108.896 128.611 136.061  0.00  0.00    +0.000 C 
ATOM      3  C   UNL     1     109.846 128.608 136.579  0.00  0.00    +0.000 C 
ATOM      4  C   UNL     1     110.686 129.155 136.985  0.00  0.00    +0.000 C 
ATOM      5  O   UNL     1     110.393 128.116 136.922  0.00  0.00    +0.000 OA
ATOM      6  C   UNL     1     109.443 128.118 136.404  0.00  0.00    +0.000 C 
ATOM      7  O   UNL     1     108.050 127.764 135.679  0.00  0.00    +0.000 OA
ATOM      8  O   UNL     1     108.198 128.369 135.704  0.00  0.00    +0.000 OA
ENDROOT
BRANCH   4   9
ATOM      9  O   UNL     1     111.434 129.195 137.389  0.00  0.00    +0.000 OA
BRANCH   9  14
ATOM     10  C   UNL     1     112.925 127.669 139.153  0.00  0.00    +0.000 A 
ATOM     11  C   UNL     1     112.701 128.181 140.086  0.00  0.00    +0.000 A 
ATOM     12  C   UNL     1     112.039 129.044 140.087  0.00  0.00    +0.000 A 
ATOM     13  C   UNL     1     111.602 129.393 139.155  0.00  0.00    +0.000 A 
ATOM     14  C   UNL     1     111.826 128.882 138.223  0.00  0.00    +0.000 A 
ATOM     15  C   UNL     1     112.487 128.019 138.222  0.00  0.00    +0.000 A 
ATOM     16  C   UNL     1     113.139 127.831 141.018  0.00  0.00    +0.000 A 
ATOM     17  C   UNL     1     112.914 128.343 141.950  0.00  0.00    +0.000 A 
ATOM     18  C   UNL     1     112.253 129.206 141.951  0.00  0.00    +0.000 A 
ATOM     19  O   UNL     1     111.815 129.556 141.020  0.00  0.00    +0.000 OA
ATOM     20  O   UNL     1     113.698 127.102 141.017  0.00  0.00    +0.000 OA
ATOM     21  O   UNL     1     113.500 126.919 139.153  0.00  0.00    +0.000 OA
BRANCH  18  22
ATOM     22  C   UNL     1     112.023 129.731 142.906  0.00  0.00    +0.000 A 
ATOM     23  C   UNL     1     112.156 130.793 142.980  0.00  0.00    +0.000 A 
ATOM     24  C   UNL     1     111.935 131.299 143.901  0.00  0.00    +0.000 A 
ATOM     25  C   UNL     1     111.581 130.742 144.747  0.00  0.00    +0.000 A 
ATOM     26  C   UNL     1     111.447 129.679 144.673  0.00  0.00    +0.000 A 
ATOM     27  C   UNL     1     111.669 129.174 143.752  0.00  0.00    +0.000 A 
BRANCH  25  28
ATOM     28  O   UNL     1     111.397 131.161 145.509  0.00  0.00    +0.000 OA
ATOM     29  C   UNL     1     111.100 131.911 145.957  0.00  0.00    +0.000 C 
ENDBRANCH  25  28
ENDBRANCH  18  22
ENDBRANCH   9  14
ENDBRANCH   4   9
BRANCH   3  30
ATOM     30  O   UNL     1     110.309 129.587 136.740  0.00  0.00    +0.000 OA
BRANCH  30  35
ATOM     31  C   UNL     1     109.135 131.229 137.382  0.00  0.00    +0.000 C 
ATOM     32  C   UNL     1     109.035 132.306 137.408  0.00  0.00    +0.000 C 
ATOM     33  C   UNL     1     109.751 131.602 137.007  0.00  0.00    +0.000 C 
ATOM     34  C   UNL     1     110.671 131.412 136.471  0.00  0.00    +0.000 C 
ATOM     35  C   UNL     1     110.771 130.336 136.445  0.00  0.00    +0.000 C 
ATOM     36  O   UNL     1     110.055 131.040 136.846  0.00  0.00    +0.000 OA
ATOM     37  C   UNL     1     108.422 131.693 137.788  0.00  0.00    +0.000 C 
ATOM     38  O   UNL     1     108.303 132.229 137.842  0.00  0.00    +0.000 OA
ATOM     39  O   UNL     1     110.946 132.091 136.288  0.00  0.00    +0.000 OA
BRANCH  33  40
ATOM     40  O   UNL     1     109.389 132.692 137.187  0.00  0.00    +0.000 OA
BRANCH  40  41
ATOM     41  C   UNL     1     110.126 133.030 137.654  0.00  0.00    +0.000 C 
ATOM     42  C   UNL     1     110.465 133.696 137.289  0.00  0.00    +0.000 C 
ATOM     43  O   UNL     1     110.431 132.746 138.327  0.00  0.00    +0.000 OA
ENDBRANCH  40  41
ENDBRANCH  33  40
ENDBRANCH  30  35
ENDBRANCH   3  30
BRANCH   6  44
ATOM     44  C   UNL     1     109.251 127.452 136.362  0.00  0.00    +0.000 C 
BRANCH  44  45
ATOM     45  O   UNL     1     109.794 126.817 136.252  0.00  0.00    +0.000 OA
BRANCH  45  49
ATOM     46  C   UNL     1     111.985 123.887 136.961  0.00  0.00    +0.000 C 
ATOM     47  C   UNL     1     111.462 124.227 136.077  0.00  0.00    +0.000 C 
ATOM     48  C   UNL     1     110.956 125.136 136.375  0.00  0.00    +0.000 C 
ATOM     49  C   UNL     1     110.315 125.970 136.123  0.00  0.00    +0.000 C 
ATOM     50  O   UNL     1     110.839 125.631 137.007  0.00  0.00    +0.000 OA
ATOM     51  C   UNL     1     111.344 124.722 136.708  0.00  0.00    +0.000 C 
ATOM     52  O   UNL     1     112.261 123.329 136.673  0.00  0.00    +0.000 OA
ATOM     53  O   UNL     1     111.954 123.567 136.232  0.00  0.00    +0.000 OA
ATOM     54  O   UNL     1     110.443 125.519 135.606  0.00  0.00    +0.000 OA
BRANCH  51  55
ATOM     55  C   UNL     1     111.748 124.418 137.305  0.00  0.00    +0.000 C 
ATOM     56  O   UNL     1     111.437 124.031 138.036  0.00  0.00    +0.000 OA
ENDBRANCH  51  55
ENDBRANCH  45  49
ENDBRANCH  44  45
ENDBRANCH   6  44
TORSDOF 12
ENDMDL
