MODEL 1
REMARK VINA RESULT:     -11.1      0.000      0.000
REMARK  Name = 131751745
REMARK  5 active torsions:
REMARK  status: ('A' for Active; 'I' for Inactive)
REMARK    1  A    between atoms: O_1  and  C_15
REMARK    2  A    between atoms: O_1  and  C_20
REMARK    3  A    between atoms: C_16  and  C_23
REMARK    4  A    between atoms: C_19  and  C_26
REMARK    5  A    between atoms: C_31  and  C_36
REMARK                            x       y       z     vdW  Elec       q    Type
REMARK                         _______ _______ _______ _____ _____    ______ ____
ROOT
ATOM      1  O   UNL     1     113.449 127.288 136.708  0.00  0.00    +0.000 OA
ATOM      2  O   UNL     1     112.517 128.191 138.815  0.00  0.00    +0.000 OA
ATOM      3  O   UNL     1     113.127 129.217 137.676  0.00  0.00    +0.000 OA
ATOM      4  C   UNL     1     112.834 127.076 137.980  0.00  0.00    +0.000 C 
ATOM      5  C   UNL     1     113.144 126.775 137.278  0.00  0.00    +0.000 C 
ATOM      6  C   UNL     1     112.828 127.890 138.113  0.00  0.00    +0.000 C 
ATOM      7  C   UNL     1     113.133 128.403 137.543  0.00  0.00    +0.000 C 
ATOM      8  C   UNL     1     113.443 128.102 136.840  0.00  0.00    +0.000 C 
ENDROOT
BRANCH   5  13
ATOM      9  O   UNL     1     111.801 126.064 136.619  0.00  0.00    +0.000 OA
ATOM     10  O   UNL     1     114.478 125.886 137.667  0.00  0.00    +0.000 OA
ATOM     11  O   UNL     1     113.170 123.518 136.745  0.00  0.00    +0.000 OA
ATOM     12  O   UNL     1     111.830 123.565 136.213  0.00  0.00    +0.000 OA
ATOM     13  C   UNL     1     113.150 125.960 137.144  0.00  0.00    +0.000 A 
ATOM     14  C   UNL     1     112.490 125.591 136.817  0.00  0.00    +0.000 A 
ATOM     15  C   UNL     1     113.817 125.516 137.339  0.00  0.00    +0.000 A 
ATOM     16  C   UNL     1     112.496 124.776 136.684  0.00  0.00    +0.000 A 
ATOM     17  C   UNL     1     111.109 125.685 136.277  0.00  0.00    +0.000 C 
ATOM     18  C   UNL     1     111.116 124.837 136.138  0.00  0.00    +0.000 C 
ATOM     19  C   UNL     1     113.824 124.702 137.206  0.00  0.00    +0.000 A 
ATOM     20  C   UNL     1     113.163 124.332 136.878  0.00  0.00    +0.000 A 
ATOM     21  C   UNL     1     111.814 124.380 136.343  0.00  0.00    +0.000 C 
BRANCH  17  23
ATOM     22  O   UNL     1     108.446 127.473 135.502  0.00  0.00    +0.000 OA
ATOM     23  C   UNL     1     110.443 126.132 136.083  0.00  0.00    +0.000 A 
ATOM     24  C   UNL     1     109.863 126.275 136.652  0.00  0.00    +0.000 A 
ATOM     25  C   UNL     1     110.358 126.435 135.321  0.00  0.00    +0.000 A 
ATOM     26  C   UNL     1     109.197 126.722 136.458  0.00  0.00    +0.000 A 
ATOM     27  C   UNL     1     109.692 126.883 135.127  0.00  0.00    +0.000 A 
ATOM     28  C   UNL     1     109.111 127.026 135.695  0.00  0.00    +0.000 A 
ENDBRANCH  17  23
ENDBRANCH   5  13
BRANCH   8  30
ATOM     29  O   UNL     1     113.684 128.426 135.470  0.00  0.00    +0.000 OA
ATOM     30  C   UNL     1     113.748 128.615 136.271  0.00  0.00    +0.000 C 
ENDBRANCH   8  30
BRANCH   4  31
ATOM     31  O   UNL     1     112.529 126.563 138.549  0.00  0.00    +0.000 OA
BRANCH  31  36
ATOM     32  O   UNL     1     113.488 126.910 139.550  0.00  0.00    +0.000 OA
ATOM     33  O   UNL     1     111.410 126.267 139.725  0.00  0.00    +0.000 OA
ATOM     34  O   UNL     1     111.810 126.466 141.314  0.00  0.00    +0.000 OA
ATOM     35  O   UNL     1     113.329 126.961 141.726  0.00  0.00    +0.000 OA
ATOM     36  C   UNL     1     112.729 126.662 139.344  0.00  0.00    +0.000 C 
ATOM     37  C   UNL     1     112.169 126.515 139.932  0.00  0.00    +0.000 C 
ATOM     38  C   UNL     1     112.370 126.614 140.726  0.00  0.00    +0.000 C 
ATOM     39  C   UNL     1     113.128 126.861 140.932  0.00  0.00    +0.000 C 
ATOM     40  C   UNL     1     113.688 127.009 140.344  0.00  0.00    +0.000 C 
ATOM     41  C   UNL     1     114.448 127.257 140.550  0.00  0.00    +0.000 C 
ENDBRANCH  31  36
ENDBRANCH   4  31
TORSDOF 5
ENDMDL
MODEL 2
REMARK VINA RESULT:     -10.7      1.984      3.963
REMARK  Name = 131751745
REMARK  5 active torsions:
REMARK  status: ('A' for Active; 'I' for Inactive)
REMARK    1  A    between atoms: O_1  and  C_15
REMARK    2  A    between atoms: O_1  and  C_20
REMARK    3  A    between atoms: C_16  and  C_23
REMARK    4  A    between atoms: C_19  and  C_26
REMARK    5  A    between atoms: C_31  and  C_36
REMARK                            x       y       z     vdW  Elec       q    Type
REMARK                         _______ _______ _______ _____ _____    ______ ____
ROOT
ATOM      1  O   UNL     1     112.256 128.547 135.199  0.00  0.00    +0.000 OA
ATOM      2  O   UNL     1     111.766 129.613 137.377  0.00  0.00    +0.000 OA
ATOM      3  O   UNL     1     112.998 130.183 136.439  0.00  0.00    +0.000 OA
ATOM      4  C   UNL     1     111.477 128.618 136.394  0.00  0.00    +0.000 C 
ATOM      5  C   UNL     1     111.640 128.263 135.668  0.00  0.00    +0.000 C 
ATOM      6  C   UNL     1     111.929 129.258 136.651  0.00  0.00    +0.000 C 
ATOM      7  C   UNL     1     112.545 129.543 136.182  0.00  0.00    +0.000 C 
ATOM      8  C   UNL     1     112.709 129.187 135.455  0.00  0.00    +0.000 C 
ENDROOT
BRANCH   5  13
ATOM      9  O   UNL     1     112.068 126.737 136.151  0.00  0.00    +0.000 OA
ATOM     10  O   UNL     1     110.337 128.516 134.689  0.00  0.00    +0.000 OA
ATOM     11  O   UNL     1     109.830 125.704 134.635  0.00  0.00    +0.000 OA
ATOM     12  O   UNL     1     110.674 124.780 135.354  0.00  0.00    +0.000 OA
ATOM     13  C   UNL     1     111.188 127.622 135.410  0.00  0.00    +0.000 A 
ATOM     14  C   UNL     1     111.387 126.857 135.641  0.00  0.00    +0.000 A 
ATOM     15  C   UNL     1     110.536 127.749 134.921  0.00  0.00    +0.000 A 
ATOM     16  C   UNL     1     110.935 126.216 135.383  0.00  0.00    +0.000 A 
ATOM     17  C   UNL     1     112.282 125.941 136.396  0.00  0.00    +0.000 C 
ATOM     18  C   UNL     1     111.810 125.275 136.127  0.00  0.00    +0.000 C 
ATOM     19  C   UNL     1     110.083 127.110 134.662  0.00  0.00    +0.000 A 
ATOM     20  C   UNL     1     110.283 126.343 134.894  0.00  0.00    +0.000 A 
ATOM     21  C   UNL     1     111.132 125.414 135.617  0.00  0.00    +0.000 C 
BRANCH  17  23
ATOM     22  O   UNL     1     114.891 125.446 138.354  0.00  0.00    +0.000 OA
ATOM     23  C   UNL     1     112.934 125.818 136.885  0.00  0.00    +0.000 A 
ATOM     24  C   UNL     1     113.679 125.689 136.555  0.00  0.00    +0.000 A 
ATOM     25  C   UNL     1     112.841 125.822 137.704  0.00  0.00    +0.000 A 
ATOM     26  C   UNL     1     114.331 125.566 137.045  0.00  0.00    +0.000 A 
ATOM     27  C   UNL     1     113.493 125.698 138.195  0.00  0.00    +0.000 A 
ATOM     28  C   UNL     1     114.238 125.570 137.865  0.00  0.00    +0.000 A 
ENDBRANCH  17  23
ENDBRANCH   5  13
BRANCH   8  30
ATOM     29  O   UNL     1     113.887 128.949 134.682  0.00  0.00    +0.000 OA
ATOM     30  C   UNL     1     113.325 129.472 134.986  0.00  0.00    +0.000 C 
ENDBRANCH   8  30
BRANCH   4  31
ATOM     31  O   UNL     1     110.861 128.333 136.863  0.00  0.00    +0.000 OA
BRANCH  31  36
ATOM     32  O   UNL     1     110.063 129.514 136.759  0.00  0.00    +0.000 OA
ATOM     33  O   UNL     1     110.278 128.073 138.384  0.00  0.00    +0.000 OA
ATOM     34  O   UNL     1     109.188 129.123 139.041  0.00  0.00    +0.000 OA
ATOM     35  O   UNL     1     108.681 130.434 138.176  0.00  0.00    +0.000 OA
ATOM     36  C   UNL     1     110.316 128.859 137.191  0.00  0.00    +0.000 C 
ATOM     37  C   UNL     1     110.024 128.728 137.952  0.00  0.00    +0.000 C 
ATOM     38  C   UNL     1     109.479 129.253 138.280  0.00  0.00    +0.000 C 
ATOM     39  C   UNL     1     109.226 129.908 137.848  0.00  0.00    +0.000 C 
ATOM     40  C   UNL     1     109.518 130.038 137.087  0.00  0.00    +0.000 C 
ATOM     41  C   UNL     1     109.264 130.694 136.655  0.00  0.00    +0.000 C 
ENDBRANCH  31  36
ENDBRANCH   4  31
TORSDOF 5
ENDMDL
MODEL 3
REMARK VINA RESULT:     -10.7      1.337      2.869
REMARK  Name = 131751745
REMARK  5 active torsions:
REMARK  status: ('A' for Active; 'I' for Inactive)
REMARK    1  A    between atoms: O_1  and  C_15
REMARK    2  A    between atoms: O_1  and  C_20
REMARK    3  A    between atoms: C_16  and  C_23
REMARK    4  A    between atoms: C_19  and  C_26
REMARK    5  A    between atoms: C_31  and  C_36
REMARK                            x       y       z     vdW  Elec       q    Type
REMARK                         _______ _______ _______ _____ _____    ______ ____
ROOT
ATOM      1  O   UNL     1     111.765 126.421 139.205  0.00  0.00    +0.000 OA
ATOM      2  O   UNL     1     111.539 128.826 138.670  0.00  0.00    +0.000 OA
ATOM      3  O   UNL     1     110.394 128.075 139.590  0.00  0.00    +0.000 OA
ATOM      4  C   UNL     1     112.262 127.598 138.567  0.00  0.00    +0.000 C 
ATOM      5  C   UNL     1     112.337 126.797 138.745  0.00  0.00    +0.000 C 
ATOM      6  C   UNL     1     111.614 128.025 138.848  0.00  0.00    +0.000 C 
ATOM      7  C   UNL     1     111.042 127.649 139.308  0.00  0.00    +0.000 C 
ATOM      8  C   UNL     1     111.117 126.846 139.486  0.00  0.00    +0.000 C 
ENDROOT
BRANCH   5  13
ATOM      9  O   UNL     1     112.246 126.104 137.243  0.00  0.00    +0.000 OA
ATOM     10  O   UNL     1     113.691 126.646 139.676  0.00  0.00    +0.000 OA
ATOM     11  O   UNL     1     114.929 125.090 137.623  0.00  0.00    +0.000 OA
ATOM     12  O   UNL     1     114.239 124.797 136.390  0.00  0.00    +0.000 OA
ATOM     13  C   UNL     1     112.985 126.370 138.464  0.00  0.00    +0.000 A 
ATOM     14  C   UNL     1     112.956 126.019 137.718  0.00  0.00    +0.000 A 
ATOM     15  C   UNL     1     113.662 126.294 138.929  0.00  0.00    +0.000 A 
ATOM     16  C   UNL     1     113.604 125.592 137.437  0.00  0.00    +0.000 A 
ATOM     17  C   UNL     1     112.209 125.741 136.465  0.00  0.00    +0.000 C 
ATOM     18  C   UNL     1     112.884 125.297 136.173  0.00  0.00    +0.000 C 
ATOM     19  C   UNL     1     114.310 125.868 138.649  0.00  0.00    +0.000 A 
ATOM     20  C   UNL     1     114.281 125.516 137.903  0.00  0.00    +0.000 A 
ATOM     21  C   UNL     1     113.586 125.222 136.663  0.00  0.00    +0.000 C 
BRANCH  17  23
ATOM     22  O   UNL     1     109.495 126.049 134.612  0.00  0.00    +0.000 OA
ATOM     23  C   UNL     1     111.531 125.818 136.002  0.00  0.00    +0.000 A 
ATOM     24  C   UNL     1     111.451 126.461 135.491  0.00  0.00    +0.000 A 
ATOM     25  C   UNL     1     110.933 125.252 136.049  0.00  0.00    +0.000 A 
ATOM     26  C   UNL     1     110.772 126.538 135.028  0.00  0.00    +0.000 A 
ATOM     27  C   UNL     1     110.254 125.328 135.586  0.00  0.00    +0.000 A 
ATOM     28  C   UNL     1     110.174 125.972 135.075  0.00  0.00    +0.000 A 
ENDBRANCH  17  23
ENDBRANCH   5  13
BRANCH   8  30
ATOM     29  O   UNL     1     110.348 125.683 139.798  0.00  0.00    +0.000 OA
ATOM     30  C   UNL     1     110.544 126.471 139.946  0.00  0.00    +0.000 C 
ENDBRANCH   8  30
BRANCH   4  31
ATOM     31  O   UNL     1     112.835 127.974 138.107  0.00  0.00    +0.000 OA
BRANCH  31  36
ATOM     32  O   UNL     1     113.288 128.866 139.127  0.00  0.00    +0.000 OA
ATOM     33  O   UNL     1     113.092 129.142 136.970  0.00  0.00    +0.000 OA
ATOM     34  O   UNL     1     113.674 130.618 137.422  0.00  0.00    +0.000 OA
ATOM     35  O   UNL     1     113.999 130.927 139.010  0.00  0.00    +0.000 OA
ATOM     36  C   UNL     1     113.126 128.713 138.333  0.00  0.00    +0.000 C 
ATOM     37  C   UNL     1     113.255 129.297 137.765  0.00  0.00    +0.000 C 
ATOM     38  C   UNL     1     113.545 130.034 137.990  0.00  0.00    +0.000 C 
ATOM     39  C   UNL     1     113.708 130.189 138.784  0.00  0.00    +0.000 C 
ATOM     40  C   UNL     1     113.579 129.604 139.352  0.00  0.00    +0.000 C 
ATOM     41  C   UNL     1     113.742 129.759 140.147  0.00  0.00    +0.000 C 
ENDBRANCH  31  36
ENDBRANCH   4  31
TORSDOF 5
ENDMDL
MODEL 4
REMARK VINA RESULT:     -10.6      1.992      3.956
REMARK  Name = 131751745
REMARK  5 active torsions:
REMARK  status: ('A' for Active; 'I' for Inactive)
REMARK    1  A    between atoms: O_1  and  C_15
REMARK    2  A    between atoms: O_1  and  C_20
REMARK    3  A    between atoms: C_16  and  C_23
REMARK    4  A    between atoms: C_19  and  C_26
REMARK    5  A    between atoms: C_31  and  C_36
REMARK                            x       y       z     vdW  Elec       q    Type
REMARK                         _______ _______ _______ _____ _____    ______ ____
ROOT
ATOM      1  O   UNL     1     113.275 128.953 135.262  0.00  0.00    +0.000 OA
ATOM      2  O   UNL     1     113.362 129.986 137.508  0.00  0.00    +0.000 OA
ATOM      3  O   UNL     1     114.619 130.187 136.459  0.00  0.00    +0.000 OA
ATOM      4  C   UNL     1     112.676 129.196 136.535  0.00  0.00    +0.000 C 
ATOM      5  C   UNL     1     112.647 128.852 135.787  0.00  0.00    +0.000 C 
ATOM      6  C   UNL     1     113.333 129.642 136.760  0.00  0.00    +0.000 C 
ATOM      7  C   UNL     1     113.962 129.742 136.235  0.00  0.00    +0.000 C 
ATOM      8  C   UNL     1     113.933 129.398 135.485  0.00  0.00    +0.000 C 
ENDROOT
BRANCH   5  13
ATOM      9  O   UNL     1     112.606 127.241 136.168  0.00  0.00    +0.000 OA
ATOM     10  O   UNL     1     111.404 129.570 134.972  0.00  0.00    +0.000 OA
ATOM     11  O   UNL     1     110.017 127.073 134.886  0.00  0.00    +0.000 OA
ATOM     12  O   UNL     1     110.585 125.883 135.473  0.00  0.00    +0.000 OA
ATOM     13  C   UNL     1     111.990 128.407 135.562  0.00  0.00    +0.000 A 
ATOM     14  C   UNL     1     111.953 127.603 135.744  0.00  0.00    +0.000 A 
ATOM     15  C   UNL     1     111.368 128.766 135.155  0.00  0.00    +0.000 A 
ATOM     16  C   UNL     1     111.296 127.158 135.519  0.00  0.00    +0.000 A 
ATOM     17  C   UNL     1     112.575 126.403 136.361  0.00  0.00    +0.000 C 
ATOM     18  C   UNL     1     111.890 125.941 136.126  0.00  0.00    +0.000 C 
ATOM     19  C   UNL     1     110.711 128.322 134.929  0.00  0.00    +0.000 A 
ATOM     20  C   UNL     1     110.675 127.517 135.112  0.00  0.00    +0.000 A 
ATOM     21  C   UNL     1     111.247 126.321 135.702  0.00  0.00    +0.000 C 
BRANCH  17  23
ATOM     22  O   UNL     1     115.065 124.977 137.990  0.00  0.00    +0.000 OA
ATOM     23  C   UNL     1     113.198 126.047 136.768  0.00  0.00    +0.000 A 
ATOM     24  C   UNL     1     113.844 125.747 136.352  0.00  0.00    +0.000 A 
ATOM     25  C   UNL     1     113.173 125.991 137.590  0.00  0.00    +0.000 A 
ATOM     26  C   UNL     1     114.466 125.390 136.760  0.00  0.00    +0.000 A 
ATOM     27  C   UNL     1     113.796 125.634 137.999  0.00  0.00    +0.000 A 
ATOM     28  C   UNL     1     114.443 125.334 137.583  0.00  0.00    +0.000 A 
ENDBRANCH  17  23
ENDBRANCH   5  13
BRANCH   8  30
ATOM     29  O   UNL     1     114.918 128.840 134.614  0.00  0.00    +0.000 OA
ATOM     30  C   UNL     1     114.562 129.498 134.961  0.00  0.00    +0.000 C 
ENDBRANCH   8  30
BRANCH   4  31
ATOM     31  O   UNL     1     112.047 129.096 137.060  0.00  0.00    +0.000 OA
BRANCH  31  36
ATOM     32  O   UNL     1     111.677 130.475 137.103  0.00  0.00    +0.000 OA
ATOM     33  O   UNL     1     111.598 128.926 138.638  0.00  0.00    +0.000 OA
ATOM     34  O   UNL     1     111.002 130.221 139.470  0.00  0.00    +0.000 OA
ATOM     35  O   UNL     1     110.856 131.685 138.724  0.00  0.00    +0.000 OA
ATOM     36  C   UNL     1     111.749 129.743 137.476  0.00  0.00    +0.000 C 
ATOM     37  C   UNL     1     111.525 129.659 138.266  0.00  0.00    +0.000 C 
ATOM     38  C   UNL     1     111.227 130.305 138.681  0.00  0.00    +0.000 C 
ATOM     39  C   UNL     1     111.154 131.037 138.308  0.00  0.00    +0.000 C 
ATOM     40  C   UNL     1     111.379 131.122 137.519  0.00  0.00    +0.000 C 
ATOM     41  C   UNL     1     111.306 131.854 137.145  0.00  0.00    +0.000 C 
ENDBRANCH  31  36
ENDBRANCH   4  31
TORSDOF 5
ENDMDL
MODEL 5
REMARK VINA RESULT:     -10.4      1.374      3.192
REMARK  Name = 131751745
REMARK  5 active torsions:
REMARK  status: ('A' for Active; 'I' for Inactive)
REMARK    1  A    between atoms: O_1  and  C_15
REMARK    2  A    between atoms: O_1  and  C_20
REMARK    3  A    between atoms: C_16  and  C_23
REMARK    4  A    between atoms: C_19  and  C_26
REMARK    5  A    between atoms: C_31  and  C_36
REMARK                            x       y       z     vdW  Elec       q    Type
REMARK                         _______ _______ _______ _____ _____    ______ ____
ROOT
ATOM      1  O   UNL     1     113.375 125.699 136.349  0.00  0.00    +0.000 OA
ATOM      2  O   UNL     1     113.169 125.556 138.810  0.00  0.00    +0.000 OA
ATOM      3  O   UNL     1     114.643 125.365 138.094  0.00  0.00    +0.000 OA
ATOM      4  C   UNL     1     112.570 125.747 137.527  0.00  0.00    +0.000 C 
ATOM      5  C   UNL     1     112.638 125.795 136.707  0.00  0.00    +0.000 C 
ATOM      6  C   UNL     1     113.237 125.604 137.990  0.00  0.00    +0.000 C 
ATOM      7  C   UNL     1     113.974 125.508 137.632  0.00  0.00    +0.000 C 
ATOM      8  C   UNL     1     114.044 125.556 136.811  0.00  0.00    +0.000 C 
ENDROOT
BRANCH   5  13
ATOM      9  O   UNL     1     112.443 127.294 136.031  0.00  0.00    +0.000 OA
ATOM     10  O   UNL     1     111.528 124.598 136.469  0.00  0.00    +0.000 OA
ATOM     11  O   UNL     1     109.967 126.366 134.855  0.00  0.00    +0.000 OA
ATOM     12  O   UNL     1     110.391 127.724 134.612  0.00  0.00    +0.000 OA
ATOM     13  C   UNL     1     111.971 125.939 136.244  0.00  0.00    +0.000 A 
ATOM     14  C   UNL     1     111.858 126.679 135.900  0.00  0.00    +0.000 A 
ATOM     15  C   UNL     1     111.416 125.340 136.125  0.00  0.00    +0.000 A 
ATOM     16  C   UNL     1     111.190 126.823 135.437  0.00  0.00    +0.000 A 
ATOM     17  C   UNL     1     112.332 128.069 135.676  0.00  0.00    +0.000 C 
ATOM     18  C   UNL     1     111.636 128.218 135.194  0.00  0.00    +0.000 C 
ATOM     19  C   UNL     1     110.748 125.482 135.662  0.00  0.00    +0.000 A 
ATOM     20  C   UNL     1     110.635 126.224 135.318  0.00  0.00    +0.000 A 
ATOM     21  C   UNL     1     111.062 127.590 135.074  0.00  0.00    +0.000 C 
BRANCH  17  23
ATOM     22  O   UNL     1     114.559 130.456 136.158  0.00  0.00    +0.000 OA
ATOM     23  C   UNL     1     112.889 128.666 135.797  0.00  0.00    +0.000 A 
ATOM     24  C   UNL     1     112.742 129.261 136.349  0.00  0.00    +0.000 A 
ATOM     25  C   UNL     1     113.591 128.667 135.365  0.00  0.00    +0.000 A 
ATOM     26  C   UNL     1     113.299 129.857 136.469  0.00  0.00    +0.000 A 
ATOM     27  C   UNL     1     114.149 129.264 135.485  0.00  0.00    +0.000 A 
ATOM     28  C   UNL     1     114.003 129.859 136.038  0.00  0.00    +0.000 A 
ENDBRANCH  17  23
ENDBRANCH   5  13
BRANCH   8  30
ATOM     29  O   UNL     1     114.851 125.001 135.771  0.00  0.00    +0.000 OA
ATOM     30  C   UNL     1     114.781 125.460 136.452  0.00  0.00    +0.000 C 
ENDBRANCH   8  30
BRANCH   4  31
ATOM     31  O   UNL     1     111.833 125.843 137.885  0.00  0.00    +0.000 OA
BRANCH  31  36
ATOM     32  O   UNL     1     112.194 126.992 138.654  0.00  0.00    +0.000 OA
ATOM     33  O   UNL     1     110.835 125.343 139.100  0.00  0.00    +0.000 OA
ATOM     34  O   UNL     1     110.697 126.242 140.477  0.00  0.00    +0.000 OA
ATOM     35  O   UNL     1     111.557 127.641 140.638  0.00  0.00    +0.000 OA
ATOM     36  C   UNL     1     111.764 126.293 138.574  0.00  0.00    +0.000 C 
ATOM     37  C   UNL     1     111.264 126.043 139.182  0.00  0.00    +0.000 C 
ATOM     38  C   UNL     1     111.196 126.492 139.869  0.00  0.00    +0.000 C 
ATOM     39  C   UNL     1     111.625 127.191 139.950  0.00  0.00    +0.000 C 
ATOM     40  C   UNL     1     112.124 127.441 139.343  0.00  0.00    +0.000 C 
ATOM     41  C   UNL     1     112.555 128.141 139.423  0.00  0.00    +0.000 C 
ENDBRANCH  31  36
ENDBRANCH   4  31
TORSDOF 5
ENDMDL
MODEL 6
REMARK VINA RESULT:     -10.3      1.571      4.463
REMARK  Name = 131751745
REMARK  5 active torsions:
REMARK  status: ('A' for Active; 'I' for Inactive)
REMARK    1  A    between atoms: O_1  and  C_15
REMARK    2  A    between atoms: O_1  and  C_20
REMARK    3  A    between atoms: C_16  and  C_23
REMARK    4  A    between atoms: C_19  and  C_26
REMARK    5  A    between atoms: C_31  and  C_36
REMARK                            x       y       z     vdW  Elec       q    Type
REMARK                         _______ _______ _______ _____ _____    ______ ____
ROOT
ATOM      1  O   UNL     1     110.841 125.577 138.666  0.00  0.00    +0.000 OA
ATOM      2  O   UNL     1     109.608 127.173 137.232  0.00  0.00    +0.000 OA
ATOM      3  O   UNL     1     109.043 126.811 138.739  0.00  0.00    +0.000 OA
ATOM      4  C   UNL     1     110.713 126.289 137.435  0.00  0.00    +0.000 C 
ATOM      5  C   UNL     1     111.124 125.758 137.912  0.00  0.00    +0.000 C 
ATOM      6  C   UNL     1     110.019 126.641 137.710  0.00  0.00    +0.000 C 
ATOM      7  C   UNL     1     109.736 126.460 138.463  0.00  0.00    +0.000 C 
ATOM      8  C   UNL     1     110.147 125.928 138.942  0.00  0.00    +0.000 C 
ENDROOT
BRANCH   5  13
ATOM      9  O   UNL     1     112.569 126.217 138.578  0.00  0.00    +0.000 OA
ATOM     10  O   UNL     1     111.054 124.619 136.720  0.00  0.00    +0.000 OA
ATOM     11  O   UNL     1     113.898 124.349 136.811  0.00  0.00    +0.000 OA
ATOM     12  O   UNL     1     114.692 125.131 137.727  0.00  0.00    +0.000 OA
ATOM     13  C   UNL     1     111.818 125.406 137.637  0.00  0.00    +0.000 A 
ATOM     14  C   UNL     1     112.546 125.623 137.958  0.00  0.00    +0.000 A 
ATOM     15  C   UNL     1     111.783 124.836 137.041  0.00  0.00    +0.000 A 
ATOM     16  C   UNL     1     113.240 125.271 137.683  0.00  0.00    +0.000 A 
ATOM     17  C   UNL     1     113.325 126.448 138.916  0.00  0.00    +0.000 C 
ATOM     18  C   UNL     1     114.047 126.081 138.629  0.00  0.00    +0.000 C 
ATOM     19  C   UNL     1     112.476 124.484 136.766  0.00  0.00    +0.000 A 
ATOM     20  C   UNL     1     113.205 124.701 137.087  0.00  0.00    +0.000 A 
ATOM     21  C   UNL     1     114.004 125.488 138.009  0.00  0.00    +0.000 C 
BRANCH  17  23
ATOM     22  O   UNL     1     113.453 128.725 141.301  0.00  0.00    +0.000 OA
ATOM     23  C   UNL     1     113.357 127.017 139.512  0.00  0.00    +0.000 A 
ATOM     24  C   UNL     1     113.477 127.810 139.319  0.00  0.00    +0.000 A 
ATOM     25  C   UNL     1     113.269 126.793 140.301  0.00  0.00    +0.000 A 
ATOM     26  C   UNL     1     113.509 128.379 139.916  0.00  0.00    +0.000 A 
ATOM     27  C   UNL     1     113.301 127.363 140.898  0.00  0.00    +0.000 A 
ATOM     28  C   UNL     1     113.421 128.156 140.705  0.00  0.00    +0.000 A 
ENDBRANCH  17  23
ENDBRANCH   5  13
BRANCH   8  30
ATOM     29  O   UNL     1     109.998 124.999 140.017  0.00  0.00    +0.000 OA
ATOM     30  C   UNL     1     109.864 125.747 139.696  0.00  0.00    +0.000 C 
ENDBRANCH   8  30
BRANCH   4  31
ATOM     31  O   UNL     1     110.996 126.470 136.681  0.00  0.00    +0.000 OA
BRANCH  31  36
ATOM     32  O   UNL     1     111.236 127.853 136.949  0.00  0.00    +0.000 OA
ATOM     33  O   UNL     1     110.599 126.841 135.123  0.00  0.00    +0.000 OA
ATOM     34  O   UNL     1     110.641 128.409 134.612  0.00  0.00    +0.000 OA
ATOM     35  O   UNL     1     111.080 129.607 135.659  0.00  0.00    +0.000 OA
ATOM     36  C   UNL     1     111.017 127.255 136.425  0.00  0.00    +0.000 C 
ATOM     37  C   UNL     1     110.818 127.440 135.646  0.00  0.00    +0.000 C 
ATOM     38  C   UNL     1     110.839 128.224 135.391  0.00  0.00    +0.000 C 
ATOM     39  C   UNL     1     111.058 128.822 135.914  0.00  0.00    +0.000 C 
ATOM     40  C   UNL     1     111.257 128.637 136.693  0.00  0.00    +0.000 C 
ATOM     41  C   UNL     1     111.477 129.236 137.217  0.00  0.00    +0.000 C 
ENDBRANCH  31  36
ENDBRANCH   4  31
TORSDOF 5
ENDMDL
MODEL 7
REMARK VINA RESULT:     -10.3      9.476     11.805
REMARK  Name = 131751745
REMARK  5 active torsions:
REMARK  status: ('A' for Active; 'I' for Inactive)
REMARK    1  A    between atoms: O_1  and  C_15
REMARK    2  A    between atoms: O_1  and  C_20
REMARK    3  A    between atoms: C_16  and  C_23
REMARK    4  A    between atoms: C_19  and  C_26
REMARK    5  A    between atoms: C_31  and  C_36
REMARK                            x       y       z     vdW  Elec       q    Type
REMARK                         _______ _______ _______ _____ _____    ______ ____
ROOT
ATOM      1  O   UNL     1     106.194 124.999 145.600  0.00  0.00    +0.000 OA
ATOM      2  O   UNL     1     105.376 127.303 145.216  0.00  0.00    +0.000 OA
ATOM      3  O   UNL     1     105.420 126.224 143.968  0.00  0.00    +0.000 OA
ATOM      4  C   UNL     1     105.900 126.306 146.096  0.00  0.00    +0.000 C 
ATOM      5  C   UNL     1     106.172 125.539 146.224  0.00  0.00    +0.000 C 
ATOM      6  C   UNL     1     105.649 126.535 145.344  0.00  0.00    +0.000 C 
ATOM      7  C   UNL     1     105.671 125.996 144.720  0.00  0.00    +0.000 C 
ATOM      8  C   UNL     1     105.943 125.227 144.848  0.00  0.00    +0.000 C 
ENDROOT
BRANCH   5  13
ATOM      9  O   UNL     1     105.047 124.989 147.308  0.00  0.00    +0.000 OA
ATOM     10  O   UNL     1     107.771 125.632 146.623  0.00  0.00    +0.000 OA
ATOM     11  O   UNL     1     107.179 124.622 149.230  0.00  0.00    +0.000 OA
ATOM     12  O   UNL     1     105.828 124.288 149.612  0.00  0.00    +0.000 OA
ATOM     13  C   UNL     1     106.423 125.309 146.976  0.00  0.00    +0.000 A 
ATOM     14  C   UNL     1     105.877 125.033 147.528  0.00  0.00    +0.000 A 
ATOM     15  C   UNL     1     107.223 125.356 147.175  0.00  0.00    +0.000 A 
ATOM     16  C   UNL     1     106.128 124.804 148.279  0.00  0.00    +0.000 A 
ATOM     17  C   UNL     1     104.471 124.702 147.878  0.00  0.00    +0.000 C 
ATOM     18  C   UNL     1     104.734 124.463 148.661  0.00  0.00    +0.000 C 
ATOM     19  C   UNL     1     107.475 125.127 147.927  0.00  0.00    +0.000 A 
ATOM     20  C   UNL     1     106.927 124.851 148.479  0.00  0.00    +0.000 A 
ATOM     21  C   UNL     1     105.568 124.515 148.862  0.00  0.00    +0.000 C 
BRANCH  17  23
ATOM     22  O   UNL     1     101.277 124.519 147.070  0.00  0.00    +0.000 OA
ATOM     23  C   UNL     1     103.673 124.656 147.676  0.00  0.00    +0.000 A 
ATOM     24  C   UNL     1     103.397 124.021 147.228  0.00  0.00    +0.000 A 
ATOM     25  C   UNL     1     103.151 125.245 147.923  0.00  0.00    +0.000 A 
ATOM     26  C   UNL     1     102.598 123.976 147.026  0.00  0.00    +0.000 A 
ATOM     27  C   UNL     1     102.352 125.200 147.721  0.00  0.00    +0.000 A 
ATOM     28  C   UNL     1     102.076 124.565 147.272  0.00  0.00    +0.000 A 
ENDBRANCH  17  23
ENDBRANCH   5  13
BRANCH   8  30
ATOM     29  O   UNL     1     105.958 123.877 144.380  0.00  0.00    +0.000 OA
ATOM     30  C   UNL     1     105.965 124.688 144.224  0.00  0.00    +0.000 C 
ENDBRANCH   8  30
BRANCH   4  31
ATOM     31  O   UNL     1     105.878 126.845 146.720  0.00  0.00    +0.000 OA
BRANCH  31  36
ATOM     32  O   UNL     1     106.838 127.754 146.178  0.00  0.00    +0.000 OA
ATOM     33  O   UNL     1     105.035 128.114 147.354  0.00  0.00    +0.000 OA
ATOM     34  O   UNL     1     105.573 129.657 147.130  0.00  0.00    +0.000 OA
ATOM     35  O   UNL     1     106.955 129.932 146.271  0.00  0.00    +0.000 OA
ATOM     36  C   UNL     1     106.147 127.618 146.608  0.00  0.00    +0.000 C 
ATOM     37  C   UNL     1     105.726 128.252 146.925  0.00  0.00    +0.000 C 
ATOM     38  C   UNL     1     105.995 129.023 146.812  0.00  0.00    +0.000 C 
ATOM     39  C   UNL     1     106.685 129.160 146.384  0.00  0.00    +0.000 C 
ATOM     40  C   UNL     1     107.107 128.526 146.066  0.00  0.00    +0.000 C 
ATOM     41  C   UNL     1     107.798 128.664 145.637  0.00  0.00    +0.000 C 
ENDBRANCH  31  36
ENDBRANCH   4  31
TORSDOF 5
ENDMDL
MODEL 8
REMARK VINA RESULT:     -10.2      1.425      4.079
REMARK  Name = 131751745
REMARK  5 active torsions:
REMARK  status: ('A' for Active; 'I' for Inactive)
REMARK    1  A    between atoms: O_1  and  C_15
REMARK    2  A    between atoms: O_1  and  C_20
REMARK    3  A    between atoms: C_16  and  C_23
REMARK    4  A    between atoms: C_19  and  C_26
REMARK    5  A    between atoms: C_31  and  C_36
REMARK                            x       y       z     vdW  Elec       q    Type
REMARK                         _______ _______ _______ _____ _____    ______ ____
ROOT
ATOM      1  O   UNL     1     110.999 126.723 138.681  0.00  0.00    +0.000 OA
ATOM      2  O   UNL     1     111.730 129.083 138.810  0.00  0.00    +0.000 OA
ATOM      3  O   UNL     1     112.009 128.063 140.076  0.00  0.00    +0.000 OA
ATOM      4  C   UNL     1     111.103 128.019 138.090  0.00  0.00    +0.000 C 
ATOM      5  C   UNL     1     110.860 127.233 138.047  0.00  0.00    +0.000 C 
ATOM      6  C   UNL     1     111.486 128.297 138.766  0.00  0.00    +0.000 C 
ATOM      7  C   UNL     1     111.626 127.787 139.400  0.00  0.00    +0.000 C 
ATOM      8  C   UNL     1     111.382 126.999 139.357  0.00  0.00    +0.000 C 
ENDROOT
BRANCH   5  13
ATOM      9  O   UNL     1     111.657 126.170 137.058  0.00  0.00    +0.000 OA
ATOM     10  O   UNL     1     109.327 127.738 137.703  0.00  0.00    +0.000 OA
ATOM     11  O   UNL     1     109.326 126.124 135.344  0.00  0.00    +0.000 OA
ATOM     12  O   UNL     1     110.472 125.325 134.986  0.00  0.00    +0.000 OA
ATOM     13  C   UNL     1     110.477 126.955 137.371  0.00  0.00    +0.000 A 
ATOM     14  C   UNL     1     110.859 126.426 136.868  0.00  0.00    +0.000 A 
ATOM     15  C   UNL     1     109.710 127.208 137.199  0.00  0.00    +0.000 A 
ATOM     16  C   UNL     1     110.476 126.148 136.192  0.00  0.00    +0.000 A 
ATOM     17  C   UNL     1     112.061 125.618 136.538  0.00  0.00    +0.000 C 
ATOM     18  C   UNL     1     111.661 125.330 135.834  0.00  0.00    +0.000 C 
ATOM     19  C   UNL     1     109.326 126.931 136.523  0.00  0.00    +0.000 A 
ATOM     20  C   UNL     1     109.710 126.401 136.020  0.00  0.00    +0.000 A 
ATOM     21  C   UNL     1     110.864 125.597 135.660  0.00  0.00    +0.000 C 
BRANCH  17  23
ATOM     22  O   UNL     1     115.126 124.614 137.237  0.00  0.00    +0.000 OA
ATOM     23  C   UNL     1     112.828 125.368 136.712  0.00  0.00    +0.000 A 
ATOM     24  C   UNL     1     113.475 125.807 136.451  0.00  0.00    +0.000 A 
ATOM     25  C   UNL     1     112.945 124.677 137.148  0.00  0.00    +0.000 A 
ATOM     26  C   UNL     1     114.241 125.555 136.626  0.00  0.00    +0.000 A 
ATOM     27  C   UNL     1     113.712 124.425 137.323  0.00  0.00    +0.000 A 
ATOM     28  C   UNL     1     114.360 124.865 137.062  0.00  0.00    +0.000 A 
ENDBRANCH  17  23
ENDBRANCH   5  13
BRANCH   8  30
ATOM     29  O   UNL     1     110.962 125.915 140.188  0.00  0.00    +0.000 OA
ATOM     30  C   UNL     1     111.521 126.489 139.990  0.00  0.00    +0.000 C 
ENDBRANCH   8  30
BRANCH   4  31
ATOM     31  O   UNL     1     110.964 128.529 137.457  0.00  0.00    +0.000 OA
BRANCH  31  36
ATOM     32  O   UNL     1     112.337 128.760 137.135  0.00  0.00    +0.000 OA
ATOM     33  O   UNL     1     110.608 130.089 137.054  0.00  0.00    +0.000 OA
ATOM     34  O   UNL     1     111.802 131.099 136.530  0.00  0.00    +0.000 OA
ATOM     35  O   UNL     1     113.353 130.550 136.409  0.00  0.00    +0.000 OA
ATOM     36  C   UNL     1     111.562 129.035 137.195  0.00  0.00    +0.000 C 
ATOM     37  C   UNL     1     111.384 129.815 136.993  0.00  0.00    +0.000 C 
ATOM     38  C   UNL     1     111.981 130.320 136.732  0.00  0.00    +0.000 C 
ATOM     39  C   UNL     1     112.756 130.045 136.671  0.00  0.00    +0.000 C 
ATOM     40  C   UNL     1     112.934 129.265 136.873  0.00  0.00    +0.000 C 
ATOM     41  C   UNL     1     113.710 128.990 136.812  0.00  0.00    +0.000 C 
ENDBRANCH  31  36
ENDBRANCH   4  31
TORSDOF 5
ENDMDL
MODEL 9
REMARK VINA RESULT:     -10.2      2.140      4.090
REMARK  Name = 131751745
REMARK  5 active torsions:
REMARK  status: ('A' for Active; 'I' for Inactive)
REMARK    1  A    between atoms: O_1  and  C_15
REMARK    2  A    between atoms: O_1  and  C_20
REMARK    3  A    between atoms: C_16  and  C_23
REMARK    4  A    between atoms: C_19  and  C_26
REMARK    5  A    between atoms: C_31  and  C_36
REMARK                            x       y       z     vdW  Elec       q    Type
REMARK                         _______ _______ _______ _____ _____    ______ ____
ROOT
ATOM      1  O   UNL     1     111.935 130.491 136.814  0.00  0.00    +0.000 OA
ATOM      2  O   UNL     1     112.203 130.681 139.266  0.00  0.00    +0.000 OA
ATOM      3  O   UNL     1     110.695 130.706 138.597  0.00  0.00    +0.000 OA
ATOM      4  C   UNL     1     112.778 130.542 137.965  0.00  0.00    +0.000 C 
ATOM      5  C   UNL     1     112.689 130.479 137.148  0.00  0.00    +0.000 C 
ATOM      6  C   UNL     1     112.114 130.618 138.449  0.00  0.00    +0.000 C 
ATOM      7  C   UNL     1     111.360 130.630 138.115  0.00  0.00    +0.000 C 
ATOM      8  C   UNL     1     111.270 130.567 137.296  0.00  0.00    +0.000 C 
ENDROOT
BRANCH   5  13
ATOM      9  O   UNL     1     113.000 129.013 136.443  0.00  0.00    +0.000 OA
ATOM     10  O   UNL     1     113.678 131.775 136.899  0.00  0.00    +0.000 OA
ATOM     11  O   UNL     1     115.346 130.179 135.214  0.00  0.00    +0.000 OA
ATOM     12  O   UNL     1     115.040 128.791 134.961  0.00  0.00    +0.000 OA
ATOM     13  C   UNL     1     113.353 130.403 136.665  0.00  0.00    +0.000 A 
ATOM     14  C   UNL     1     113.522 129.680 136.306  0.00  0.00    +0.000 A 
ATOM     15  C   UNL     1     113.848 131.051 136.540  0.00  0.00    +0.000 A 
ATOM     16  C   UNL     1     114.187 129.605 135.822  0.00  0.00    +0.000 A 
ATOM     17  C   UNL     1     113.171 128.256 136.073  0.00  0.00    +0.000 C 
ATOM     18  C   UNL     1     113.862 128.178 135.569  0.00  0.00    +0.000 C 
ATOM     19  C   UNL     1     114.512 130.977 136.056  0.00  0.00    +0.000 A 
ATOM     20  C   UNL     1     114.681 130.253 135.697  0.00  0.00    +0.000 A 
ATOM     21  C   UNL     1     114.374 128.857 135.443  0.00  0.00    +0.000 C 
BRANCH  17  23
ATOM     22  O   UNL     1     111.185 125.669 136.579  0.00  0.00    +0.000 OA
ATOM     23  C   UNL     1     112.674 127.609 136.199  0.00  0.00    +0.000 A 
ATOM     24  C   UNL     1     111.954 127.558 135.800  0.00  0.00    +0.000 A 
ATOM     25  C   UNL     1     112.898 127.015 136.725  0.00  0.00    +0.000 A 
ATOM     26  C   UNL     1     111.458 126.911 135.927  0.00  0.00    +0.000 A 
ATOM     27  C   UNL     1     112.402 126.367 136.852  0.00  0.00    +0.000 A 
ATOM     28  C   UNL     1     111.682 126.316 136.453  0.00  0.00    +0.000 A 
ENDBRANCH  17  23
ENDBRANCH   5  13
BRANCH   8  30
ATOM     29  O   UNL     1     110.394 130.950 136.235  0.00  0.00    +0.000 OA
ATOM     30  C   UNL     1     110.516 130.579 136.962  0.00  0.00    +0.000 C 
ENDBRANCH   8  30
BRANCH   4  31
ATOM     31  O   UNL     1     113.532 130.529 138.300  0.00  0.00    +0.000 OA
BRANCH  31  36
ATOM     32  O   UNL     1     113.332 129.329 139.049  0.00  0.00    +0.000 OA
ATOM     33  O   UNL     1     114.516 131.108 139.492  0.00  0.00    +0.000 OA
ATOM     34  O   UNL     1     114.807 130.197 140.836  0.00  0.00    +0.000 OA
ATOM     35  O   UNL     1     114.114 128.707 140.989  0.00  0.00    +0.000 OA
ATOM     36  C   UNL     1     113.678 130.074 138.973  0.00  0.00    +0.000 C 
ATOM     37  C   UNL     1     114.170 130.363 139.569  0.00  0.00    +0.000 C 
ATOM     38  C   UNL     1     114.315 129.908 140.240  0.00  0.00    +0.000 C 
ATOM     39  C   UNL     1     113.969 129.163 140.317  0.00  0.00    +0.000 C 
ATOM     40  C   UNL     1     113.477 128.874 139.721  0.00  0.00    +0.000 C 
ATOM     41  C   UNL     1     113.131 128.128 139.797  0.00  0.00    +0.000 C 
ENDBRANCH  31  36
ENDBRANCH   4  31
TORSDOF 5
ENDMDL
MODEL 10
REMARK VINA RESULT:     -10.2      1.415      4.647
REMARK  Name = 131751745
REMARK  5 active torsions:
REMARK  status: ('A' for Active; 'I' for Inactive)
REMARK    1  A    between atoms: O_1  and  C_15
REMARK    2  A    between atoms: O_1  and  C_20
REMARK    3  A    between atoms: C_16  and  C_23
REMARK    4  A    between atoms: C_19  and  C_26
REMARK    5  A    between atoms: C_31  and  C_36
REMARK                            x       y       z     vdW  Elec       q    Type
REMARK                         _______ _______ _______ _____ _____    ______ ____
ROOT
ATOM      1  O   UNL     1     112.047 128.252 138.750  0.00  0.00    +0.000 OA
ATOM      2  O   UNL     1     109.615 128.031 138.350  0.00  0.00    +0.000 OA
ATOM      3  O   UNL     1     110.280 127.435 139.737  0.00  0.00    +0.000 OA
ATOM      4  C   UNL     1     110.904 128.476 137.923  0.00  0.00    +0.000 C 
ATOM      5  C   UNL     1     111.714 128.550 138.057  0.00  0.00    +0.000 C 
ATOM      6  C   UNL     1     110.425 128.105 138.483  0.00  0.00    +0.000 C 
ATOM      7  C   UNL     1     110.757 127.807 139.177  0.00  0.00    +0.000 C 
ATOM      8  C   UNL     1     111.569 127.880 139.311  0.00  0.00    +0.000 C 
ENDROOT
BRANCH   5  13
ATOM      9  O   UNL     1     112.766 127.629 137.169  0.00  0.00    +0.000 OA
ATOM     10  O   UNL     1     111.613 130.182 137.839  0.00  0.00    +0.000 OA
ATOM     11  O   UNL     1     113.629 130.038 135.819  0.00  0.00    +0.000 OA
ATOM     12  O   UNL     1     114.232 128.779 135.454  0.00  0.00    +0.000 OA
ATOM     13  C   UNL     1     112.193 128.921 137.497  0.00  0.00    +0.000 A 
ATOM     14  C   UNL     1     112.723 128.478 137.047  0.00  0.00    +0.000 A 
ATOM     15  C   UNL     1     112.143 129.738 137.388  0.00  0.00    +0.000 A 
ATOM     16  C   UNL     1     113.202 128.850 136.487  0.00  0.00    +0.000 A 
ATOM     17  C   UNL     1     113.316 127.160 136.703  0.00  0.00    +0.000 C 
ATOM     18  C   UNL     1     113.814 127.548 136.120  0.00  0.00    +0.000 C 
ATOM     19  C   UNL     1     112.621 130.110 136.829  0.00  0.00    +0.000 A 
ATOM     20  C   UNL     1     113.151 129.666 136.378  0.00  0.00    +0.000 A 
ATOM     21  C   UNL     1     113.757 128.398 136.012  0.00  0.00    +0.000 C 
BRANCH  17  23
ATOM     22  O   UNL     1     113.511 123.896 137.147  0.00  0.00    +0.000 OA
ATOM     23  C   UNL     1     113.364 126.344 136.814  0.00  0.00    +0.000 A 
ATOM     24  C   UNL     1     112.915 125.836 136.343  0.00  0.00    +0.000 A 
ATOM     25  C   UNL     1     113.862 126.036 137.395  0.00  0.00    +0.000 A 
ATOM     26  C   UNL     1     112.965 125.020 136.455  0.00  0.00    +0.000 A 
ATOM     27  C   UNL     1     113.911 125.220 137.506  0.00  0.00    +0.000 A 
ATOM     28  C   UNL     1     113.462 124.712 137.036  0.00  0.00    +0.000 A 
ENDBRANCH  17  23
ENDBRANCH   5  13
BRANCH   8  30
ATOM     29  O   UNL     1     112.506 127.997 140.383  0.00  0.00    +0.000 OA
ATOM     30  C   UNL     1     111.901 127.582 140.004  0.00  0.00    +0.000 C 
ENDBRANCH   8  30
BRANCH   4  31
ATOM     31  O   UNL     1     110.572 128.775 137.230  0.00  0.00    +0.000 OA
BRANCH  31  36
ATOM     32  O   UNL     1     110.148 127.516 136.702  0.00  0.00    +0.000 OA
ATOM     33  O   UNL     1     109.226 129.492 136.600  0.00  0.00    +0.000 OA
ATOM     34  O   UNL     1     108.129 128.593 135.758  0.00  0.00    +0.000 OA
ATOM     35  O   UNL     1     108.378 126.976 135.545  0.00  0.00    +0.000 OA
ATOM     36  C   UNL     1     110.023 128.325 136.808  0.00  0.00    +0.000 C 
ATOM     37  C   UNL     1     109.350 128.683 136.493  0.00  0.00    +0.000 C 
ATOM     38  C   UNL     1     108.802 128.234 136.073  0.00  0.00    +0.000 C 
ATOM     39  C   UNL     1     108.926 127.426 135.966  0.00  0.00    +0.000 C 
ATOM     40  C   UNL     1     109.599 127.067 136.281  0.00  0.00    +0.000 C 
ATOM     41  C   UNL     1     109.724 126.258 136.174  0.00  0.00    +0.000 C 
ENDBRANCH  31  36
ENDBRANCH   4  31
TORSDOF 5
ENDMDL
