MODEL 1
REMARK VINA RESULT:      -9.4      0.000      0.000
REMARK  Name = 44257647
REMARK  4 active torsions:
REMARK  status: ('A' for Active; 'I' for Inactive)
REMARK    1  A    between atoms: O_3  and  C_16
REMARK    2  A    between atoms: O_4  and  C_17
REMARK    3  A    between atoms: C_8  and  C_10
REMARK    4  A    between atoms: C_20  and  C_22
REMARK                            x       y       z     vdW  Elec       q    Type
REMARK                         _______ _______ _______ _____ _____    ______ ____
ROOT
ATOM      1  O   UNL     1     112.609 126.518 136.359  0.00  0.00    +0.000 OA
ATOM      2  O   UNL     1     110.798 124.829 135.829  0.00  0.00    +0.000 OA
ATOM      3  C   UNL     1     111.714 127.569 135.905  0.00  0.00    +0.000 A 
ATOM      4  C   UNL     1     111.851 126.766 136.040  0.00  0.00    +0.000 A 
ATOM      5  C   UNL     1     111.262 126.213 135.868  0.00  0.00    +0.000 A 
ATOM      6  C   UNL     1     110.990 127.819 135.599  0.00  0.00    +0.000 A 
ATOM      7  C   UNL     1     110.538 126.463 135.562  0.00  0.00    +0.000 A 
ATOM      8  C   UNL     1     110.402 127.265 135.427  0.00  0.00    +0.000 A 
ATOM      9  C   UNL     1     111.391 125.375 136.004  0.00  0.00    +0.000 A 
ATOM     10  C   UNL     1     112.757 125.684 136.502  0.00  0.00    +0.000 A 
ATOM     11  C   UNL     1     112.144 125.108 136.323  0.00  0.00    +0.000 A 
ENDROOT
BRANCH   3  15
ATOM     12  O   UNL     1     113.048 129.024 136.717  0.00  0.00    +0.000 OA
ATOM     13  O   UNL     1     111.904 128.461 137.451  0.00  0.00    +0.000 OA
ATOM     14  C   UNL     1     113.367 128.919 135.964  0.00  0.00    +0.000 C 
ATOM     15  C   UNL     1     112.302 128.121 136.077  0.00  0.00    +0.000 C 
ATOM     16  C   UNL     1     112.906 128.360 135.568  0.00  0.00    +0.000 C 
ATOM     17  C   UNL     1     113.955 129.471 136.136  0.00  0.00    +0.000 C 
ATOM     18  C   UNL     1     113.852 128.988 135.301  0.00  0.00    +0.000 C 
ATOM     19  C   UNL     1     112.390 128.531 136.787  0.00  0.00    +0.000 C 
ENDBRANCH   3  15
BRANCH  10  20
ATOM     20  C   UNL     1     113.482 125.436 136.808  0.00  0.00    +0.000 A 
ATOM     21  C   UNL     1     114.084 125.195 136.298  0.00  0.00    +0.000 A 
ATOM     22  C   UNL     1     113.604 125.430 137.624  0.00  0.00    +0.000 A 
ATOM     23  C   UNL     1     114.808 124.948 136.604  0.00  0.00    +0.000 A 
ATOM     24  C   UNL     1     114.329 125.183 137.930  0.00  0.00    +0.000 A 
ATOM     25  C   UNL     1     114.932 124.942 137.421  0.00  0.00    +0.000 A 
ENDBRANCH  10  20
BRANCH   6  26
ATOM     26  O   UNL     1     110.854 128.621 135.464  0.00  0.00    +0.000 OA
ATOM     27  C   UNL     1     110.153 128.866 135.105  0.00  0.00    +0.000 C 
ENDBRANCH   6  26
BRANCH   7  28
ATOM     28  O   UNL     1     109.950 125.911 135.390  0.00  0.00    +0.000 OA
ATOM     29  C   UNL     1     109.695 125.807 134.612  0.00  0.00    +0.000 C 
ENDBRANCH   7  28
TORSDOF 4
ENDMDL
MODEL 2
REMARK VINA RESULT:      -9.3      1.227      3.975
REMARK  Name = 44257647
REMARK  4 active torsions:
REMARK  status: ('A' for Active; 'I' for Inactive)
REMARK    1  A    between atoms: O_3  and  C_16
REMARK    2  A    between atoms: O_4  and  C_17
REMARK    3  A    between atoms: C_8  and  C_10
REMARK    4  A    between atoms: C_20  and  C_22
REMARK                            x       y       z     vdW  Elec       q    Type
REMARK                         _______ _______ _______ _____ _____    ______ ____
ROOT
ATOM      1  O   UNL     1     112.374 126.815 136.197  0.00  0.00    +0.000 OA
ATOM      2  O   UNL     1     114.777 126.185 136.686  0.00  0.00    +0.000 OA
ATOM      3  C   UNL     1     112.024 125.408 136.282  0.00  0.00    +0.000 A 
ATOM      4  C   UNL     1     112.601 125.996 136.322  0.00  0.00    +0.000 A 
ATOM      5  C   UNL     1     113.386 125.793 136.482  0.00  0.00    +0.000 A 
ATOM      6  C   UNL     1     112.230 124.619 136.400  0.00  0.00    +0.000 A 
ATOM      7  C   UNL     1     113.591 125.003 136.600  0.00  0.00    +0.000 A 
ATOM      8  C   UNL     1     113.014 124.416 136.559  0.00  0.00    +0.000 A 
ATOM      9  C   UNL     1     113.997 126.396 136.526  0.00  0.00    +0.000 A 
ATOM     10  C   UNL     1     112.972 127.432 136.238  0.00  0.00    +0.000 A 
ATOM     11  C   UNL     1     113.789 127.221 136.404  0.00  0.00    +0.000 A 
ENDROOT
BRANCH   3  15
ATOM     12  O   UNL     1     109.958 125.946 136.282  0.00  0.00    +0.000 OA
ATOM     13  O   UNL     1     110.754 125.749 137.503  0.00  0.00    +0.000 OA
ATOM     14  C   UNL     1     110.110 125.899 135.472  0.00  0.00    +0.000 C 
ATOM     15  C   UNL     1     111.240 125.610 136.123  0.00  0.00    +0.000 C 
ATOM     16  C   UNL     1     110.903 125.692 135.374  0.00  0.00    +0.000 C 
ATOM     17  C   UNL     1     109.326 126.101 135.313  0.00  0.00    +0.000 C 
ATOM     18  C   UNL     1     110.013 125.917 134.654  0.00  0.00    +0.000 C 
ATOM     19  C   UNL     1     110.656 125.767 136.684  0.00  0.00    +0.000 C 
ENDBRANCH   3  15
BRANCH  10  20
ATOM     20  C   UNL     1     112.763 128.221 136.119  0.00  0.00    +0.000 A 
ATOM     21  C   UNL     1     112.780 128.542 135.359  0.00  0.00    +0.000 A 
ATOM     22  C   UNL     1     112.536 128.689 136.760  0.00  0.00    +0.000 A 
ATOM     23  C   UNL     1     112.572 129.331 135.240  0.00  0.00    +0.000 A 
ATOM     24  C   UNL     1     112.328 129.478 136.641  0.00  0.00    +0.000 A 
ATOM     25  C   UNL     1     112.345 129.800 135.881  0.00  0.00    +0.000 A 
ENDBRANCH  10  20
BRANCH   6  26
ATOM     26  O   UNL     1     111.652 124.030 136.360  0.00  0.00    +0.000 OA
ATOM     27  C   UNL     1     111.863 123.238 136.448  0.00  0.00    +0.000 C 
ENDBRANCH   6  26
BRANCH   7  28
ATOM     28  O   UNL     1     114.375 124.800 136.759  0.00  0.00    +0.000 OA
ATOM     29  C   UNL     1     114.602 124.597 137.526  0.00  0.00    +0.000 C 
ENDBRANCH   7  28
TORSDOF 4
ENDMDL
MODEL 3
REMARK VINA RESULT:      -8.8      0.931      3.358
REMARK  Name = 44257647
REMARK  4 active torsions:
REMARK  status: ('A' for Active; 'I' for Inactive)
REMARK    1  A    between atoms: O_3  and  C_16
REMARK    2  A    between atoms: O_4  and  C_17
REMARK    3  A    between atoms: C_8  and  C_10
REMARK    4  A    between atoms: C_20  and  C_22
REMARK                            x       y       z     vdW  Elec       q    Type
REMARK                         _______ _______ _______ _____ _____    ______ ____
ROOT
ATOM      1  O   UNL     1     111.592 126.995 136.059  0.00  0.00    +0.000 OA
ATOM      2  O   UNL     1     110.807 124.611 135.725  0.00  0.00    +0.000 OA
ATOM      3  C   UNL     1     112.849 126.474 136.565  0.00  0.00    +0.000 A 
ATOM      4  C   UNL     1     112.097 126.330 136.259  0.00  0.00    +0.000 A 
ATOM      5  C   UNL     1     111.838 125.553 136.149  0.00  0.00    +0.000 A 
ATOM      6  C   UNL     1     113.343 125.844 136.762  0.00  0.00    +0.000 A 
ATOM      7  C   UNL     1     112.333 124.923 136.346  0.00  0.00    +0.000 A 
ATOM      8  C   UNL     1     113.085 125.067 136.652  0.00  0.00    +0.000 A 
ATOM      9  C   UNL     1     111.057 125.389 135.832  0.00  0.00    +0.000 A 
ATOM     10  C   UNL     1     110.807 126.851 135.740  0.00  0.00    +0.000 A 
ATOM     11  C   UNL     1     110.537 126.042 135.625  0.00  0.00    +0.000 A 
ENDROOT
BRANCH   3  15
ATOM     12  O   UNL     1     113.369 128.435 137.233  0.00  0.00    +0.000 OA
ATOM     13  O   UNL     1     112.700 127.432 138.076  0.00  0.00    +0.000 OA
ATOM     14  C   UNL     1     113.642 128.454 136.455  0.00  0.00    +0.000 C 
ATOM     15  C   UNL     1     113.108 127.250 136.675  0.00  0.00    +0.000 C 
ATOM     16  C   UNL     1     113.480 127.722 136.110  0.00  0.00    +0.000 C 
ATOM     17  C   UNL     1     113.900 129.230 136.564  0.00  0.00    +0.000 C 
ATOM     18  C   UNL     1     113.980 128.711 135.749  0.00  0.00    +0.000 C 
ATOM     19  C   UNL     1     113.039 127.690 137.369  0.00  0.00    +0.000 C 
ENDBRANCH   3  15
BRANCH  10  20
ATOM     20  C   UNL     1     110.315 127.484 135.545  0.00  0.00    +0.000 A 
ATOM     21  C   UNL     1     110.384 127.848 134.808  0.00  0.00    +0.000 A 
ATOM     22  C   UNL     1     109.753 127.753 136.086  0.00  0.00    +0.000 A 
ATOM     23  C   UNL     1     109.893 128.480 134.612  0.00  0.00    +0.000 A 
ATOM     24  C   UNL     1     109.261 128.385 135.891  0.00  0.00    +0.000 A 
ATOM     25  C   UNL     1     109.331 128.749 135.154  0.00  0.00    +0.000 A 
ENDBRANCH  10  20
BRANCH   6  26
ATOM     26  O   UNL     1     114.096 125.988 137.068  0.00  0.00    +0.000 OA
ATOM     27  C   UNL     1     114.617 125.362 137.194  0.00  0.00    +0.000 C 
ENDBRANCH   6  26
BRANCH   7  28
ATOM     28  O   UNL     1     112.074 124.147 136.236  0.00  0.00    +0.000 OA
ATOM     29  C   UNL     1     111.971 123.650 136.886  0.00  0.00    +0.000 C 
ENDBRANCH   7  28
TORSDOF 4
ENDMDL
MODEL 4
REMARK VINA RESULT:      -8.8      0.960      2.978
REMARK  Name = 44257647
REMARK  4 active torsions:
REMARK  status: ('A' for Active; 'I' for Inactive)
REMARK    1  A    between atoms: O_3  and  C_16
REMARK    2  A    between atoms: O_4  and  C_17
REMARK    3  A    between atoms: C_8  and  C_10
REMARK    4  A    between atoms: C_20  and  C_22
REMARK                            x       y       z     vdW  Elec       q    Type
REMARK                         _______ _______ _______ _____ _____    ______ ____
ROOT
ATOM      1  O   UNL     1     112.613 127.187 136.306  0.00  0.00    +0.000 OA
ATOM      2  O   UNL     1     114.033 129.280 136.424  0.00  0.00    +0.000 OA
ATOM      3  C   UNL     1     111.506 128.006 135.844  0.00  0.00    +0.000 A 
ATOM      4  C   UNL     1     112.291 127.954 136.092  0.00  0.00    +0.000 A 
ATOM      5  C   UNL     1     112.757 128.636 136.131  0.00  0.00    +0.000 A 
ATOM      6  C   UNL     1     111.185 128.736 135.636  0.00  0.00    +0.000 A 
ATOM      7  C   UNL     1     112.436 129.367 135.923  0.00  0.00    +0.000 A 
ATOM      8  C   UNL     1     111.651 129.418 135.675  0.00  0.00    +0.000 A 
ATOM      9  C   UNL     1     113.575 128.596 136.387  0.00  0.00    +0.000 A 
ATOM     10  C   UNL     1     113.431 127.128 136.565  0.00  0.00    +0.000 A 
ATOM     11  C   UNL     1     113.915 127.837 136.606  0.00  0.00    +0.000 A 
ENDROOT
BRANCH   3  15
ATOM     12  O   UNL     1     110.196 126.344 136.130  0.00  0.00    +0.000 OA
ATOM     13  O   UNL     1     110.456 127.368 137.153  0.00  0.00    +0.000 OA
ATOM     14  C   UNL     1     110.454 126.212 135.358  0.00  0.00    +0.000 C 
ATOM     15  C   UNL     1     111.041 127.325 135.805  0.00  0.00    +0.000 C 
ATOM     16  C   UNL     1     110.977 126.819 135.157  0.00  0.00    +0.000 C 
ATOM     17  C   UNL     1     109.989 125.532 135.319  0.00  0.00    +0.000 C 
ATOM     18  C   UNL     1     110.557 125.877 134.612  0.00  0.00    +0.000 C 
ATOM     19  C   UNL     1     110.558 127.032 136.406  0.00  0.00    +0.000 C 
ENDBRANCH   3  15
BRANCH  10  20
ATOM     20  C   UNL     1     113.748 126.395 136.772  0.00  0.00    +0.000 A 
ATOM     21  C   UNL     1     114.147 125.944 136.209  0.00  0.00    +0.000 A 
ATOM     22  C   UNL     1     113.668 126.114 137.544  0.00  0.00    +0.000 A 
ATOM     23  C   UNL     1     114.465 125.212 136.416  0.00  0.00    +0.000 A 
ATOM     24  C   UNL     1     113.986 125.382 137.752  0.00  0.00    +0.000 A 
ATOM     25  C   UNL     1     114.384 124.930 137.188  0.00  0.00    +0.000 A 
ENDBRANCH  10  20
BRANCH   6  26
ATOM     26  O   UNL     1     110.400 128.788 135.388  0.00  0.00    +0.000 OA
ATOM     27  C   UNL     1     110.115 129.489 135.061  0.00  0.00    +0.000 C 
ENDBRANCH   6  26
BRANCH   7  28
ATOM     28  O   UNL     1     112.900 130.047 135.962  0.00  0.00    +0.000 OA
ATOM     29  C   UNL     1     112.741 130.624 136.530  0.00  0.00    +0.000 C 
ENDBRANCH   7  28
TORSDOF 4
ENDMDL
MODEL 5
REMARK VINA RESULT:      -8.8      2.352      3.571
REMARK  Name = 44257647
REMARK  4 active torsions:
REMARK  status: ('A' for Active; 'I' for Inactive)
REMARK    1  A    between atoms: O_3  and  C_16
REMARK    2  A    between atoms: O_4  and  C_17
REMARK    3  A    between atoms: C_8  and  C_10
REMARK    4  A    between atoms: C_20  and  C_22
REMARK                            x       y       z     vdW  Elec       q    Type
REMARK                         _______ _______ _______ _____ _____    ______ ____
ROOT
ATOM      1  O   UNL     1     112.895 126.444 138.811  0.00  0.00    +0.000 OA
ATOM      2  O   UNL     1     110.565 126.502 139.801  0.00  0.00    +0.000 OA
ATOM      3  C   UNL     1     112.349 125.759 137.653  0.00  0.00    +0.000 A 
ATOM      4  C   UNL     1     112.226 126.107 138.391  0.00  0.00    +0.000 A 
ATOM      5  C   UNL     1     111.467 126.127 138.716  0.00  0.00    +0.000 A 
ATOM      6  C   UNL     1     111.715 125.432 137.240  0.00  0.00    +0.000 A 
ATOM      7  C   UNL     1     110.833 125.800 138.303  0.00  0.00    +0.000 A 
ATOM      8  C   UNL     1     110.956 125.452 137.565  0.00  0.00    +0.000 A 
ATOM      9  C   UNL     1     111.325 126.486 139.484  0.00  0.00    +0.000 A 
ATOM     10  C   UNL     1     112.773 126.808 139.581  0.00  0.00    +0.000 A 
ATOM     11  C   UNL     1     111.983 126.829 139.919  0.00  0.00    +0.000 A 
ENDROOT
BRANCH   3  15
ATOM     12  O   UNL     1     114.201 126.064 136.635  0.00  0.00    +0.000 OA
ATOM     13  O   UNL     1     113.060 126.989 136.557  0.00  0.00    +0.000 OA
ATOM     14  C   UNL     1     114.347 125.350 137.022  0.00  0.00    +0.000 C 
ATOM     15  C   UNL     1     113.107 125.739 137.328  0.00  0.00    +0.000 C 
ATOM     16  C   UNL     1     113.671 125.149 137.450  0.00  0.00    +0.000 C 
ATOM     17  C   UNL     1     115.105 125.330 136.697  0.00  0.00    +0.000 C 
ATOM     18  C   UNL     1     114.720 124.665 137.289  0.00  0.00    +0.000 C 
ATOM     19  C   UNL     1     113.434 126.304 136.824  0.00  0.00    +0.000 C 
ENDBRANCH   3  15
BRANCH  10  20
ATOM     20  C   UNL     1     113.409 127.134 139.992  0.00  0.00    +0.000 A 
ATOM     21  C   UNL     1     113.566 127.942 139.935  0.00  0.00    +0.000 A 
ATOM     22  C   UNL     1     113.890 126.653 140.459  0.00  0.00    +0.000 A 
ATOM     23  C   UNL     1     114.201 128.269 140.345  0.00  0.00    +0.000 A 
ATOM     24  C   UNL     1     114.526 126.979 140.870  0.00  0.00    +0.000 A 
ATOM     25  C   UNL     1     114.682 127.787 140.813  0.00  0.00    +0.000 A 
ENDBRANCH  10  20
BRANCH   6  26
ATOM     26  O   UNL     1     111.837 125.084 136.502  0.00  0.00    +0.000 OA
ATOM     27  C   UNL     1     111.219 124.693 136.122  0.00  0.00    +0.000 C 
ENDBRANCH   6  26
BRANCH   7  28
ATOM     28  O   UNL     1     110.074 125.820 138.627  0.00  0.00    +0.000 OA
ATOM     29  C   UNL     1     109.492 126.294 138.287  0.00  0.00    +0.000 C 
ENDBRANCH   7  28
TORSDOF 4
ENDMDL
MODEL 6
REMARK VINA RESULT:      -8.8      2.016      3.682
REMARK  Name = 44257647
REMARK  4 active torsions:
REMARK  status: ('A' for Active; 'I' for Inactive)
REMARK    1  A    between atoms: O_3  and  C_16
REMARK    2  A    between atoms: O_4  and  C_17
REMARK    3  A    between atoms: C_8  and  C_10
REMARK    4  A    between atoms: C_20  and  C_22
REMARK                            x       y       z     vdW  Elec       q    Type
REMARK                         _______ _______ _______ _____ _____    ______ ____
ROOT
ATOM      1  O   UNL     1     112.832 125.810 137.627  0.00  0.00    +0.000 OA
ATOM      2  O   UNL     1     113.622 126.717 139.855  0.00  0.00    +0.000 OA
ATOM      3  C   UNL     1     111.464 125.964 138.088  0.00  0.00    +0.000 A 
ATOM      4  C   UNL     1     112.272 126.041 138.236  0.00  0.00    +0.000 A 
ATOM      5  C   UNL     1     112.533 126.336 138.962  0.00  0.00    +0.000 A 
ATOM      6  C   UNL     1     110.916 126.182 138.665  0.00  0.00    +0.000 A 
ATOM      7  C   UNL     1     111.984 126.555 139.538  0.00  0.00    +0.000 A 
ATOM      8  C   UNL     1     111.177 126.478 139.390  0.00  0.00    +0.000 A 
ATOM      9  C   UNL     1     113.371 126.421 139.128  0.00  0.00    +0.000 A 
ATOM     10  C   UNL     1     113.676 125.888 137.775  0.00  0.00    +0.000 A 
ATOM     11  C   UNL     1     113.947 126.196 138.531  0.00  0.00    +0.000 A 
ENDROOT
BRANCH   3  15
ATOM     12  O   UNL     1     110.820 124.831 136.397  0.00  0.00    +0.000 OA
ATOM     13  O   UNL     1     111.191 124.235 137.690  0.00  0.00    +0.000 OA
ATOM     14  C   UNL     1     110.786 125.598 136.097  0.00  0.00    +0.000 C 
ATOM     15  C   UNL     1     111.204 125.669 137.363  0.00  0.00    +0.000 C 
ATOM     16  C   UNL     1     111.023 126.116 136.694  0.00  0.00    +0.000 C 
ATOM     17  C   UNL     1     110.526 125.303 135.372  0.00  0.00    +0.000 C 
ATOM     18  C   UNL     1     110.673 126.237 135.588  0.00  0.00    +0.000 C 
ATOM     19  C   UNL     1     111.078 124.874 137.180  0.00  0.00    +0.000 C 
ENDBRANCH   3  15
BRANCH  10  20
ATOM     20  C   UNL     1     114.221 125.668 137.196  0.00  0.00    +0.000 A 
ATOM     21  C   UNL     1     114.584 124.928 137.230  0.00  0.00    +0.000 A 
ATOM     22  C   UNL     1     114.404 126.190 136.583  0.00  0.00    +0.000 A 
ATOM     23  C   UNL     1     115.129 124.709 136.652  0.00  0.00    +0.000 A 
ATOM     24  C   UNL     1     114.950 125.970 136.005  0.00  0.00    +0.000 A 
ATOM     25  C   UNL     1     115.312 125.230 136.039  0.00  0.00    +0.000 A 
ENDBRANCH  10  20
BRANCH   6  26
ATOM     26  O   UNL     1     110.108 126.105 138.517  0.00  0.00    +0.000 OA
ATOM     27  C   UNL     1     109.560 126.393 139.061  0.00  0.00    +0.000 C 
ENDBRANCH   6  26
BRANCH   7  28
ATOM     28  O   UNL     1     112.245 126.850 140.263  0.00  0.00    +0.000 OA
ATOM     29  C   UNL     1     111.955 126.531 140.967  0.00  0.00    +0.000 C 
ENDBRANCH   7  28
TORSDOF 4
ENDMDL
MODEL 7
REMARK VINA RESULT:      -8.7      1.871      3.287
REMARK  Name = 44257647
REMARK  4 active torsions:
REMARK  status: ('A' for Active; 'I' for Inactive)
REMARK    1  A    between atoms: O_3  and  C_16
REMARK    2  A    between atoms: O_4  and  C_17
REMARK    3  A    between atoms: C_8  and  C_10
REMARK    4  A    between atoms: C_20  and  C_22
REMARK                            x       y       z     vdW  Elec       q    Type
REMARK                         _______ _______ _______ _____ _____    ______ ____
ROOT
ATOM      1  O   UNL     1     113.278 127.074 137.773  0.00  0.00    +0.000 OA
ATOM      2  O   UNL     1     113.502 126.810 140.281  0.00  0.00    +0.000 OA
ATOM      3  C   UNL     1     112.953 128.473 137.983  0.00  0.00    +0.000 A 
ATOM      4  C   UNL     1     113.151 127.738 138.302  0.00  0.00    +0.000 A 
ATOM      5  C   UNL     1     113.225 127.649 139.120  0.00  0.00    +0.000 A 
ATOM      6  C   UNL     1     112.828 129.119 138.481  0.00  0.00    +0.000 A 
ATOM      7  C   UNL     1     113.100 128.296 139.617  0.00  0.00    +0.000 A 
ATOM      8  C   UNL     1     112.902 129.030 139.299  0.00  0.00    +0.000 A 
ATOM      9  C   UNL     1     113.430 126.890 139.464  0.00  0.00    +0.000 A 
ATOM     10  C   UNL     1     113.485 126.306 138.099  0.00  0.00    +0.000 A 
ATOM     11  C   UNL     1     113.562 126.213 138.950  0.00  0.00    +0.000 A 
ENDROOT
BRANCH   3  15
ATOM     12  O   UNL     1     112.363 128.618 135.936  0.00  0.00    +0.000 OA
ATOM     13  O   UNL     1     111.439 128.300 137.035  0.00  0.00    +0.000 OA
ATOM     14  C   UNL     1     113.170 128.780 135.881  0.00  0.00    +0.000 C 
ATOM     15  C   UNL     1     112.879 128.562 137.166  0.00  0.00    +0.000 C 
ATOM     16  C   UNL     1     113.489 128.746 136.642  0.00  0.00    +0.000 C 
ATOM     17  C   UNL     1     113.096 128.869 135.064  0.00  0.00    +0.000 C 
ATOM     18  C   UNL     1     113.914 128.963 135.578  0.00  0.00    +0.000 C 
ATOM     19  C   UNL     1     112.184 128.483 136.731  0.00  0.00    +0.000 C 
ENDBRANCH   3  15
BRANCH  10  20
ATOM     20  C   UNL     1     113.609 125.661 137.598  0.00  0.00    +0.000 A 
ATOM     21  C   UNL     1     114.366 125.501 137.312  0.00  0.00    +0.000 A 
ATOM     22  C   UNL     1     112.976 125.178 137.384  0.00  0.00    +0.000 A 
ATOM     23  C   UNL     1     114.491 124.858 136.813  0.00  0.00    +0.000 A 
ATOM     24  C   UNL     1     113.100 124.533 136.884  0.00  0.00    +0.000 A 
ATOM     25  C   UNL     1     113.857 124.373 136.598  0.00  0.00    +0.000 A 
ENDBRANCH  10  20
BRANCH   6  26
ATOM     26  O   UNL     1     112.630 129.854 138.162  0.00  0.00    +0.000 OA
ATOM     27  C   UNL     1     112.539 130.507 138.657  0.00  0.00    +0.000 C 
ENDBRANCH   6  26
BRANCH   7  28
ATOM     28  O   UNL     1     113.173 128.207 140.434  0.00  0.00    +0.000 OA
ATOM     29  C   UNL     1     113.773 128.602 140.840  0.00  0.00    +0.000 C 
ENDBRANCH   7  28
TORSDOF 4
ENDMDL
MODEL 8
REMARK VINA RESULT:      -8.7      2.066      3.507
REMARK  Name = 44257647
REMARK  4 active torsions:
REMARK  status: ('A' for Active; 'I' for Inactive)
REMARK    1  A    between atoms: O_3  and  C_16
REMARK    2  A    between atoms: O_4  and  C_17
REMARK    3  A    between atoms: C_8  and  C_10
REMARK    4  A    between atoms: C_20  and  C_22
REMARK                            x       y       z     vdW  Elec       q    Type
REMARK                         _______ _______ _______ _____ _____    ______ ____
ROOT
ATOM      1  O   UNL     1     113.315 127.028 137.872  0.00  0.00    +0.000 OA
ATOM      2  O   UNL     1     113.300 128.339 135.705  0.00  0.00    +0.000 OA
ATOM      3  C   UNL     1     112.970 128.252 138.574  0.00  0.00    +0.000 A 
ATOM      4  C   UNL     1     113.137 127.869 137.863  0.00  0.00    +0.000 A 
ATOM      5  C   UNL     1     113.133 128.294 137.155  0.00  0.00    +0.000 A 
ATOM      6  C   UNL     1     112.798 129.058 138.579  0.00  0.00    +0.000 A 
ATOM      7  C   UNL     1     112.962 129.101 137.160  0.00  0.00    +0.000 A 
ATOM      8  C   UNL     1     112.794 129.483 137.871  0.00  0.00    +0.000 A 
ATOM      9  C   UNL     1     113.306 127.907 136.408  0.00  0.00    +0.000 A 
ATOM     10  C   UNL     1     113.490 126.624 137.134  0.00  0.00    +0.000 A 
ATOM     11  C   UNL     1     113.486 127.066 136.396  0.00  0.00    +0.000 A 
ENDROOT
BRANCH   3  15
ATOM     12  O   UNL     1     112.577 127.102 140.330  0.00  0.00    +0.000 OA
ATOM     13  O   UNL     1     111.553 127.455 139.335  0.00  0.00    +0.000 OA
ATOM     14  C   UNL     1     113.385 127.246 140.412  0.00  0.00    +0.000 C 
ATOM     15  C   UNL     1     112.974 127.827 139.282  0.00  0.00    +0.000 C 
ATOM     16  C   UNL     1     113.631 127.695 139.764  0.00  0.00    +0.000 C 
ATOM     17  C   UNL     1     113.389 126.822 141.119  0.00  0.00    +0.000 C 
ATOM     18  C   UNL     1     114.154 127.253 140.707  0.00  0.00    +0.000 C 
ATOM     19  C   UNL     1     112.323 127.461 139.632  0.00  0.00    +0.000 C 
ENDBRANCH   3  15
BRANCH  10  20
ATOM     20  C   UNL     1     113.661 125.817 137.133  0.00  0.00    +0.000 A 
ATOM     21  C   UNL     1     114.435 125.559 137.254  0.00  0.00    +0.000 A 
ATOM     22  C   UNL     1     113.058 125.267 137.010  0.00  0.00    +0.000 A 
ATOM     23  C   UNL     1     114.607 124.753 137.253  0.00  0.00    +0.000 A 
ATOM     24  C   UNL     1     113.229 124.460 137.009  0.00  0.00    +0.000 A 
ATOM     25  C   UNL     1     114.004 124.203 137.130  0.00  0.00    +0.000 A 
ENDBRANCH  10  20
BRANCH   6  26
ATOM     26  O   UNL     1     112.631 129.441 139.290  0.00  0.00    +0.000 OA
ATOM     27  C   UNL     1     112.565 130.263 139.311  0.00  0.00    +0.000 C 
ENDBRANCH   6  26
BRANCH   7  28
ATOM     28  O   UNL     1     112.957 129.525 136.452  0.00  0.00    +0.000 OA
ATOM     29  C   UNL     1     112.257 129.863 136.177  0.00  0.00    +0.000 C 
ENDBRANCH   7  28
TORSDOF 4
ENDMDL
MODEL 9
REMARK VINA RESULT:      -8.7      2.744      3.591
REMARK  Name = 44257647
REMARK  4 active torsions:
REMARK  status: ('A' for Active; 'I' for Inactive)
REMARK    1  A    between atoms: O_3  and  C_16
REMARK    2  A    between atoms: O_4  and  C_17
REMARK    3  A    between atoms: C_8  and  C_10
REMARK    4  A    between atoms: C_20  and  C_22
REMARK                            x       y       z     vdW  Elec       q    Type
REMARK                         _______ _______ _______ _____ _____    ______ ____
ROOT
ATOM      1  O   UNL     1     112.917 126.197 138.611  0.00  0.00    +0.000 OA
ATOM      2  O   UNL     1     110.735 125.103 137.937  0.00  0.00    +0.000 OA
ATOM      3  C   UNL     1     112.224 126.811 139.730  0.00  0.00    +0.000 A 
ATOM      4  C   UNL     1     112.199 126.324 139.064  0.00  0.00    +0.000 A 
ATOM      5  C   UNL     1     111.488 125.966 138.842  0.00  0.00    +0.000 A 
ATOM      6  C   UNL     1     111.541 126.941 140.173  0.00  0.00    +0.000 A 
ATOM      7  C   UNL     1     110.805 126.096 139.286  0.00  0.00    +0.000 A 
ATOM      8  C   UNL     1     110.831 126.583 139.951  0.00  0.00    +0.000 A 
ATOM      9  C   UNL     1     111.448 125.456 138.152  0.00  0.00    +0.000 A 
ATOM     10  C   UNL     1     112.897 125.690 137.917  0.00  0.00    +0.000 A 
ATOM     11  C   UNL     1     112.157 125.317 137.686  0.00  0.00    +0.000 A 
ENDROOT
BRANCH   3  15
ATOM     12  O   UNL     1     113.927 128.053 140.072  0.00  0.00    +0.000 OA
ATOM     13  O   UNL     1     112.783 128.443 139.234  0.00  0.00    +0.000 OA
ATOM     14  C   UNL     1     114.125 127.385 140.515  0.00  0.00    +0.000 C 
ATOM     15  C   UNL     1     112.934 127.169 139.952  0.00  0.00    +0.000 C 
ATOM     16  C   UNL     1     113.511 126.839 140.441  0.00  0.00    +0.000 C 
ATOM     17  C   UNL     1     114.835 127.743 140.737  0.00  0.00    +0.000 C 
ATOM     18  C   UNL     1     114.531 126.862 141.005  0.00  0.00    +0.000 C 
ATOM     19  C   UNL     1     113.191 127.918 139.724  0.00  0.00    +0.000 C 
ENDBRANCH   3  15
BRANCH  10  20
ATOM     20  C   UNL     1     113.582 125.562 137.475  0.00  0.00    +0.000 A 
ATOM     21  C   UNL     1     113.763 126.059 136.842  0.00  0.00    +0.000 A 
ATOM     22  C   UNL     1     114.085 124.937 137.667  0.00  0.00    +0.000 A 
ATOM     23  C   UNL     1     114.447 125.932 136.401  0.00  0.00    +0.000 A 
ATOM     24  C   UNL     1     114.770 124.810 137.225  0.00  0.00    +0.000 A 
ATOM     25  C   UNL     1     114.952 125.307 136.592  0.00  0.00    +0.000 A 
ENDBRANCH  10  20
BRANCH   6  26
ATOM     26  O   UNL     1     111.567 127.428 140.839  0.00  0.00    +0.000 OA
ATOM     27  C   UNL     1     110.931 127.444 141.363  0.00  0.00    +0.000 C 
ENDBRANCH   6  26
BRANCH   7  28
ATOM     28  O   UNL     1     110.095 125.738 139.064  0.00  0.00    +0.000 OA
ATOM     29  C   UNL     1     109.449 126.202 138.847  0.00  0.00    +0.000 C 
ENDBRANCH   7  28
TORSDOF 4
ENDMDL
MODEL 10
REMARK VINA RESULT:      -8.5      1.994      3.458
REMARK  Name = 44257647
REMARK  4 active torsions:
REMARK  status: ('A' for Active; 'I' for Inactive)
REMARK    1  A    between atoms: O_3  and  C_16
REMARK    2  A    between atoms: O_4  and  C_17
REMARK    3  A    between atoms: C_8  and  C_10
REMARK    4  A    between atoms: C_20  and  C_22
REMARK                            x       y       z     vdW  Elec       q    Type
REMARK                         _______ _______ _______ _____ _____    ______ ____
ROOT
ATOM      1  O   UNL     1     111.434 126.763 137.270  0.00  0.00    +0.000 OA
ATOM      2  O   UNL     1     110.661 125.368 139.236  0.00  0.00    +0.000 OA
ATOM      3  C   UNL     1     112.332 127.468 138.168  0.00  0.00    +0.000 A 
ATOM      4  C   UNL     1     111.759 126.885 138.056  0.00  0.00    +0.000 A 
ATOM      5  C   UNL     1     111.505 126.429 138.696  0.00  0.00    +0.000 A 
ATOM      6  C   UNL     1     112.652 127.595 138.917  0.00  0.00    +0.000 A 
ATOM      7  C   UNL     1     111.825 126.556 139.445  0.00  0.00    +0.000 A 
ATOM      8  C   UNL     1     112.398 127.138 139.557  0.00  0.00    +0.000 A 
ATOM      9  C   UNL     1     110.909 125.819 138.593  0.00  0.00    +0.000 A 
ATOM     10  C   UNL     1     110.836 126.158 137.148  0.00  0.00    +0.000 A 
ATOM     11  C   UNL     1     110.572 125.682 137.814  0.00  0.00    +0.000 A 
ENDROOT
BRANCH   3  15
ATOM     12  O   UNL     1     112.694 128.913 136.638  0.00  0.00    +0.000 OA
ATOM     13  O   UNL     1     111.662 129.059 137.675  0.00  0.00    +0.000 OA
ATOM     14  C   UNL     1     113.259 128.340 136.453  0.00  0.00    +0.000 C 
ATOM     15  C   UNL     1     112.586 127.924 137.529  0.00  0.00    +0.000 C 
ATOM     16  C   UNL     1     113.193 127.729 137.004  0.00  0.00    +0.000 C 
ATOM     17  C   UNL     1     113.513 128.797 135.815  0.00  0.00    +0.000 C 
ATOM     18  C   UNL     1     113.875 127.937 136.082  0.00  0.00    +0.000 C 
ATOM     19  C   UNL     1     112.278 128.655 137.302  0.00  0.00    +0.000 C 
ENDBRANCH   3  15
BRANCH  10  20
ATOM     20  C   UNL     1     110.518 126.033 136.397  0.00  0.00    +0.000 A 
ATOM     21  C   UNL     1     110.867 125.487 135.887  0.00  0.00    +0.000 A 
ATOM     22  C   UNL     1     109.852 126.455 136.156  0.00  0.00    +0.000 A 
ATOM     23  C   UNL     1     110.550 125.362 135.136  0.00  0.00    +0.000 A 
ATOM     24  C   UNL     1     109.534 126.331 135.405  0.00  0.00    +0.000 A 
ATOM     25  C   UNL     1     109.883 125.784 134.895  0.00  0.00    +0.000 A 
ENDBRANCH  10  20
BRANCH   6  26
ATOM     26  O   UNL     1     113.225 128.178 139.029  0.00  0.00    +0.000 OA
ATOM     27  C   UNL     1     113.596 128.257 139.761  0.00  0.00    +0.000 C 
ENDBRANCH   6  26
BRANCH   7  28
ATOM     28  O   UNL     1     111.571 126.100 140.084  0.00  0.00    +0.000 OA
ATOM     29  C   UNL     1     111.203 126.460 140.728  0.00  0.00    +0.000 C 
ENDBRANCH   7  28
TORSDOF 4
ENDMDL
