MODEL 1
REMARK VINA RESULT:      -8.1      0.000      0.000
REMARK  Name = 21721836
REMARK  4 active torsions:
REMARK  status: ('A' for Active; 'I' for Inactive)
REMARK    1  A    between atoms: O_2  and  C_14
REMARK    2  A    between atoms: O_4  and  C_19
REMARK    3  A    between atoms: O_6  and  C_20
REMARK    4  A    between atoms: C_8  and  C_11
REMARK                            x       y       z     vdW  Elec       q    Type
REMARK                         _______ _______ _______ _____ _____    ______ ____
ROOT
ATOM      1  O   UNL     1     105.005 124.211 147.066  0.00  0.00    +0.000 OA
ATOM      2  O   UNL     1     105.892 125.609 145.150  0.00  0.00    +0.000 OA
ATOM      3  O   UNL     1     107.951 125.751 147.321  0.00  0.00    +0.000 OA
ATOM      4  C   UNL     1     104.539 124.286 146.348  0.00  0.00    +0.000 C 
ATOM      5  C   UNL     1     104.837 124.759 145.697  0.00  0.00    +0.000 C 
ATOM      6  C   UNL     1     106.050 125.066 146.497  0.00  0.00    +0.000 A 
ATOM      7  C   UNL     1     105.597 125.152 145.771  0.00  0.00    +0.000 C 
ATOM      8  C   UNL     1     105.764 124.612 147.123  0.00  0.00    +0.000 A 
ATOM      9  C   UNL     1     106.779 125.446 146.563  0.00  0.00    +0.000 A 
ATOM     10  C   UNL     1     106.206 124.536 147.815  0.00  0.00    +0.000 A 
ATOM     11  C   UNL     1     107.222 125.371 147.254  0.00  0.00    +0.000 A 
ATOM     12  C   UNL     1     106.935 124.916 147.880  0.00  0.00    +0.000 A 
ENDROOT
BRANCH   4  14
ATOM     13  O   UNL     1     101.622 122.763 146.096  0.00  0.00    +0.000 OA
ATOM     14  C   UNL     1     103.810 123.905 146.285  0.00  0.00    +0.000 A 
ATOM     15  C   UNL     1     103.129 124.265 146.581  0.00  0.00    +0.000 A 
ATOM     16  C   UNL     1     103.761 123.164 145.927  0.00  0.00    +0.000 A 
ATOM     17  C   UNL     1     102.399 123.885 146.518  0.00  0.00    +0.000 A 
ATOM     18  C   UNL     1     103.032 122.783 145.864  0.00  0.00    +0.000 A 
ATOM     19  C   UNL     1     102.351 123.144 146.159  0.00  0.00    +0.000 A 
BRANCH  17  20
ATOM     20  O   UNL     1     101.719 124.246 146.814  0.00  0.00    +0.000 OA
ATOM     21  C   UNL     1     101.743 124.641 147.537  0.00  0.00    +0.000 C 
ENDBRANCH  17  20
ENDBRANCH   4  14
BRANCH   9  22
ATOM     22  O   UNL     1     107.065 125.901 145.937  0.00  0.00    +0.000 OA
ATOM     23  C   UNL     1     106.957 126.718 145.938  0.00  0.00    +0.000 C 
ENDBRANCH   9  22
BRANCH  12  24
ATOM     24  O   UNL     1     107.379 124.841 148.573  0.00  0.00    +0.000 OA
ATOM     25  C   UNL     1     107.108 124.361 149.185  0.00  0.00    +0.000 C 
ENDBRANCH  12  24
TORSDOF 4
ENDMDL
MODEL 2
REMARK VINA RESULT:      -7.9      0.975      4.514
REMARK  Name = 21721836
REMARK  4 active torsions:
REMARK  status: ('A' for Active; 'I' for Inactive)
REMARK    1  A    between atoms: O_2  and  C_14
REMARK    2  A    between atoms: O_4  and  C_19
REMARK    3  A    between atoms: O_6  and  C_20
REMARK    4  A    between atoms: C_8  and  C_11
REMARK                            x       y       z     vdW  Elec       q    Type
REMARK                         _______ _______ _______ _____ _____    ______ ____
ROOT
ATOM      1  O   UNL     1     104.419 125.066 147.583  0.00  0.00    +0.000 OA
ATOM      2  O   UNL     1     103.749 123.690 145.566  0.00  0.00    +0.000 OA
ATOM      3  O   UNL     1     101.210 124.370 147.003  0.00  0.00    +0.000 OA
ATOM      4  C   UNL     1     105.027 124.780 147.049  0.00  0.00    +0.000 C 
ATOM      5  C   UNL     1     104.803 124.313 146.363  0.00  0.00    +0.000 C 
ATOM      6  C   UNL     1     103.379 124.433 146.768  0.00  0.00    +0.000 A 
ATOM      7  C   UNL     1     103.974 124.138 146.222  0.00  0.00    +0.000 C 
ATOM      8  C   UNL     1     103.594 124.882 147.426  0.00  0.00    +0.000 A 
ATOM      9  C   UNL     1     102.585 124.263 146.627  0.00  0.00    +0.000 A 
ATOM     10  C   UNL     1     103.015 125.160 147.943  0.00  0.00    +0.000 A 
ATOM     11  C   UNL     1     102.005 124.540 147.144  0.00  0.00    +0.000 A 
ATOM     12  C   UNL     1     102.220 124.989 147.802  0.00  0.00    +0.000 A 
ENDROOT
BRANCH   4  14
ATOM     13  O   UNL     1     108.203 125.468 147.623  0.00  0.00    +0.000 OA
ATOM     14  C   UNL     1     105.821 124.952 147.192  0.00  0.00    +0.000 A 
ATOM     15  C   UNL     1     106.202 124.626 147.847  0.00  0.00    +0.000 A 
ATOM     16  C   UNL     1     106.234 125.450 146.681  0.00  0.00    +0.000 A 
ATOM     17  C   UNL     1     106.996 124.797 147.991  0.00  0.00    +0.000 A 
ATOM     18  C   UNL     1     107.028 125.623 146.825  0.00  0.00    +0.000 A 
ATOM     19  C   UNL     1     107.409 125.296 147.479  0.00  0.00    +0.000 A 
BRANCH  17  20
ATOM     20  O   UNL     1     107.377 124.471 148.646  0.00  0.00    +0.000 OA
ATOM     21  C   UNL     1     106.941 124.254 149.311  0.00  0.00    +0.000 C 
ENDBRANCH  17  20
ENDBRANCH   4  14
BRANCH   9  22
ATOM     22  O   UNL     1     102.369 123.814 145.969  0.00  0.00    +0.000 OA
ATOM     23  C   UNL     1     102.166 123.020 146.059  0.00  0.00    +0.000 C 
ENDBRANCH   9  22
BRANCH  12  24
ATOM     24  O   UNL     1     101.640 125.267 148.320  0.00  0.00    +0.000 OA
ATOM     25  C   UNL     1     101.856 125.702 148.985  0.00  0.00    +0.000 C 
ENDBRANCH  12  24
TORSDOF 4
ENDMDL
MODEL 3
REMARK VINA RESULT:      -7.7     12.548     13.846
REMARK  Name = 21721836
REMARK  4 active torsions:
REMARK  status: ('A' for Active; 'I' for Inactive)
REMARK    1  A    between atoms: O_2  and  C_14
REMARK    2  A    between atoms: O_4  and  C_19
REMARK    3  A    between atoms: O_6  and  C_20
REMARK    4  A    between atoms: C_8  and  C_11
REMARK                            x       y       z     vdW  Elec       q    Type
REMARK                         _______ _______ _______ _____ _____    ______ ____
ROOT
ATOM      1  O   UNL     1     112.435 127.319 136.015  0.00  0.00    +0.000 OA
ATOM      2  O   UNL     1     113.788 125.623 137.320  0.00  0.00    +0.000 OA
ATOM      3  O   UNL     1     111.360 124.178 136.326  0.00  0.00    +0.000 OA
ATOM      4  C   UNL     1     113.175 127.560 136.378  0.00  0.00    +0.000 C 
ATOM      5  C   UNL     1     113.637 126.987 136.821  0.00  0.00    +0.000 C 
ATOM      6  C   UNL     1     112.609 125.957 136.526  0.00  0.00    +0.000 A 
ATOM      7  C   UNL     1     113.352 126.180 136.896  0.00  0.00    +0.000 C 
ATOM      8  C   UNL     1     112.166 126.507 136.100  0.00  0.00    +0.000 A 
ATOM      9  C   UNL     1     112.341 125.181 136.601  0.00  0.00    +0.000 A 
ATOM     10  C   UNL     1     111.454 126.282 135.749  0.00  0.00    +0.000 A 
ATOM     11  C   UNL     1     111.630 124.955 136.251  0.00  0.00    +0.000 A 
ATOM     12  C   UNL     1     111.186 125.505 135.825  0.00  0.00    +0.000 A 
ENDROOT
BRANCH   4  14
ATOM     13  O   UNL     1     114.240 130.669 136.072  0.00  0.00    +0.000 OA
ATOM     14  C   UNL     1     113.442 128.337 136.301  0.00  0.00    +0.000 A 
ATOM     15  C   UNL     1     113.204 128.910 136.845  0.00  0.00    +0.000 A 
ATOM     16  C   UNL     1     113.945 128.542 135.681  0.00  0.00    +0.000 A 
ATOM     17  C   UNL     1     113.470 129.688 136.769  0.00  0.00    +0.000 A 
ATOM     18  C   UNL     1     114.211 129.319 135.604  0.00  0.00    +0.000 A 
ATOM     19  C   UNL     1     113.974 129.892 136.148  0.00  0.00    +0.000 A 
BRANCH  17  20
ATOM     20  O   UNL     1     113.232 130.261 137.313  0.00  0.00    +0.000 OA
ATOM     21  C   UNL     1     112.462 130.256 137.608  0.00  0.00    +0.000 C 
ENDBRANCH  17  20
ENDBRANCH   4  14
BRANCH   9  22
ATOM     22  O   UNL     1     112.784 124.631 137.027  0.00  0.00    +0.000 OA
ATOM     23  C   UNL     1     113.224 124.058 136.629  0.00  0.00    +0.000 C 
ENDBRANCH   9  22
BRANCH  12  24
ATOM     24  O   UNL     1     110.474 125.279 135.474  0.00  0.00    +0.000 OA
ATOM     25  C   UNL     1     110.109 125.774 134.926  0.00  0.00    +0.000 C 
ENDBRANCH  12  24
TORSDOF 4
ENDMDL
MODEL 4
REMARK VINA RESULT:      -7.6      0.826      1.957
REMARK  Name = 21721836
REMARK  4 active torsions:
REMARK  status: ('A' for Active; 'I' for Inactive)
REMARK    1  A    between atoms: O_2  and  C_14
REMARK    2  A    between atoms: O_4  and  C_19
REMARK    3  A    between atoms: O_6  and  C_20
REMARK    4  A    between atoms: C_8  and  C_11
REMARK                            x       y       z     vdW  Elec       q    Type
REMARK                         _______ _______ _______ _____ _____    ______ ____
ROOT
ATOM      1  O   UNL     1     104.482 124.616 145.821  0.00  0.00    +0.000 OA
ATOM      2  O   UNL     1     105.569 124.668 148.107  0.00  0.00    +0.000 OA
ATOM      3  O   UNL     1     107.419 126.131 146.261  0.00  0.00    +0.000 OA
ATOM      4  C   UNL     1     104.086 124.239 146.483  0.00  0.00    +0.000 C 
ATOM      5  C   UNL     1     104.453 124.255 147.260  0.00  0.00    +0.000 C 
ATOM      6  C   UNL     1     105.591 125.020 146.690  0.00  0.00    +0.000 A 
ATOM      7  C   UNL     1     105.209 124.648 147.364  0.00  0.00    +0.000 C 
ATOM      8  C   UNL     1     105.239 125.004 145.943  0.00  0.00    +0.000 A 
ATOM      9  C   UNL     1     106.317 125.395 146.795  0.00  0.00    +0.000 A 
ATOM     10  C   UNL     1     105.613 125.365 145.303  0.00  0.00    +0.000 A 
ATOM     11  C   UNL     1     106.692 125.755 146.156  0.00  0.00    +0.000 A 
ATOM     12  C   UNL     1     106.340 125.740 145.409  0.00  0.00    +0.000 A 
ENDROOT
BRANCH   4  14
ATOM     13  O   UNL     1     101.178 122.740 146.049  0.00  0.00    +0.000 OA
ATOM     14  C   UNL     1     103.360 123.864 146.375  0.00  0.00    +0.000 A 
ATOM     15  C   UNL     1     102.663 124.237 146.613  0.00  0.00    +0.000 A 
ATOM     16  C   UNL     1     103.328 123.117 146.028  0.00  0.00    +0.000 A 
ATOM     17  C   UNL     1     101.936 123.863 146.505  0.00  0.00    +0.000 A 
ATOM     18  C   UNL     1     102.601 122.742 145.919  0.00  0.00    +0.000 A 
ATOM     19  C   UNL     1     101.905 123.115 146.158  0.00  0.00    +0.000 A 
BRANCH  17  20
ATOM     20  O   UNL     1     101.240 124.236 146.743  0.00  0.00    +0.000 OA
ATOM     21  C   UNL     1     101.136 124.450 147.533  0.00  0.00    +0.000 C 
ENDBRANCH  17  20
ENDBRANCH   4  14
BRANCH   9  22
ATOM     22  O   UNL     1     106.668 125.410 147.541  0.00  0.00    +0.000 OA
ATOM     23  C   UNL     1     107.357 124.979 147.682  0.00  0.00    +0.000 C 
ENDBRANCH   9  22
BRANCH  12  24
ATOM     24  O   UNL     1     106.716 126.101 144.769  0.00  0.00    +0.000 OA
ATOM     25  C   UNL     1     106.333 126.148 144.040  0.00  0.00    +0.000 C 
ENDBRANCH  12  24
TORSDOF 4
ENDMDL
MODEL 5
REMARK VINA RESULT:      -7.6     12.612     14.217
REMARK  Name = 21721836
REMARK  4 active torsions:
REMARK  status: ('A' for Active; 'I' for Inactive)
REMARK    1  A    between atoms: O_2  and  C_14
REMARK    2  A    between atoms: O_4  and  C_19
REMARK    3  A    between atoms: O_6  and  C_20
REMARK    4  A    between atoms: C_8  and  C_11
REMARK                            x       y       z     vdW  Elec       q    Type
REMARK                         _______ _______ _______ _____ _____    ______ ____
ROOT
ATOM      1  O   UNL     1     113.840 127.498 136.417  0.00  0.00    +0.000 OA
ATOM      2  O   UNL     1     111.375 127.313 135.871  0.00  0.00    +0.000 OA
ATOM      3  O   UNL     1     112.200 124.645 136.955  0.00  0.00    +0.000 OA
ATOM      4  C   UNL     1     113.429 128.178 136.092  0.00  0.00    +0.000 C 
ATOM      5  C   UNL     1     112.593 128.118 135.905  0.00  0.00    +0.000 C 
ATOM      6  C   UNL     1     112.606 126.709 136.373  0.00  0.00    +0.000 A 
ATOM      7  C   UNL     1     112.178 127.380 136.047  0.00  0.00    +0.000 C 
ATOM      8  C   UNL     1     113.409 126.766 136.553  0.00  0.00    +0.000 A 
ATOM      9  C   UNL     1     112.203 126.002 136.507  0.00  0.00    +0.000 A 
ATOM     10  C   UNL     1     113.810 126.117 136.866  0.00  0.00    +0.000 A 
ATOM     11  C   UNL     1     112.603 125.353 136.820  0.00  0.00    +0.000 A 
ATOM     12  C   UNL     1     113.406 125.410 136.999  0.00  0.00    +0.000 A 
ENDROOT
BRANCH   4  14
ATOM     13  O   UNL     1     115.052 131.002 135.560  0.00  0.00    +0.000 OA
ATOM     14  C   UNL     1     113.835 128.884 135.959  0.00  0.00    +0.000 A 
ATOM     15  C   UNL     1     113.814 129.485 136.524  0.00  0.00    +0.000 A 
ATOM     16  C   UNL     1     114.262 128.990 135.261  0.00  0.00    +0.000 A 
ATOM     17  C   UNL     1     114.219 130.191 136.391  0.00  0.00    +0.000 A 
ATOM     18  C   UNL     1     114.667 129.696 135.128  0.00  0.00    +0.000 A 
ATOM     19  C   UNL     1     114.646 130.296 135.693  0.00  0.00    +0.000 A 
BRANCH  17  20
ATOM     20  O   UNL     1     114.198 130.792 136.957  0.00  0.00    +0.000 OA
ATOM     21  C   UNL     1     114.081 130.606 137.752  0.00  0.00    +0.000 C 
ENDBRANCH  17  20
ENDBRANCH   4  14
BRANCH   9  22
ATOM     22  O   UNL     1     111.400 125.945 136.328  0.00  0.00    +0.000 OA
ATOM     23  C   UNL     1     111.152 125.495 135.683  0.00  0.00    +0.000 C 
ENDBRANCH   9  22
BRANCH  12  24
ATOM     24  O   UNL     1     113.807 124.760 137.313  0.00  0.00    +0.000 OA
ATOM     25  C   UNL     1     114.627 124.777 137.386  0.00  0.00    +0.000 C 
ENDBRANCH  12  24
TORSDOF 4
ENDMDL
MODEL 6
REMARK VINA RESULT:      -7.5      2.673      4.106
REMARK  Name = 21721836
REMARK  4 active torsions:
REMARK  status: ('A' for Active; 'I' for Inactive)
REMARK    1  A    between atoms: O_2  and  C_14
REMARK    2  A    between atoms: O_4  and  C_19
REMARK    3  A    between atoms: O_6  and  C_20
REMARK    4  A    between atoms: C_8  and  C_11
REMARK                            x       y       z     vdW  Elec       q    Type
REMARK                         _______ _______ _______ _____ _____    ______ ____
ROOT
ATOM      1  O   UNL     1     106.409 126.304 146.741  0.00  0.00    +0.000 OA
ATOM      2  O   UNL     1     106.115 124.786 144.735  0.00  0.00    +0.000 OA
ATOM      3  O   UNL     1     105.129 127.488 143.899  0.00  0.00    +0.000 OA
ATOM      4  C   UNL     1     106.642 125.479 146.799  0.00  0.00    +0.000 C 
ATOM      5  C   UNL     1     106.544 124.961 146.120  0.00  0.00    +0.000 C 
ATOM      6  C   UNL     1     105.985 126.103 145.352  0.00  0.00    +0.000 A 
ATOM      7  C   UNL     1     106.213 125.275 145.392  0.00  0.00    +0.000 C 
ATOM      8  C   UNL     1     106.080 126.600 146.004  0.00  0.00    +0.000 A 
ATOM      9  C   UNL     1     105.668 126.399 144.651  0.00  0.00    +0.000 A 
ATOM     10  C   UNL     1     105.858 127.393 145.954  0.00  0.00    +0.000 A 
ATOM     11  C   UNL     1     105.446 127.191 144.600  0.00  0.00    +0.000 A 
ATOM     12  C   UNL     1     105.541 127.688 145.252  0.00  0.00    +0.000 A 
ENDROOT
BRANCH   4  14
ATOM     13  O   UNL     1     107.908 124.306 149.612  0.00  0.00    +0.000 OA
ATOM     14  C   UNL     1     106.959 125.186 147.502  0.00  0.00    +0.000 A 
ATOM     15  C   UNL     1     106.459 124.882 148.084  0.00  0.00    +0.000 A 
ATOM     16  C   UNL     1     107.774 125.196 147.623  0.00  0.00    +0.000 A 
ATOM     17  C   UNL     1     106.776 124.589 148.788  0.00  0.00    +0.000 A 
ATOM     18  C   UNL     1     108.091 124.902 148.327  0.00  0.00    +0.000 A 
ATOM     19  C   UNL     1     107.592 124.599 148.909  0.00  0.00    +0.000 A 
BRANCH  17  20
ATOM     20  O   UNL     1     106.276 124.285 149.370  0.00  0.00    +0.000 OA
ATOM     21  C   UNL     1     105.578 124.681 149.562  0.00  0.00    +0.000 C 
ENDBRANCH  17  20
ENDBRANCH   4  14
BRANCH   9  22
ATOM     22  O   UNL     1     105.574 125.902 143.999  0.00  0.00    +0.000 OA
ATOM     23  C   UNL     1     106.091 125.957 143.359  0.00  0.00    +0.000 C 
ENDBRANCH   9  22
BRANCH  12  24
ATOM     24  O   UNL     1     105.319 128.482 145.202  0.00  0.00    +0.000 OA
ATOM     25  C   UNL     1     105.370 128.967 145.866  0.00  0.00    +0.000 C 
ENDBRANCH  12  24
TORSDOF 4
ENDMDL
MODEL 7
REMARK VINA RESULT:      -7.4      8.593     10.060
REMARK  Name = 21721836
REMARK  4 active torsions:
REMARK  status: ('A' for Active; 'I' for Inactive)
REMARK    1  A    between atoms: O_2  and  C_14
REMARK    2  A    between atoms: O_4  and  C_19
REMARK    3  A    between atoms: O_6  and  C_20
REMARK    4  A    between atoms: C_8  and  C_11
REMARK                            x       y       z     vdW  Elec       q    Type
REMARK                         _______ _______ _______ _____ _____    ______ ____
ROOT
ATOM      1  O   UNL     1     102.899 132.037 141.227  0.00  0.00    +0.000 OA
ATOM      2  O   UNL     1     100.713 132.309 142.476  0.00  0.00    +0.000 OA
ATOM      3  O   UNL     1     101.544 135.058 141.624  0.00  0.00    +0.000 OA
ATOM      4  C   UNL     1     102.509 131.343 141.548  0.00  0.00    +0.000 C 
ATOM      5  C   UNL     1     101.767 131.432 141.973  0.00  0.00    +0.000 C 
ATOM      6  C   UNL     1     101.830 132.897 141.742  0.00  0.00    +0.000 A 
ATOM      7  C   UNL     1     101.425 132.214 142.070  0.00  0.00    +0.000 C 
ATOM      8  C   UNL     1     102.542 132.812 141.334  0.00  0.00    +0.000 A 
ATOM      9  C   UNL     1     101.497 133.646 141.838  0.00  0.00    +0.000 A 
ATOM     10  C   UNL     1     102.922 133.475 141.023  0.00  0.00    +0.000 A 
ATOM     11  C   UNL     1     101.877 134.309 141.528  0.00  0.00    +0.000 A 
ATOM     12  C   UNL     1     102.589 134.223 141.120  0.00  0.00    +0.000 A 
ENDROOT
BRANCH   4  14
ATOM     13  O   UNL     1     103.849 128.353 141.156  0.00  0.00    +0.000 OA
ATOM     14  C   UNL     1     102.844 130.596 141.450  0.00  0.00    +0.000 A 
ATOM     15  C   UNL     1     102.730 130.182 140.746  0.00  0.00    +0.000 A 
ATOM     16  C   UNL     1     103.293 130.262 142.056  0.00  0.00    +0.000 A 
ATOM     17  C   UNL     1     103.064 129.434 140.647  0.00  0.00    +0.000 A 
ATOM     18  C   UNL     1     103.628 129.514 141.958  0.00  0.00    +0.000 A 
ATOM     19  C   UNL     1     103.514 129.100 141.254  0.00  0.00    +0.000 A 
BRANCH  17  20
ATOM     20  O   UNL     1     102.950 129.020 139.943  0.00  0.00    +0.000 OA
ATOM     21  C   UNL     1     102.238 129.091 139.534  0.00  0.00    +0.000 C 
ENDBRANCH  17  20
ENDBRANCH   4  14
BRANCH   9  22
ATOM     22  O   UNL     1     100.785 133.731 142.245  0.00  0.00    +0.000 OA
ATOM     23  C   UNL     1     100.784 134.007 143.023  0.00  0.00    +0.000 C 
ENDBRANCH   9  22
BRANCH  12  24
ATOM     24  O   UNL     1     102.969 134.887 140.809  0.00  0.00    +0.000 OA
ATOM     25  C   UNL     1     103.484 134.806 140.171  0.00  0.00    +0.000 C 
ENDBRANCH  12  24
TORSDOF 4
ENDMDL
MODEL 8
REMARK VINA RESULT:      -7.4     11.816     13.389
REMARK  Name = 21721836
REMARK  4 active torsions:
REMARK  status: ('A' for Active; 'I' for Inactive)
REMARK    1  A    between atoms: O_2  and  C_14
REMARK    2  A    between atoms: O_4  and  C_19
REMARK    3  A    between atoms: O_6  and  C_20
REMARK    4  A    between atoms: C_8  and  C_11
REMARK                            x       y       z     vdW  Elec       q    Type
REMARK                         _______ _______ _______ _____ _____    ______ ____
ROOT
ATOM      1  O   UNL     1     112.353 126.886 136.192  0.00  0.00    +0.000 OA
ATOM      2  O   UNL     1     110.431 125.357 135.579  0.00  0.00    +0.000 OA
ATOM      3  O   UNL     1     109.675 128.090 134.613  0.00  0.00    +0.000 OA
ATOM      4  C   UNL     1     112.397 126.053 136.395  0.00  0.00    +0.000 C 
ATOM      5  C   UNL     1     111.746 125.531 136.189  0.00  0.00    +0.000 C 
ATOM      6  C   UNL     1     111.034 126.687 135.586  0.00  0.00    +0.000 A 
ATOM      7  C   UNL     1     111.060 125.850 135.782  0.00  0.00    +0.000 C 
ATOM      8  C   UNL     1     111.659 127.188 135.785  0.00  0.00    +0.000 A 
ATOM      9  C   UNL     1     110.373 126.988 135.196  0.00  0.00    +0.000 A 
ATOM     10  C   UNL     1     111.623 127.989 135.593  0.00  0.00    +0.000 A 
ATOM     11  C   UNL     1     110.336 127.788 135.004  0.00  0.00    +0.000 A 
ATOM     12  C   UNL     1     110.961 128.289 135.202  0.00  0.00    +0.000 A 
ENDROOT
BRANCH   4  14
ATOM     13  O   UNL     1     115.047 124.862 137.960  0.00  0.00    +0.000 OA
ATOM     14  C   UNL     1     113.059 125.755 136.786  0.00  0.00    +0.000 A 
ATOM     15  C   UNL     1     113.221 125.989 137.561  0.00  0.00    +0.000 A 
ATOM     16  C   UNL     1     113.561 125.224 136.403  0.00  0.00    +0.000 A 
ATOM     17  C   UNL     1     113.884 125.691 137.952  0.00  0.00    +0.000 A 
ATOM     18  C   UNL     1     114.223 124.926 136.794  0.00  0.00    +0.000 A 
ATOM     19  C   UNL     1     114.385 125.159 137.569  0.00  0.00    +0.000 A 
BRANCH  17  20
ATOM     20  O   UNL     1     114.046 125.925 138.727  0.00  0.00    +0.000 OA
ATOM     21  C   UNL     1     113.513 126.407 139.132  0.00  0.00    +0.000 C 
ENDBRANCH  17  20
ENDBRANCH   4  14
BRANCH   9  22
ATOM     22  O   UNL     1     109.748 126.487 134.997  0.00  0.00    +0.000 OA
ATOM     23  C   UNL     1     109.050 126.504 135.436  0.00  0.00    +0.000 C 
ENDBRANCH   9  22
BRANCH  12  24
ATOM     24  O   UNL     1     110.924 129.091 135.009  0.00  0.00    +0.000 OA
ATOM     25  C   UNL     1     111.545 129.593 135.214  0.00  0.00    +0.000 C 
ENDBRANCH  12  24
TORSDOF 4
ENDMDL
MODEL 9
REMARK VINA RESULT:      -7.3     12.009     13.419
REMARK  Name = 21721836
REMARK  4 active torsions:
REMARK  status: ('A' for Active; 'I' for Inactive)
REMARK    1  A    between atoms: O_2  and  C_14
REMARK    2  A    between atoms: O_4  and  C_19
REMARK    3  A    between atoms: O_6  and  C_20
REMARK    4  A    between atoms: C_8  and  C_11
REMARK                            x       y       z     vdW  Elec       q    Type
REMARK                         _______ _______ _______ _____ _____    ______ ____
ROOT
ATOM      1  O   UNL     1     113.116 127.570 137.347  0.00  0.00    +0.000 OA
ATOM      2  O   UNL     1     114.153 128.787 135.384  0.00  0.00    +0.000 OA
ATOM      3  O   UNL     1     113.275 130.900 137.317  0.00  0.00    +0.000 OA
ATOM      4  C   UNL     1     113.427 127.117 136.687  0.00  0.00    +0.000 C 
ATOM      5  C   UNL     1     113.779 127.527 136.020  0.00  0.00    +0.000 C 
ATOM      6  C   UNL     1     113.500 128.822 136.689  0.00  0.00    +0.000 A 
ATOM      7  C   UNL     1     113.816 128.385 136.020  0.00  0.00    +0.000 C 
ATOM      8  C   UNL     1     113.161 128.429 137.331  0.00  0.00    +0.000 A 
ATOM      9  C   UNL     1     113.538 129.646 136.685  0.00  0.00    +0.000 A 
ATOM     10  C   UNL     1     112.861 128.858 137.967  0.00  0.00    +0.000 A 
ATOM     11  C   UNL     1     113.238 130.076 137.321  0.00  0.00    +0.000 A 
ATOM     12  C   UNL     1     112.899 129.682 137.962  0.00  0.00    +0.000 A 
ENDROOT
BRANCH   4  14
ATOM     13  O   UNL     1     113.269 123.820 136.716  0.00  0.00    +0.000 OA
ATOM     14  C   UNL     1     113.388 126.293 136.694  0.00  0.00    +0.000 A 
ATOM     15  C   UNL     1     112.700 125.910 136.447  0.00  0.00    +0.000 A 
ATOM     16  C   UNL     1     114.035 125.850 136.949  0.00  0.00    +0.000 A 
ATOM     17  C   UNL     1     112.660 125.086 136.454  0.00  0.00    +0.000 A 
ATOM     18  C   UNL     1     113.996 125.026 136.957  0.00  0.00    +0.000 A 
ATOM     19  C   UNL     1     113.308 124.644 136.709  0.00  0.00    +0.000 A 
BRANCH  17  20
ATOM     20  O   UNL     1     111.972 124.704 136.206  0.00  0.00    +0.000 OA
ATOM     21  C   UNL     1     111.238 125.064 136.315  0.00  0.00    +0.000 C 
ENDBRANCH  17  20
ENDBRANCH   4  14
BRANCH   9  22
ATOM     22  O   UNL     1     113.876 130.039 136.044  0.00  0.00    +0.000 OA
ATOM     23  C   UNL     1     114.620 130.387 136.119  0.00  0.00    +0.000 C 
ENDBRANCH   9  22
BRANCH  12  24
ATOM     24  O   UNL     1     112.598 130.113 138.599  0.00  0.00    +0.000 OA
ATOM     25  C   UNL     1     112.318 129.720 139.267  0.00  0.00    +0.000 C 
ENDBRANCH  12  24
TORSDOF 4
ENDMDL
MODEL 10
REMARK VINA RESULT:      -5.2      1.039      4.730
REMARK  Name = 21721836
REMARK  4 active torsions:
REMARK  status: ('A' for Active; 'I' for Inactive)
REMARK    1  A    between atoms: O_2  and  C_14
REMARK    2  A    between atoms: O_4  and  C_19
REMARK    3  A    between atoms: O_6  and  C_20
REMARK    4  A    between atoms: C_8  and  C_11
REMARK                            x       y       z     vdW  Elec       q    Type
REMARK                         _______ _______ _______ _____ _____    ______ ____
ROOT
ATOM      1  O   UNL     1     104.911 124.344 146.921  0.00  0.00    +0.000 OA
ATOM      2  O   UNL     1     103.418 124.880 148.894  0.00  0.00    +0.000 OA
ATOM      3  O   UNL     1     101.667 123.579 146.841  0.00  0.00    +0.000 OA
ATOM      4  C   UNL     1     105.248 124.726 147.612  0.00  0.00    +0.000 C 
ATOM      5  C   UNL     1     104.744 124.909 148.284  0.00  0.00    +0.000 C 
ATOM      6  C   UNL     1     103.589 124.326 147.553  0.00  0.00    +0.000 A 
ATOM      7  C   UNL     1     103.910 124.708 148.254  0.00  0.00    +0.000 C 
ATOM      8  C   UNL     1     104.074 124.151 146.909  0.00  0.00    +0.000 A 
ATOM      9  C   UNL     1     102.788 124.136 147.531  0.00  0.00    +0.000 A 
ATOM     10  C   UNL     1     103.756 123.785 146.241  0.00  0.00    +0.000 A 
ATOM     11  C   UNL     1     102.469 123.770 146.864  0.00  0.00    +0.000 A 
ATOM     12  C   UNL     1     102.953 123.594 146.219  0.00  0.00    +0.000 A 
ENDROOT
BRANCH   4  14
ATOM     13  O   UNL     1     108.459 125.484 147.692  0.00  0.00    +0.000 OA
ATOM     14  C   UNL     1     106.051 124.915 147.632  0.00  0.00    +0.000 A 
ATOM     15  C   UNL     1     106.345 125.517 147.151  0.00  0.00    +0.000 A 
ATOM     16  C   UNL     1     106.560 124.503 148.133  0.00  0.00    +0.000 A 
ATOM     17  C   UNL     1     107.148 125.707 147.170  0.00  0.00    +0.000 A 
ATOM     18  C   UNL     1     107.363 124.692 148.153  0.00  0.00    +0.000 A 
ATOM     19  C   UNL     1     107.657 125.294 147.672  0.00  0.00    +0.000 A 
BRANCH  17  20
ATOM     20  O   UNL     1     107.442 126.309 146.689  0.00  0.00    +0.000 OA
ATOM     21  C   UNL     1     107.005 127.001 146.580  0.00  0.00    +0.000 C 
ENDBRANCH  17  20
ENDBRANCH   4  14
BRANCH   9  22
ATOM     22  O   UNL     1     102.304 124.312 148.175  0.00  0.00    +0.000 OA
ATOM     23  C   UNL     1     102.070 123.713 148.691  0.00  0.00    +0.000 C 
ENDBRANCH   9  22
BRANCH  12  24
ATOM     24  O   UNL     1     102.635 123.228 145.552  0.00  0.00    +0.000 OA
ATOM     25  C   UNL     1     103.107 122.739 145.085  0.00  0.00    +0.000 C 
ENDBRANCH  12  24
TORSDOF 4
ENDMDL
