MODEL 1
REMARK VINA RESULT:      -8.6      0.000      0.000
REMARK  Name = 6442389
REMARK  4 active torsions:
REMARK  status: ('A' for Active; 'I' for Inactive)
REMARK    1  A    between atoms: O_3  and  C_11
REMARK    2  A    between atoms: C_5  and  C_9
REMARK    3  A    between atoms: C_6  and  C_10
REMARK    4  A    between atoms: C_15  and  C_19
REMARK                            x       y       z     vdW  Elec       q    Type
REMARK                         _______ _______ _______ _____ _____    ______ ____
ROOT
ATOM      1  O   UNL     1     112.693 126.856 136.388  0.00  0.00    +0.000 OA
ATOM      2  O   UNL     1     110.511 126.987 135.111  0.00  0.00    +0.000 OA
ATOM      3  C   UNL     1     112.463 125.434 136.568  0.00  0.00    +0.000 A 
ATOM      4  C   UNL     1     112.209 126.158 136.264  0.00  0.00    +0.000 A 
ATOM      5  C   UNL     1     111.499 126.203 135.847  0.00  0.00    +0.000 A 
ATOM      6  C   UNL     1     112.008 124.756 136.456  0.00  0.00    +0.000 A 
ATOM      7  C   UNL     1     111.042 125.525 135.735  0.00  0.00    +0.000 A 
ATOM      8  C   UNL     1     112.434 127.613 136.073  0.00  0.00    +0.000 A 
ATOM      9  C   UNL     1     111.223 126.950 135.526  0.00  0.00    +0.000 A 
ATOM     10  C   UNL     1     111.297 124.802 136.039  0.00  0.00    +0.000 A 
ATOM     11  C   UNL     1     111.693 127.661 135.639  0.00  0.00    +0.000 A 
ENDROOT
BRANCH   8  12
ATOM     12  C   UNL     1     112.892 128.290 136.187  0.00  0.00    +0.000 A 
ATOM     13  C   UNL     1     113.432 128.525 135.609  0.00  0.00    +0.000 A 
ATOM     14  C   UNL     1     112.811 128.732 136.879  0.00  0.00    +0.000 A 
ATOM     15  C   UNL     1     113.890 129.200 135.722  0.00  0.00    +0.000 A 
ATOM     16  C   UNL     1     113.269 129.409 136.992  0.00  0.00    +0.000 A 
ATOM     17  C   UNL     1     113.809 129.643 136.414  0.00  0.00    +0.000 A 
ENDBRANCH   8  12
BRANCH   6  18
ATOM     18  O   UNL     1     112.262 124.032 136.760  0.00  0.00    +0.000 OA
ATOM     19  C   UNL     1     111.736 123.399 136.811  0.00  0.00    +0.000 C 
ENDBRANCH   6  18
BRANCH   3  21
ATOM     20  C   UNL     1     113.856 125.117 136.609  0.00  0.00    +0.000 C 
ATOM     21  C   UNL     1     113.174 125.389 136.984  0.00  0.00    +0.000 C 
BRANCH  20  23
ATOM     22  O   UNL     1     115.278 125.026 137.441  0.00  0.00    +0.000 OA
ATOM     23  C   UNL     1     114.567 125.072 137.025  0.00  0.00    +0.000 C 
ATOM     24  C   UNL     1     114.980 125.005 136.314  0.00  0.00    +0.000 C 
ATOM     25  C   UNL     1     114.155 125.139 137.736  0.00  0.00    +0.000 C 
ENDBRANCH  20  23
ENDBRANCH   3  21
TORSDOF 4
ENDMDL
MODEL 2
REMARK VINA RESULT:      -8.6      0.857      2.691
REMARK  Name = 6442389
REMARK  4 active torsions:
REMARK  status: ('A' for Active; 'I' for Inactive)
REMARK    1  A    between atoms: O_3  and  C_11
REMARK    2  A    between atoms: C_5  and  C_9
REMARK    3  A    between atoms: C_6  and  C_10
REMARK    4  A    between atoms: C_15  and  C_19
REMARK                            x       y       z     vdW  Elec       q    Type
REMARK                         _______ _______ _______ _____ _____    ______ ____
ROOT
ATOM      1  O   UNL     1     112.867 126.429 136.488  0.00  0.00    +0.000 OA
ATOM      2  O   UNL     1     115.171 125.389 136.635  0.00  0.00    +0.000 OA
ATOM      3  C   UNL     1     112.296 125.101 136.621  0.00  0.00    +0.000 A 
ATOM      4  C   UNL     1     112.966 125.581 136.580  0.00  0.00    +0.000 A 
ATOM      5  C   UNL     1     113.718 125.245 136.628  0.00  0.00    +0.000 A 
ATOM      6  C   UNL     1     112.378 124.285 136.710  0.00  0.00    +0.000 A 
ATOM      7  C   UNL     1     113.800 124.428 136.717  0.00  0.00    +0.000 A 
ATOM      8  C   UNL     1     113.561 126.935 136.445  0.00  0.00    +0.000 A 
ATOM      9  C   UNL     1     114.423 125.734 136.587  0.00  0.00    +0.000 A 
ATOM     10  C   UNL     1     113.130 123.949 136.757  0.00  0.00    +0.000 A 
ATOM     11  C   UNL     1     114.345 126.584 136.495  0.00  0.00    +0.000 A 
ENDROOT
BRANCH   8  12
ATOM     12  C   UNL     1     113.476 127.751 136.357  0.00  0.00    +0.000 A 
ATOM     13  C   UNL     1     113.570 128.097 135.614  0.00  0.00    +0.000 A 
ATOM     14  C   UNL     1     113.298 128.220 137.011  0.00  0.00    +0.000 A 
ATOM     15  C   UNL     1     113.485 128.912 135.525  0.00  0.00    +0.000 A 
ATOM     16  C   UNL     1     113.213 129.037 136.922  0.00  0.00    +0.000 A 
ATOM     17  C   UNL     1     113.306 129.383 136.179  0.00  0.00    +0.000 A 
ENDBRANCH   8  12
BRANCH   6  18
ATOM     18  O   UNL     1     111.708 123.804 136.750  0.00  0.00    +0.000 OA
ATOM     19  C   UNL     1     111.773 123.028 137.020  0.00  0.00    +0.000 C 
ENDBRANCH   6  18
BRANCH   3  21
ATOM     20  C   UNL     1     111.136 125.435 135.857  0.00  0.00    +0.000 C 
ATOM     21  C   UNL     1     111.544 125.437 136.574  0.00  0.00    +0.000 C 
BRANCH  20  23
ATOM     22  O   UNL     1     109.632 126.107 135.762  0.00  0.00    +0.000 OA
ATOM     23  C   UNL     1     110.384 125.771 135.810  0.00  0.00    +0.000 C 
ATOM     24  C   UNL     1     110.406 125.705 134.987  0.00  0.00    +0.000 C 
ATOM     25  C   UNL     1     110.361 125.837 136.632  0.00  0.00    +0.000 C 
ENDBRANCH  20  23
ENDBRANCH   3  21
TORSDOF 4
ENDMDL
MODEL 3
REMARK VINA RESULT:      -8.5      1.111      3.556
REMARK  Name = 6442389
REMARK  4 active torsions:
REMARK  status: ('A' for Active; 'I' for Inactive)
REMARK    1  A    between atoms: O_3  and  C_11
REMARK    2  A    between atoms: C_5  and  C_9
REMARK    3  A    between atoms: C_6  and  C_10
REMARK    4  A    between atoms: C_15  and  C_19
REMARK                            x       y       z     vdW  Elec       q    Type
REMARK                         _______ _______ _______ _____ _____    ______ ____
ROOT
ATOM      1  O   UNL     1     112.661 126.832 136.285  0.00  0.00    +0.000 OA
ATOM      2  O   UNL     1     110.792 125.307 135.516  0.00  0.00    +0.000 OA
ATOM      3  C   UNL     1     111.929 127.955 135.726  0.00  0.00    +0.000 A 
ATOM      4  C   UNL     1     111.976 127.144 135.872  0.00  0.00    +0.000 A 
ATOM      5  C   UNL     1     111.368 126.645 135.623  0.00  0.00    +0.000 A 
ATOM      6  C   UNL     1     111.276 128.266 135.330  0.00  0.00    +0.000 A 
ATOM      7  C   UNL     1     110.714 126.956 135.227  0.00  0.00    +0.000 A 
ATOM      8  C   UNL     1     112.715 125.989 136.441  0.00  0.00    +0.000 A 
ATOM      9  C   UNL     1     111.404 125.799 135.769  0.00  0.00    +0.000 A 
ATOM     10  C   UNL     1     110.668 127.767 135.081  0.00  0.00    +0.000 A 
ATOM     11  C   UNL     1     112.082 125.468 136.181  0.00  0.00    +0.000 A 
ENDROOT
BRANCH   8  12
ATOM     12  C   UNL     1     113.370 125.680 136.837  0.00  0.00    +0.000 A 
ATOM     13  C   UNL     1     113.971 125.307 136.412  0.00  0.00    +0.000 A 
ATOM     14  C   UNL     1     113.424 125.744 137.658  0.00  0.00    +0.000 A 
ATOM     15  C   UNL     1     114.625 124.999 136.807  0.00  0.00    +0.000 A 
ATOM     16  C   UNL     1     114.079 125.435 138.053  0.00  0.00    +0.000 A 
ATOM     17  C   UNL     1     114.680 125.062 137.628  0.00  0.00    +0.000 A 
ENDBRANCH   8  12
BRANCH   6  18
ATOM     18  O   UNL     1     111.229 129.077 135.184  0.00  0.00    +0.000 OA
ATOM     19  C   UNL     1     110.526 129.406 134.906  0.00  0.00    +0.000 C 
ENDBRANCH   6  18
BRANCH   3  21
ATOM     20  C   UNL     1     113.116 128.698 135.441  0.00  0.00    +0.000 C 
ATOM     21  C   UNL     1     112.536 128.454 135.975  0.00  0.00    +0.000 C 
BRANCH  20  23
ATOM     22  O   UNL     1     114.331 129.697 135.940  0.00  0.00    +0.000 OA
ATOM     23  C   UNL     1     113.724 129.197 135.691  0.00  0.00    +0.000 C 
ATOM     24  C   UNL     1     114.135 129.046 134.992  0.00  0.00    +0.000 C 
ATOM     25  C   UNL     1     113.312 129.349 136.389  0.00  0.00    +0.000 C 
ENDBRANCH  20  23
ENDBRANCH   3  21
TORSDOF 4
ENDMDL
MODEL 4
REMARK VINA RESULT:      -8.3      1.512      3.892
REMARK  Name = 6442389
REMARK  4 active torsions:
REMARK  status: ('A' for Active; 'I' for Inactive)
REMARK    1  A    between atoms: O_3  and  C_11
REMARK    2  A    between atoms: C_5  and  C_9
REMARK    3  A    between atoms: C_6  and  C_10
REMARK    4  A    between atoms: C_15  and  C_19
REMARK                            x       y       z     vdW  Elec       q    Type
REMARK                         _______ _______ _______ _____ _____    ______ ____
ROOT
ATOM      1  O   UNL     1     112.743 127.020 136.240  0.00  0.00    +0.000 OA
ATOM      2  O   UNL     1     114.252 129.002 135.788  0.00  0.00    +0.000 OA
ATOM      3  C   UNL     1     111.631 127.788 135.708  0.00  0.00    +0.000 A 
ATOM      4  C   UNL     1     112.434 127.743 135.895  0.00  0.00    +0.000 A 
ATOM      5  C   UNL     1     112.928 128.387 135.749  0.00  0.00    +0.000 A 
ATOM      6  C   UNL     1     111.322 128.477 135.377  0.00  0.00    +0.000 A 
ATOM      7  C   UNL     1     112.619 129.077 135.416  0.00  0.00    +0.000 A 
ATOM      8  C   UNL     1     113.578 126.967 136.436  0.00  0.00    +0.000 A 
ATOM      9  C   UNL     1     113.765 128.353 135.938  0.00  0.00    +0.000 A 
ATOM     10  C   UNL     1     111.816 129.121 135.231  0.00  0.00    +0.000 A 
ATOM     11  C   UNL     1     114.093 127.638 136.284  0.00  0.00    +0.000 A 
ENDROOT
BRANCH   8  12
ATOM     12  C   UNL     1     113.884 126.276 136.768  0.00  0.00    +0.000 A 
ATOM     13  C   UNL     1     113.795 126.132 137.575  0.00  0.00    +0.000 A 
ATOM     14  C   UNL     1     114.280 125.730 136.292  0.00  0.00    +0.000 A 
ATOM     15  C   UNL     1     114.100 125.442 137.907  0.00  0.00    +0.000 A 
ATOM     16  C   UNL     1     114.586 125.039 136.625  0.00  0.00    +0.000 A 
ATOM     17  C   UNL     1     114.496 124.895 137.433  0.00  0.00    +0.000 A 
ENDBRANCH   8  12
BRANCH   6  18
ATOM     18  O   UNL     1     110.520 128.522 135.190  0.00  0.00    +0.000 OA
ATOM     19  C   UNL     1     110.185 129.246 134.983  0.00  0.00    +0.000 C 
ENDBRANCH   6  18
BRANCH   3  21
ATOM     20  C   UNL     1     110.927 126.637 135.239  0.00  0.00    +0.000 C 
ATOM     21  C   UNL     1     111.137 127.144 135.854  0.00  0.00    +0.000 C 
BRANCH  20  23
ATOM     22  O   UNL     1     109.939 125.348 135.531  0.00  0.00    +0.000 OA
ATOM     23  C   UNL     1     110.433 125.992 135.385  0.00  0.00    +0.000 C 
ATOM     24  C   UNL     1     110.310 126.261 136.155  0.00  0.00    +0.000 C 
ATOM     25  C   UNL     1     110.556 125.724 134.614  0.00  0.00    +0.000 C 
ENDBRANCH  20  23
ENDBRANCH   3  21
TORSDOF 4
ENDMDL
MODEL 5
REMARK VINA RESULT:      -8.0      1.754      4.430
REMARK  Name = 6442389
REMARK  4 active torsions:
REMARK  status: ('A' for Active; 'I' for Inactive)
REMARK    1  A    between atoms: O_3  and  C_11
REMARK    2  A    between atoms: C_5  and  C_9
REMARK    3  A    between atoms: C_6  and  C_10
REMARK    4  A    between atoms: C_15  and  C_19
REMARK                            x       y       z     vdW  Elec       q    Type
REMARK                         _______ _______ _______ _____ _____    ______ ____
ROOT
ATOM      1  O   UNL     1     113.224 126.995 137.693  0.00  0.00    +0.000 OA
ATOM      2  O   UNL     1     113.405 126.865 140.215  0.00  0.00    +0.000 OA
ATOM      3  C   UNL     1     112.889 128.402 137.824  0.00  0.00    +0.000 A 
ATOM      4  C   UNL     1     113.085 127.686 138.184  0.00  0.00    +0.000 A 
ATOM      5  C   UNL     1     113.145 127.640 139.006  0.00  0.00    +0.000 A 
ATOM      6  C   UNL     1     112.753 129.072 138.285  0.00  0.00    +0.000 A 
ATOM      7  C   UNL     1     113.008 128.311 139.467  0.00  0.00    +0.000 A 
ATOM      8  C   UNL     1     113.428 126.246 138.063  0.00  0.00    +0.000 A 
ATOM      9  C   UNL     1     113.348 126.901 139.393  0.00  0.00    +0.000 A 
ATOM     10  C   UNL     1     112.813 129.027 139.106  0.00  0.00    +0.000 A 
ATOM     11  C   UNL     1     113.491 126.199 138.919  0.00  0.00    +0.000 A 
ENDROOT
BRANCH   8  12
ATOM     12  C   UNL     1     113.564 125.577 137.599  0.00  0.00    +0.000 A 
ATOM     13  C   UNL     1     114.336 125.356 137.409  0.00  0.00    +0.000 A 
ATOM     14  C   UNL     1     112.927 125.129 137.326  0.00  0.00    +0.000 A 
ATOM     15  C   UNL     1     114.472 124.688 136.946  0.00  0.00    +0.000 A 
ATOM     16  C   UNL     1     113.064 124.460 136.862  0.00  0.00    +0.000 A 
ATOM     17  C   UNL     1     113.836 124.239 136.672  0.00  0.00    +0.000 A 
ENDBRANCH   8  12
BRANCH   6  18
ATOM     18  O   UNL     1     112.557 129.788 137.925  0.00  0.00    +0.000 OA
ATOM     19  C   UNL     1     112.293 130.422 138.382  0.00  0.00    +0.000 C 
ENDBRANCH   6  18
BRANCH   3  21
ATOM     20  C   UNL     1     113.457 128.745 136.558  0.00  0.00    +0.000 C 
ATOM     21  C   UNL     1     112.829 128.447 137.003  0.00  0.00    +0.000 C 
BRANCH  20  23
ATOM     22  O   UNL     1     113.337 128.835 134.915  0.00  0.00    +0.000 OA
ATOM     23  C   UNL     1     113.397 128.790 135.737  0.00  0.00    +0.000 C 
ATOM     24  C   UNL     1     112.585 128.658 135.789  0.00  0.00    +0.000 C 
ATOM     25  C   UNL     1     114.210 128.922 135.685  0.00  0.00    +0.000 C 
ENDBRANCH  20  23
ENDBRANCH   3  21
TORSDOF 4
ENDMDL
MODEL 6
REMARK VINA RESULT:      -7.9      2.251      4.176
REMARK  Name = 6442389
REMARK  4 active torsions:
REMARK  status: ('A' for Active; 'I' for Inactive)
REMARK    1  A    between atoms: O_3  and  C_11
REMARK    2  A    between atoms: C_5  and  C_9
REMARK    3  A    between atoms: C_6  and  C_10
REMARK    4  A    between atoms: C_15  and  C_19
REMARK                            x       y       z     vdW  Elec       q    Type
REMARK                         _______ _______ _______ _____ _____    ______ ____
ROOT
ATOM      1  O   UNL     1     113.289 126.963 137.953  0.00  0.00    +0.000 OA
ATOM      2  O   UNL     1     113.414 128.398 135.872  0.00  0.00    +0.000 OA
ATOM      3  C   UNL     1     112.945 128.152 138.712  0.00  0.00    +0.000 A 
ATOM      4  C   UNL     1     113.136 127.807 137.987  0.00  0.00    +0.000 A 
ATOM      5  C   UNL     1     113.177 128.272 137.307  0.00  0.00    +0.000 A 
ATOM      6  C   UNL     1     112.796 128.962 138.757  0.00  0.00    +0.000 A 
ATOM      7  C   UNL     1     113.028 129.083 137.352  0.00  0.00    +0.000 A 
ATOM      8  C   UNL     1     113.488 126.597 137.201  0.00  0.00    +0.000 A 
ATOM      9  C   UNL     1     113.375 127.926 136.547  0.00  0.00    +0.000 A 
ATOM     10  C   UNL     1     112.837 129.427 138.077  0.00  0.00    +0.000 A 
ATOM     11  C   UNL     1     113.531 127.082 136.492  0.00  0.00    +0.000 A 
ENDROOT
BRANCH   8  12
ATOM     12  C   UNL     1     113.637 125.787 137.159  0.00  0.00    +0.000 A 
ATOM     13  C   UNL     1     113.020 125.261 137.008  0.00  0.00    +0.000 A 
ATOM     14  C   UNL     1     114.404 125.502 137.267  0.00  0.00    +0.000 A 
ATOM     15  C   UNL     1     113.168 124.452 136.966  0.00  0.00    +0.000 A 
ATOM     16  C   UNL     1     114.552 124.691 137.225  0.00  0.00    +0.000 A 
ATOM     17  C   UNL     1     113.934 124.166 137.074  0.00  0.00    +0.000 A 
ENDBRANCH   8  12
BRANCH   6  18
ATOM     18  O   UNL     1     112.605 129.307 139.482  0.00  0.00    +0.000 OA
ATOM     19  C   UNL     1     112.329 130.083 139.509  0.00  0.00    +0.000 C 
ENDBRANCH   6  18
BRANCH   3  21
ATOM     20  C   UNL     1     113.541 127.664 139.916  0.00  0.00    +0.000 C 
ATOM     21  C   UNL     1     112.904 127.687 139.392  0.00  0.00    +0.000 C 
BRANCH  20  23
ATOM     22  O   UNL     1     113.458 126.733 141.276  0.00  0.00    +0.000 OA
ATOM     23  C   UNL     1     113.500 127.198 140.596  0.00  0.00    +0.000 C 
ATOM     24  C   UNL     1     112.690 127.093 140.474  0.00  0.00    +0.000 C 
ATOM     25  C   UNL     1     114.309 127.304 140.717  0.00  0.00    +0.000 C 
ENDBRANCH  20  23
ENDBRANCH   3  21
TORSDOF 4
ENDMDL
