MODEL 1
REMARK VINA RESULT:     -10.5      0.000      0.000
REMARK  Name = 44257666
REMARK  6 active torsions:
REMARK  status: ('A' for Active; 'I' for Inactive)
REMARK    1  A    between atoms: O_1  and  C_15
REMARK    2  A    between atoms: O_1  and  C_20
REMARK    3  A    between atoms: C_17  and  C_24
REMARK    4  A    between atoms: C_19  and  C_25
REMARK    5  A    between atoms: C_23  and  C_26
REMARK    6  A    between atoms: C_33  and  C_35
REMARK                            x       y       z     vdW  Elec       q    Type
REMARK                         _______ _______ _______ _____ _____    ______ ____
ROOT
ATOM      1  O   UNL     1     113.453 127.328 136.630  0.00  0.00    +0.000 OA
ATOM      2  O   UNL     1     112.599 128.256 138.760  0.00  0.00    +0.000 OA
ATOM      3  O   UNL     1     113.170 129.268 137.590  0.00  0.00    +0.000 OA
ATOM      4  C   UNL     1     112.883 127.131 137.926  0.00  0.00    +0.000 C 
ATOM      5  C   UNL     1     112.884 127.946 138.050  0.00  0.00    +0.000 C 
ATOM      6  C   UNL     1     113.167 126.822 137.216  0.00  0.00    +0.000 C 
ATOM      7  C   UNL     1     113.169 128.453 137.465  0.00  0.00    +0.000 C 
ATOM      8  C   UNL     1     113.454 128.144 136.755  0.00  0.00    +0.000 C 
ENDROOT
BRANCH   6  13
ATOM      9  O   UNL     1     111.797 126.109 136.617  0.00  0.00    +0.000 OA
ATOM     10  O   UNL     1     114.513 125.933 137.562  0.00  0.00    +0.000 OA
ATOM     11  O   UNL     1     113.162 123.560 136.717  0.00  0.00    +0.000 OA
ATOM     12  O   UNL     1     111.803 123.606 136.238  0.00  0.00    +0.000 OA
ATOM     13  C   UNL     1     113.166 126.007 137.091  0.00  0.00    +0.000 A 
ATOM     14  C   UNL     1     112.492 125.635 136.794  0.00  0.00    +0.000 A 
ATOM     15  C   UNL     1     113.839 125.562 137.264  0.00  0.00    +0.000 A 
ATOM     16  C   UNL     1     112.491 124.820 136.669  0.00  0.00    +0.000 A 
ATOM     17  C   UNL     1     113.838 124.746 137.139  0.00  0.00    +0.000 A 
ATOM     18  C   UNL     1     113.164 124.376 136.842  0.00  0.00    +0.000 A 
ATOM     19  C   UNL     1     111.795 124.422 136.360  0.00  0.00    +0.000 A 
ATOM     20  C   UNL     1     111.092 125.729 136.307  0.00  0.00    +0.000 A 
ATOM     21  C   UNL     1     111.091 124.880 136.177  0.00  0.00    +0.000 A 
BRANCH  20  23
ATOM     22  O   UNL     1     108.407 127.519 135.619  0.00  0.00    +0.000 OA
ATOM     23  C   UNL     1     110.421 126.176 136.135  0.00  0.00    +0.000 A 
ATOM     24  C   UNL     1     110.318 126.492 135.380  0.00  0.00    +0.000 A 
ATOM     25  C   UNL     1     109.852 126.308 136.718  0.00  0.00    +0.000 A 
ATOM     26  C   UNL     1     109.647 126.940 135.208  0.00  0.00    +0.000 A 
ATOM     27  C   UNL     1     109.180 126.755 136.546  0.00  0.00    +0.000 A 
ATOM     28  C   UNL     1     109.078 127.071 135.791  0.00  0.00    +0.000 A 
ENDBRANCH  20  23
ENDBRANCH   6  13
BRANCH   8  30
ATOM     29  O   UNL     1     113.581 128.495 135.375  0.00  0.00    +0.000 OA
ATOM     30  C   UNL     1     113.740 128.650 136.170  0.00  0.00    +0.000 C 
ENDBRANCH   8  30
BRANCH   4  31
ATOM     31  O   UNL     1     112.597 126.625 138.511  0.00  0.00    +0.000 OA
BRANCH  31  35
ATOM     32  O   UNL     1     113.571 126.999 139.547  0.00  0.00    +0.000 OA
ATOM     33  O   UNL     1     111.603 126.285 139.966  0.00  0.00    +0.000 OA
ATOM     34  O   UNL     1     112.590 126.670 141.415  0.00  0.00    +0.000 OA
ATOM     35  C   UNL     1     112.834 126.725 139.294  0.00  0.00    +0.000 C 
ATOM     36  C   UNL     1     112.377 126.568 139.963  0.00  0.00    +0.000 C 
ATOM     37  C   UNL     1     112.831 126.745 140.629  0.00  0.00    +0.000 C 
ATOM     38  C   UNL     1     113.568 127.011 140.372  0.00  0.00    +0.000 C 
BRANCH  38  40
ATOM     39  O   UNL     1     114.960 126.986 140.697  0.00  0.00    +0.000 OA
ATOM     40  C   UNL     1     114.194 127.249 140.855  0.00  0.00    +0.000 C 
ENDBRANCH  38  40
ENDBRANCH  31  35
ENDBRANCH   4  31
TORSDOF 6
ENDMDL
MODEL 2
REMARK VINA RESULT:     -10.1      1.725      3.597
REMARK  Name = 44257666
REMARK  6 active torsions:
REMARK  status: ('A' for Active; 'I' for Inactive)
REMARK    1  A    between atoms: O_1  and  C_15
REMARK    2  A    between atoms: O_1  and  C_20
REMARK    3  A    between atoms: C_17  and  C_24
REMARK    4  A    between atoms: C_19  and  C_25
REMARK    5  A    between atoms: C_23  and  C_26
REMARK    6  A    between atoms: C_33  and  C_35
REMARK                            x       y       z     vdW  Elec       q    Type
REMARK                         _______ _______ _______ _____ _____    ______ ____
ROOT
ATOM      1  O   UNL     1     112.493 128.502 135.421  0.00  0.00    +0.000 OA
ATOM      2  O   UNL     1     111.614 130.049 137.141  0.00  0.00    +0.000 OA
ATOM      3  O   UNL     1     113.139 130.256 136.547  0.00  0.00    +0.000 OA
ATOM      4  C   UNL     1     111.437 128.915 136.292  0.00  0.00    +0.000 C 
ATOM      5  C   UNL     1     111.907 129.533 136.568  0.00  0.00    +0.000 C 
ATOM      6  C   UNL     1     111.730 128.399 135.718  0.00  0.00    +0.000 C 
ATOM      7  C   UNL     1     112.670 129.637 136.271  0.00  0.00    +0.000 C 
ATOM      8  C   UNL     1     112.963 129.121 135.697  0.00  0.00    +0.000 C 
ENDROOT
BRANCH   6  13
ATOM      9  O   UNL     1     112.113 126.849 136.161  0.00  0.00    +0.000 OA
ATOM     10  O   UNL     1     110.437 128.716 134.743  0.00  0.00    +0.000 OA
ATOM     11  O   UNL     1     109.851 125.921 134.612  0.00  0.00    +0.000 OA
ATOM     12  O   UNL     1     110.665 124.955 135.308  0.00  0.00    +0.000 OA
ATOM     13  C   UNL     1     111.260 127.780 135.441  0.00  0.00    +0.000 A 
ATOM     14  C   UNL     1     111.437 127.001 135.653  0.00  0.00    +0.000 A 
ATOM     15  C   UNL     1     110.614 127.938 134.954  0.00  0.00    +0.000 A 
ATOM     16  C   UNL     1     110.967 126.382 135.376  0.00  0.00    +0.000 A 
ATOM     17  C   UNL     1     110.144 127.318 134.678  0.00  0.00    +0.000 A 
ATOM     18  C   UNL     1     110.321 126.541 134.889  0.00  0.00    +0.000 A 
ATOM     19  C   UNL     1     111.141 125.568 135.589  0.00  0.00    +0.000 A 
ATOM     20  C   UNL     1     112.302 126.041 136.384  0.00  0.00    +0.000 A 
ATOM     21  C   UNL     1     111.812 125.397 136.096  0.00  0.00    +0.000 A 
BRANCH  20  23
ATOM     22  O   UNL     1     114.889 125.421 138.335  0.00  0.00    +0.000 OA
ATOM     23  C   UNL     1     112.948 125.886 136.871  0.00  0.00    +0.000 A 
ATOM     24  C   UNL     1     112.856 125.886 137.692  0.00  0.00    +0.000 A 
ATOM     25  C   UNL     1     113.688 125.731 136.540  0.00  0.00    +0.000 A 
ATOM     26  C   UNL     1     113.503 125.731 138.179  0.00  0.00    +0.000 A 
ATOM     27  C   UNL     1     114.335 125.576 137.027  0.00  0.00    +0.000 A 
ATOM     28  C   UNL     1     114.243 125.576 137.848  0.00  0.00    +0.000 A 
ENDBRANCH  20  23
ENDBRANCH   6  13
BRANCH   8  30
ATOM     29  O   UNL     1     113.899 129.009 134.623  0.00  0.00    +0.000 OA
ATOM     30  C   UNL     1     113.725 129.225 135.400  0.00  0.00    +0.000 C 
ENDBRANCH   8  30
BRANCH   4  31
ATOM     31  O   UNL     1     110.674 128.811 136.588  0.00  0.00    +0.000 OA
BRANCH  31  35
ATOM     32  O   UNL     1     111.097 128.634 137.985  0.00  0.00    +0.000 OA
ATOM     33  O   UNL     1     109.138 129.252 137.405  0.00  0.00    +0.000 OA
ATOM     34  O   UNL     1     109.391 129.114 139.176  0.00  0.00    +0.000 OA
ATOM     35  C   UNL     1     110.544 128.823 137.402  0.00  0.00    +0.000 C 
ATOM     36  C   UNL     1     109.837 129.026 137.778  0.00  0.00    +0.000 C 
ATOM     37  C   UNL     1     109.954 128.963 138.592  0.00  0.00    +0.000 C 
ATOM     38  C   UNL     1     110.732 128.720 138.720  0.00  0.00    +0.000 C 
BRANCH  38  40
ATOM     39  O   UNL     1     111.412 127.851 139.629  0.00  0.00    +0.000 OA
ATOM     40  C   UNL     1     111.084 128.588 139.455  0.00  0.00    +0.000 C 
ENDBRANCH  38  40
ENDBRANCH  31  35
ENDBRANCH   4  31
TORSDOF 6
ENDMDL
MODEL 3
REMARK VINA RESULT:     -10.0      1.502      4.366
REMARK  Name = 44257666
REMARK  6 active torsions:
REMARK  status: ('A' for Active; 'I' for Inactive)
REMARK    1  A    between atoms: O_1  and  C_15
REMARK    2  A    between atoms: O_1  and  C_20
REMARK    3  A    between atoms: C_17  and  C_24
REMARK    4  A    between atoms: C_19  and  C_25
REMARK    5  A    between atoms: C_23  and  C_26
REMARK    6  A    between atoms: C_33  and  C_35
REMARK                            x       y       z     vdW  Elec       q    Type
REMARK                         _______ _______ _______ _____ _____    ______ ____
ROOT
ATOM      1  O   UNL     1     110.936 125.508 138.522  0.00  0.00    +0.000 OA
ATOM      2  O   UNL     1     109.686 126.961 136.955  0.00  0.00    +0.000 OA
ATOM      3  O   UNL     1     109.119 126.717 138.486  0.00  0.00    +0.000 OA
ATOM      4  C   UNL     1     110.802 126.115 137.234  0.00  0.00    +0.000 C 
ATOM      5  C   UNL     1     110.103 126.477 137.478  0.00  0.00    +0.000 C 
ATOM      6  C   UNL     1     111.219 125.630 137.757  0.00  0.00    +0.000 C 
ATOM      7  C   UNL     1     109.819 126.355 138.243  0.00  0.00    +0.000 C 
ATOM      8  C   UNL     1     110.236 125.871 138.765  0.00  0.00    +0.000 C 
ENDROOT
BRANCH   6  13
ATOM      9  O   UNL     1     112.652 126.149 138.407  0.00  0.00    +0.000 OA
ATOM     10  O   UNL     1     111.175 124.413 136.643  0.00  0.00    +0.000 OA
ATOM     11  O   UNL     1     114.021 124.181 136.785  0.00  0.00    +0.000 OA
ATOM     12  O   UNL     1     114.796 125.031 137.655  0.00  0.00    +0.000 OA
ATOM     13  C   UNL     1     111.919 125.268 137.514  0.00  0.00    +0.000 A 
ATOM     14  C   UNL     1     112.642 125.514 137.828  0.00  0.00    +0.000 A 
ATOM     15  C   UNL     1     111.898 124.660 136.957  0.00  0.00    +0.000 A 
ATOM     16  C   UNL     1     113.342 125.152 137.585  0.00  0.00    +0.000 A 
ATOM     17  C   UNL     1     112.598 124.297 136.714  0.00  0.00    +0.000 A 
ATOM     18  C   UNL     1     113.320 124.543 137.028  0.00  0.00    +0.000 A 
ATOM     19  C   UNL     1     114.100 125.399 137.904  0.00  0.00    +0.000 A 
ATOM     20  C   UNL     1     113.401 126.410 138.737  0.00  0.00    +0.000 A 
ATOM     21  C   UNL     1     114.130 126.032 138.484  0.00  0.00    +0.000 A 
BRANCH  20  23
ATOM     22  O   UNL     1     113.475 128.844 140.963  0.00  0.00    +0.000 OA
ATOM     23  C   UNL     1     113.420 127.018 139.293  0.00  0.00    +0.000 A 
ATOM     24  C   UNL     1     113.436 127.804 139.044  0.00  0.00    +0.000 A 
ATOM     25  C   UNL     1     113.422 126.841 140.099  0.00  0.00    +0.000 A 
ATOM     26  C   UNL     1     113.455 128.413 139.601  0.00  0.00    +0.000 A 
ATOM     27  C   UNL     1     113.440 127.449 140.656  0.00  0.00    +0.000 A 
ATOM     28  C   UNL     1     113.457 128.236 140.407  0.00  0.00    +0.000 A 
ENDBRANCH  20  23
ENDBRANCH   6  13
BRANCH   8  30
ATOM     29  O   UNL     1     110.050 125.016 139.895  0.00  0.00    +0.000 OA
ATOM     30  C   UNL     1     109.952 125.749 139.530  0.00  0.00    +0.000 C 
ENDBRANCH   8  30
BRANCH   4  31
ATOM     31  O   UNL     1     111.086 126.236 136.469  0.00  0.00    +0.000 OA
BRANCH  31  35
ATOM     32  O   UNL     1     111.295 127.686 136.594  0.00  0.00    +0.000 OA
ATOM     33  O   UNL     1     110.853 126.703 134.752  0.00  0.00    +0.000 OA
ATOM     34  O   UNL     1     111.062 128.481 134.626  0.00  0.00    +0.000 OA
ATOM     35  C   UNL     1     111.133 127.001 136.164  0.00  0.00    +0.000 C 
ATOM     36  C   UNL     1     111.026 127.215 135.374  0.00  0.00    +0.000 C 
ATOM     37  C   UNL     1     111.121 128.032 135.316  0.00  0.00    +0.000 C 
ATOM     38  C   UNL     1     111.288 128.323 136.071  0.00  0.00    +0.000 C 
BRANCH  38  40
ATOM     39  O   UNL     1     112.108 129.326 136.674  0.00  0.00    +0.000 OA
ATOM     40  C   UNL     1     111.423 129.114 136.266  0.00  0.00    +0.000 C 
ENDBRANCH  38  40
ENDBRANCH  31  35
ENDBRANCH   4  31
TORSDOF 6
ENDMDL
MODEL 4
REMARK VINA RESULT:     -10.0      1.452      3.219
REMARK  Name = 44257666
REMARK  6 active torsions:
REMARK  status: ('A' for Active; 'I' for Inactive)
REMARK    1  A    between atoms: O_1  and  C_15
REMARK    2  A    between atoms: O_1  and  C_20
REMARK    3  A    between atoms: C_17  and  C_24
REMARK    4  A    between atoms: C_19  and  C_25
REMARK    5  A    between atoms: C_23  and  C_26
REMARK    6  A    between atoms: C_33  and  C_35
REMARK                            x       y       z     vdW  Elec       q    Type
REMARK                         _______ _______ _______ _____ _____    ______ ____
ROOT
ATOM      1  O   UNL     1     113.375 125.656 136.354  0.00  0.00    +0.000 OA
ATOM      2  O   UNL     1     113.126 125.454 138.809  0.00  0.00    +0.000 OA
ATOM      3  O   UNL     1     114.621 125.348 138.120  0.00  0.00    +0.000 OA
ATOM      4  C   UNL     1     112.544 125.642 137.518  0.00  0.00    +0.000 C 
ATOM      5  C   UNL     1     113.209 125.522 137.990  0.00  0.00    +0.000 C 
ATOM      6  C   UNL     1     112.627 125.709 136.699  0.00  0.00    +0.000 C 
ATOM      7  C   UNL     1     113.957 125.468 137.646  0.00  0.00    +0.000 C 
ATOM      8  C   UNL     1     114.040 125.536 136.828  0.00  0.00    +0.000 C 
ENDROOT
BRANCH   6  13
ATOM      9  O   UNL     1     112.364 127.216 136.064  0.00  0.00    +0.000 OA
ATOM     10  O   UNL     1     111.590 124.461 136.401  0.00  0.00    +0.000 OA
ATOM     11  O   UNL     1     109.968 126.191 134.805  0.00  0.00    +0.000 OA
ATOM     12  O   UNL     1     110.321 127.576 134.612  0.00  0.00    +0.000 OA
ATOM     13  C   UNL     1     111.962 125.829 136.226  0.00  0.00    +0.000 A 
ATOM     14  C   UNL     1     111.816 126.574 135.901  0.00  0.00    +0.000 A 
ATOM     15  C   UNL     1     111.443 125.206 136.077  0.00  0.00    +0.000 A 
ATOM     16  C   UNL     1     111.152 126.694 135.428  0.00  0.00    +0.000 A 
ATOM     17  C   UNL     1     110.779 125.326 135.603  0.00  0.00    +0.000 A 
ATOM     18  C   UNL     1     110.633 126.070 135.279  0.00  0.00    +0.000 A 
ATOM     19  C   UNL     1     110.989 127.465 135.084  0.00  0.00    +0.000 A 
ATOM     20  C   UNL     1     112.217 127.994 135.729  0.00  0.00    +0.000 A 
ATOM     21  C   UNL     1     111.525 128.119 135.236  0.00  0.00    +0.000 A 
BRANCH  20  23
ATOM     22  O   UNL     1     114.300 130.480 136.332  0.00  0.00    +0.000 OA
ATOM     23  C   UNL     1     112.738 128.615 135.880  0.00  0.00    +0.000 A 
ATOM     24  C   UNL     1     113.436 128.682 135.446  0.00  0.00    +0.000 A 
ATOM     25  C   UNL     1     112.560 129.169 136.465  0.00  0.00    +0.000 A 
ATOM     26  C   UNL     1     113.957 129.304 135.597  0.00  0.00    +0.000 A 
ATOM     27  C   UNL     1     113.081 129.792 136.616  0.00  0.00    +0.000 A 
ATOM     28  C   UNL     1     113.780 129.859 136.182  0.00  0.00    +0.000 A 
ENDBRANCH  20  23
ENDBRANCH   6  13
BRANCH   8  30
ATOM     29  O   UNL     1     114.889 125.068 135.778  0.00  0.00    +0.000 OA
ATOM     30  C   UNL     1     114.787 125.482 136.484  0.00  0.00    +0.000 C 
ENDBRANCH   8  30
BRANCH   4  31
ATOM     31  O   UNL     1     111.796 125.695 137.862  0.00  0.00    +0.000 OA
BRANCH  31  35
ATOM     32  O   UNL     1     112.087 126.850 138.724  0.00  0.00    +0.000 OA
ATOM     33  O   UNL     1     110.642 125.349 139.193  0.00  0.00    +0.000 OA
ATOM     34  O   UNL     1     110.801 126.652 140.417  0.00  0.00    +0.000 OA
ATOM     35  C   UNL     1     111.686 126.152 138.539  0.00  0.00    +0.000 C 
ATOM     36  C   UNL     1     111.155 125.993 139.151  0.00  0.00    +0.000 C 
ATOM     37  C   UNL     1     111.228 126.592 139.714  0.00  0.00    +0.000 C 
ATOM     38  C   UNL     1     111.804 127.121 139.450  0.00  0.00    +0.000 C 
BRANCH  38  40
ATOM     39  O   UNL     1     112.009 128.536 139.467  0.00  0.00    +0.000 OA
ATOM     40  C   UNL     1     112.053 127.803 139.843  0.00  0.00    +0.000 C 
ENDBRANCH  38  40
ENDBRANCH  31  35
ENDBRANCH   4  31
TORSDOF 6
ENDMDL
MODEL 5
REMARK VINA RESULT:      -9.9      1.397      3.154
REMARK  Name = 44257666
REMARK  6 active torsions:
REMARK  status: ('A' for Active; 'I' for Inactive)
REMARK    1  A    between atoms: O_1  and  C_15
REMARK    2  A    between atoms: O_1  and  C_20
REMARK    3  A    between atoms: C_17  and  C_24
REMARK    4  A    between atoms: C_19  and  C_25
REMARK    5  A    between atoms: C_23  and  C_26
REMARK    6  A    between atoms: C_33  and  C_35
REMARK                            x       y       z     vdW  Elec       q    Type
REMARK                         _______ _______ _______ _____ _____    ______ ____
ROOT
ATOM      1  O   UNL     1     111.461 126.329 139.123  0.00  0.00    +0.000 OA
ATOM      2  O   UNL     1     111.288 128.791 139.309  0.00  0.00    +0.000 OA
ATOM      3  O   UNL     1     109.987 127.843 139.671  0.00  0.00    +0.000 OA
ATOM      4  C   UNL     1     112.053 127.625 139.004  0.00  0.00    +0.000 C 
ATOM      5  C   UNL     1     111.346 127.970 139.247  0.00  0.00    +0.000 C 
ATOM      6  C   UNL     1     112.111 126.804 138.942  0.00  0.00    +0.000 C 
ATOM      7  C   UNL     1     110.695 127.496 139.428  0.00  0.00    +0.000 C 
ATOM      8  C   UNL     1     110.753 126.675 139.366  0.00  0.00    +0.000 C 
ENDROOT
BRANCH   6  13
ATOM      9  O   UNL     1     112.196 126.144 137.424  0.00  0.00    +0.000 OA
ATOM     10  O   UNL     1     113.410 126.778 139.960  0.00  0.00    +0.000 OA
ATOM     11  O   UNL     1     114.944 125.418 137.968  0.00  0.00    +0.000 OA
ATOM     12  O   UNL     1     114.373 125.084 136.686  0.00  0.00    +0.000 OA
ATOM     13  C   UNL     1     112.820 126.458 138.698  0.00  0.00    +0.000 A 
ATOM     14  C   UNL     1     112.879 126.124 137.946  0.00  0.00    +0.000 A 
ATOM     15  C   UNL     1     113.469 126.444 139.207  0.00  0.00    +0.000 A 
ATOM     16  C   UNL     1     113.587 125.778 137.702  0.00  0.00    +0.000 A 
ATOM     17  C   UNL     1     114.177 126.098 138.964  0.00  0.00    +0.000 A 
ATOM     18  C   UNL     1     114.236 125.765 138.212  0.00  0.00    +0.000 A 
ATOM     19  C   UNL     1     113.661 125.428 136.921  0.00  0.00    +0.000 A 
ATOM     20  C   UNL     1     112.251 125.799 136.640  0.00  0.00    +0.000 A 
ATOM     21  C   UNL     1     112.989 125.439 136.387  0.00  0.00    +0.000 A 
BRANCH  20  23
ATOM     22  O   UNL     1     109.648 125.859 134.613  0.00  0.00    +0.000 OA
ATOM     23  C   UNL     1     111.601 125.814 136.133  0.00  0.00    +0.000 A 
ATOM     24  C   UNL     1     111.473 126.467 135.645  0.00  0.00    +0.000 A 
ATOM     25  C   UNL     1     111.078 125.176 136.114  0.00  0.00    +0.000 A 
ATOM     26  C   UNL     1     110.822 126.481 135.138  0.00  0.00    +0.000 A 
ATOM     27  C   UNL     1     110.427 125.191 135.607  0.00  0.00    +0.000 A 
ATOM     28  C   UNL     1     110.299 125.844 135.119  0.00  0.00    +0.000 A 
ENDBRANCH  20  23
ENDBRANCH   6  13
BRANCH   8  30
ATOM     29  O   UNL     1     110.206 125.504 139.976  0.00  0.00    +0.000 OA
ATOM     30  C   UNL     1     110.103 126.201 139.547  0.00  0.00    +0.000 C 
ENDBRANCH   8  30
BRANCH   4  31
ATOM     31  O   UNL     1     112.704 128.099 138.823  0.00  0.00    +0.000 OA
BRANCH  31  35
ATOM     32  O   UNL     1     112.068 128.854 137.733  0.00  0.00    +0.000 OA
ATOM     33  O   UNL     1     113.628 129.631 138.966  0.00  0.00    +0.000 OA
ATOM     34  O   UNL     1     113.027 130.761 137.708  0.00  0.00    +0.000 OA
ATOM     35  C   UNL     1     112.607 128.769 138.353  0.00  0.00    +0.000 C 
ATOM     36  C   UNL     1     113.032 129.474 138.419  0.00  0.00    +0.000 C 
ATOM     37  C   UNL     1     112.756 129.993 137.841  0.00  0.00    +0.000 C 
ATOM     38  C   UNL     1     112.160 129.610 137.417  0.00  0.00    +0.000 C 
BRANCH  38  40
ATOM     39  O   UNL     1     111.658 129.504 136.083  0.00  0.00    +0.000 OA
ATOM     40  C   UNL     1     111.731 129.928 136.787  0.00  0.00    +0.000 C 
ENDBRANCH  38  40
ENDBRANCH  31  35
ENDBRANCH   4  31
TORSDOF 6
ENDMDL
MODEL 6
REMARK VINA RESULT:      -9.8      9.689     11.878
REMARK  Name = 44257666
REMARK  6 active torsions:
REMARK  status: ('A' for Active; 'I' for Inactive)
REMARK    1  A    between atoms: O_1  and  C_15
REMARK    2  A    between atoms: O_1  and  C_20
REMARK    3  A    between atoms: C_17  and  C_24
REMARK    4  A    between atoms: C_19  and  C_25
REMARK    5  A    between atoms: C_23  and  C_26
REMARK    6  A    between atoms: C_33  and  C_35
REMARK                            x       y       z     vdW  Elec       q    Type
REMARK                         _______ _______ _______ _____ _____    ______ ____
ROOT
ATOM      1  O   UNL     1     106.196 124.970 145.596  0.00  0.00    +0.000 OA
ATOM      2  O   UNL     1     105.399 127.284 145.224  0.00  0.00    +0.000 OA
ATOM      3  O   UNL     1     105.427 126.210 143.972  0.00  0.00    +0.000 OA
ATOM      4  C   UNL     1     105.916 126.279 146.098  0.00  0.00    +0.000 C 
ATOM      5  C   UNL     1     105.665 126.513 145.348  0.00  0.00    +0.000 C 
ATOM      6  C   UNL     1     106.182 125.508 146.222  0.00  0.00    +0.000 C 
ATOM      7  C   UNL     1     105.678 125.976 144.722  0.00  0.00    +0.000 C 
ATOM      8  C   UNL     1     105.944 125.204 144.846  0.00  0.00    +0.000 C 
ENDROOT
BRANCH   6  13
ATOM      9  O   UNL     1     105.052 124.978 147.312  0.00  0.00    +0.000 OA
ATOM     10  O   UNL     1     107.784 125.573 146.612  0.00  0.00    +0.000 OA
ATOM     11  O   UNL     1     107.188 124.571 149.222  0.00  0.00    +0.000 OA
ATOM     12  O   UNL     1     105.834 124.261 149.611  0.00  0.00    +0.000 OA
ATOM     13  C   UNL     1     106.433 125.274 146.972  0.00  0.00    +0.000 A 
ATOM     14  C   UNL     1     105.884 125.007 147.527  0.00  0.00    +0.000 A 
ATOM     15  C   UNL     1     107.234 125.306 147.167  0.00  0.00    +0.000 A 
ATOM     16  C   UNL     1     106.135 124.773 148.277  0.00  0.00    +0.000 A 
ATOM     17  C   UNL     1     107.486 125.072 147.917  0.00  0.00    +0.000 A 
ATOM     18  C   UNL     1     106.937 124.806 148.471  0.00  0.00    +0.000 A 
ATOM     19  C   UNL     1     105.573 124.493 148.863  0.00  0.00    +0.000 A 
ATOM     20  C   UNL     1     104.475 124.701 147.885  0.00  0.00    +0.000 A 
ATOM     21  C   UNL     1     104.738 124.457 148.666  0.00  0.00    +0.000 A 
BRANCH  20  23
ATOM     22  O   UNL     1     101.275 124.575 147.091  0.00  0.00    +0.000 OA
ATOM     23  C   UNL     1     103.676 124.669 147.687  0.00  0.00    +0.000 A 
ATOM     24  C   UNL     1     103.386 124.038 147.242  0.00  0.00    +0.000 A 
ATOM     25  C   UNL     1     103.165 125.269 147.933  0.00  0.00    +0.000 A 
ATOM     26  C   UNL     1     102.585 124.006 147.044  0.00  0.00    +0.000 A 
ATOM     27  C   UNL     1     102.365 125.238 147.734  0.00  0.00    +0.000 A 
ATOM     28  C   UNL     1     102.075 124.606 147.290  0.00  0.00    +0.000 A 
ENDBRANCH  20  23
ENDBRANCH   6  13
BRANCH   8  30
ATOM     29  O   UNL     1     105.836 123.864 144.362  0.00  0.00    +0.000 OA
ATOM     30  C   UNL     1     105.957 124.668 144.220  0.00  0.00    +0.000 C 
ENDBRANCH   8  30
BRANCH   4  31
ATOM     31  O   UNL     1     105.903 126.816 146.724  0.00  0.00    +0.000 OA
BRANCH  31  35
ATOM     32  O   UNL     1     106.875 127.772 146.174  0.00  0.00    +0.000 OA
ATOM     33  O   UNL     1     105.252 128.325 147.446  0.00  0.00    +0.000 OA
ATOM     34  O   UNL     1     106.292 129.688 146.913  0.00  0.00    +0.000 OA
ATOM     35  C   UNL     1     106.211 127.574 146.624  0.00  0.00    +0.000 C 
ATOM     36  C   UNL     1     105.912 128.268 146.956  0.00  0.00    +0.000 C 
ATOM     37  C   UNL     1     106.390 128.894 146.711  0.00  0.00    +0.000 C 
ATOM     38  C   UNL     1     106.985 128.588 146.228  0.00  0.00    +0.000 C 
BRANCH  38  40
ATOM     39  O   UNL     1     108.339 128.697 145.785  0.00  0.00    +0.000 OA
ATOM     40  C   UNL     1     107.585 129.021 145.863  0.00  0.00    +0.000 C 
ENDBRANCH  38  40
ENDBRANCH  31  35
ENDBRANCH   4  31
TORSDOF 6
ENDMDL
MODEL 7
REMARK VINA RESULT:      -9.8      1.761      4.182
REMARK  Name = 44257666
REMARK  6 active torsions:
REMARK  status: ('A' for Active; 'I' for Inactive)
REMARK    1  A    between atoms: O_1  and  C_15
REMARK    2  A    between atoms: O_1  and  C_20
REMARK    3  A    between atoms: C_17  and  C_24
REMARK    4  A    between atoms: C_19  and  C_25
REMARK    5  A    between atoms: C_23  and  C_26
REMARK    6  A    between atoms: C_33  and  C_35
REMARK                            x       y       z     vdW  Elec       q    Type
REMARK                         _______ _______ _______ _____ _____    ______ ____
ROOT
ATOM      1  O   UNL     1     112.696 128.163 135.712  0.00  0.00    +0.000 OA
ATOM      2  O   UNL     1     111.439 129.914 136.929  0.00  0.00    +0.000 OA
ATOM      3  O   UNL     1     112.951 130.235 136.351  0.00  0.00    +0.000 OA
ATOM      4  C   UNL     1     111.521 128.587 136.407  0.00  0.00    +0.000 C 
ATOM      5  C   UNL     1     111.858 129.330 136.523  0.00  0.00    +0.000 C 
ATOM      6  C   UNL     1     111.940 128.003 136.001  0.00  0.00    +0.000 C 
ATOM      7  C   UNL     1     112.614 129.491 136.234  0.00  0.00    +0.000 C 
ATOM      8  C   UNL     1     113.033 128.907 135.828  0.00  0.00    +0.000 C 
ENDROOT
BRANCH   6  13
ATOM      9  O   UNL     1     112.118 126.854 137.181  0.00  0.00    +0.000 OA
ATOM     10  O   UNL     1     111.108 127.682 134.613  0.00  0.00    +0.000 OA
ATOM     11  O   UNL     1     110.593 125.027 135.536  0.00  0.00    +0.000 OA
ATOM     12  O   UNL     1     111.081 124.574 136.815  0.00  0.00    +0.000 OA
ATOM     13  C   UNL     1     111.604 127.259 135.885  0.00  0.00    +0.000 A 
ATOM     14  C   UNL     1     111.683 126.675 136.462  0.00  0.00    +0.000 A 
ATOM     15  C   UNL     1     111.188 127.098 135.191  0.00  0.00    +0.000 A 
ATOM     16  C   UNL     1     111.346 125.931 136.346  0.00  0.00    +0.000 A 
ATOM     17  C   UNL     1     110.851 126.354 135.074  0.00  0.00    +0.000 A 
ATOM     18  C   UNL     1     110.930 125.771 135.652  0.00  0.00    +0.000 A 
ATOM     19  C   UNL     1     111.421 125.315 136.940  0.00  0.00    +0.000 A 
ATOM     20  C   UNL     1     112.204 126.251 137.787  0.00  0.00    +0.000 A 
ATOM     21  C   UNL     1     111.853 125.476 137.665  0.00  0.00    +0.000 A 
BRANCH  20  23
ATOM     22  O   UNL     1     113.870 126.905 140.558  0.00  0.00    +0.000 OA
ATOM     23  C   UNL     1     112.621 126.414 138.479  0.00  0.00    +0.000 A 
ATOM     24  C   UNL     1     112.220 126.687 139.147  0.00  0.00    +0.000 A 
ATOM     25  C   UNL     1     113.438 126.305 138.505  0.00  0.00    +0.000 A 
ATOM     26  C   UNL     1     112.636 126.851 139.840  0.00  0.00    +0.000 A 
ATOM     27  C   UNL     1     113.855 126.468 139.198  0.00  0.00    +0.000 A 
ATOM     28  C   UNL     1     113.454 126.742 139.866  0.00  0.00    +0.000 A 
ENDBRANCH  20  23
ENDBRANCH   6  13
BRANCH   8  30
ATOM     29  O   UNL     1     114.365 128.477 135.537  0.00  0.00    +0.000 OA
ATOM     30  C   UNL     1     113.789 129.068 135.539  0.00  0.00    +0.000 C 
ENDBRANCH   8  30
BRANCH   4  31
ATOM     31  O   UNL     1     110.766 128.426 136.696  0.00  0.00    +0.000 OA
BRANCH  31  35
ATOM     32  O   UNL     1     110.073 129.449 135.898  0.00  0.00    +0.000 OA
ATOM     33  O   UNL     1     109.355 128.711 137.768  0.00  0.00    +0.000 OA
ATOM     34  O   UNL     1     108.317 129.959 137.000  0.00  0.00    +0.000 OA
ATOM     35  C   UNL     1     110.150 128.956 136.556  0.00  0.00    +0.000 C 
ATOM     36  C   UNL     1     109.501 129.087 137.049  0.00  0.00    +0.000 C 
ATOM     37  C   UNL     1     109.024 129.660 136.696  0.00  0.00    +0.000 C 
ATOM     38  C   UNL     1     109.378 129.884 135.985  0.00  0.00    +0.000 C 
BRANCH  38  40
ATOM     39  O   UNL     1     109.084 130.283 134.644  0.00  0.00    +0.000 OA
ATOM     40  C   UNL     1     109.087 130.444 135.453  0.00  0.00    +0.000 C 
ENDBRANCH  38  40
ENDBRANCH  31  35
ENDBRANCH   4  31
TORSDOF 6
ENDMDL
MODEL 8
REMARK VINA RESULT:      -9.7      1.445      4.023
REMARK  Name = 44257666
REMARK  6 active torsions:
REMARK  status: ('A' for Active; 'I' for Inactive)
REMARK    1  A    between atoms: O_1  and  C_15
REMARK    2  A    between atoms: O_1  and  C_20
REMARK    3  A    between atoms: C_17  and  C_24
REMARK    4  A    between atoms: C_19  and  C_25
REMARK    5  A    between atoms: C_23  and  C_26
REMARK    6  A    between atoms: C_33  and  C_35
REMARK                            x       y       z     vdW  Elec       q    Type
REMARK                         _______ _______ _______ _____ _____    ______ ____
ROOT
ATOM      1  O   UNL     1     110.939 126.714 138.716  0.00  0.00    +0.000 OA
ATOM      2  O   UNL     1     111.734 129.056 138.808  0.00  0.00    +0.000 OA
ATOM      3  O   UNL     1     111.976 128.052 140.094  0.00  0.00    +0.000 OA
ATOM      4  C   UNL     1     111.083 127.997 138.104  0.00  0.00    +0.000 C 
ATOM      5  C   UNL     1     111.469 128.275 138.777  0.00  0.00    +0.000 C 
ATOM      6  C   UNL     1     110.818 127.216 138.073  0.00  0.00    +0.000 C 
ATOM      7  C   UNL     1     111.590 127.773 139.421  0.00  0.00    +0.000 C 
ATOM      8  C   UNL     1     111.324 126.992 139.390  0.00  0.00    +0.000 C 
ENDROOT
BRANCH   6  13
ATOM      9  O   UNL     1     111.612 126.152 137.082  0.00  0.00    +0.000 OA
ATOM     10  O   UNL     1     109.284 127.720 137.733  0.00  0.00    +0.000 OA
ATOM     11  O   UNL     1     109.275 126.102 135.377  0.00  0.00    +0.000 OA
ATOM     12  O   UNL     1     110.420 125.303 135.017  0.00  0.00    +0.000 OA
ATOM     13  C   UNL     1     110.432 126.938 137.399  0.00  0.00    +0.000 A 
ATOM     14  C   UNL     1     110.813 126.407 136.895  0.00  0.00    +0.000 A 
ATOM     15  C   UNL     1     109.665 127.189 137.229  0.00  0.00    +0.000 A 
ATOM     16  C   UNL     1     110.427 126.129 136.221  0.00  0.00    +0.000 A 
ATOM     17  C   UNL     1     109.279 126.911 136.555  0.00  0.00    +0.000 A 
ATOM     18  C   UNL     1     109.660 126.381 136.052  0.00  0.00    +0.000 A 
ATOM     19  C   UNL     1     110.814 125.576 135.689  0.00  0.00    +0.000 A 
ATOM     20  C   UNL     1     112.014 125.600 136.562  0.00  0.00    +0.000 A 
ATOM     21  C   UNL     1     111.612 125.310 135.860  0.00  0.00    +0.000 A 
BRANCH  20  23
ATOM     22  O   UNL     1     115.082 124.600 137.252  0.00  0.00    +0.000 OA
ATOM     23  C   UNL     1     112.781 125.350 136.734  0.00  0.00    +0.000 A 
ATOM     24  C   UNL     1     112.902 124.652 137.157  0.00  0.00    +0.000 A 
ATOM     25  C   UNL     1     113.427 125.798 136.484  0.00  0.00    +0.000 A 
ATOM     26  C   UNL     1     113.669 124.402 137.330  0.00  0.00    +0.000 A 
ATOM     27  C   UNL     1     114.195 125.548 136.657  0.00  0.00    +0.000 A 
ATOM     28  C   UNL     1     114.315 124.850 137.080  0.00  0.00    +0.000 A 
ENDBRANCH  20  23
ENDBRANCH   6  13
BRANCH   8  30
ATOM     29  O   UNL     1     110.906 125.887 140.194  0.00  0.00    +0.000 OA
ATOM     30  C   UNL     1     111.445 126.490 140.034  0.00  0.00    +0.000 C 
ENDBRANCH   8  30
BRANCH   4  31
ATOM     31  O   UNL     1     110.962 128.499 137.460  0.00  0.00    +0.000 OA
BRANCH  31  35
ATOM     32  O   UNL     1     112.380 128.762 137.173  0.00  0.00    +0.000 OA
ATOM     33  O   UNL     1     110.807 130.146 136.764  0.00  0.00    +0.000 OA
ATOM     34  O   UNL     1     112.449 130.716 136.316  0.00  0.00    +0.000 OA
ATOM     35  C   UNL     1     111.580 128.968 137.181  0.00  0.00    +0.000 C 
ATOM     36  C   UNL     1     111.509 129.725 136.861  0.00  0.00    +0.000 C 
ATOM     37  C   UNL     1     112.263 129.987 136.655  0.00  0.00    +0.000 C 
ATOM     38  C   UNL     1     112.802 129.392 136.848  0.00  0.00    +0.000 C 
BRANCH  38  40
ATOM     39  O   UNL     1     113.984 128.893 136.217  0.00  0.00    +0.000 OA
ATOM     40  C   UNL     1     113.619 129.421 136.735  0.00  0.00    +0.000 C 
ENDBRANCH  38  40
ENDBRANCH  31  35
ENDBRANCH   4  31
TORSDOF 6
ENDMDL
MODEL 9
REMARK VINA RESULT:      -9.7      1.718      4.594
REMARK  Name = 44257666
REMARK  6 active torsions:
REMARK  status: ('A' for Active; 'I' for Inactive)
REMARK    1  A    between atoms: O_1  and  C_15
REMARK    2  A    between atoms: O_1  and  C_20
REMARK    3  A    between atoms: C_17  and  C_24
REMARK    4  A    between atoms: C_19  and  C_25
REMARK    5  A    between atoms: C_23  and  C_26
REMARK    6  A    between atoms: C_33  and  C_35
REMARK                            x       y       z     vdW  Elec       q    Type
REMARK                         _______ _______ _______ _____ _____    ______ ____
ROOT
ATOM      1  O   UNL     1     111.458 127.966 138.951  0.00  0.00    +0.000 OA
ATOM      2  O   UNL     1     109.140 128.671 138.444  0.00  0.00    +0.000 OA
ATOM      3  O   UNL     1     109.428 127.591 139.658  0.00  0.00    +0.000 OA
ATOM      4  C   UNL     1     110.541 128.741 138.175  0.00  0.00    +0.000 C 
ATOM      5  C   UNL     1     109.913 128.436 138.613  0.00  0.00    +0.000 C 
ATOM      6  C   UNL     1     111.314 128.506 138.344  0.00  0.00    +0.000 C 
ATOM      7  C   UNL     1     110.056 127.896 139.220  0.00  0.00    +0.000 C 
ATOM      8  C   UNL     1     110.829 127.661 139.389  0.00  0.00    +0.000 C 
ENDROOT
BRANCH   6  13
ATOM      9  O   UNL     1     112.081 127.519 137.257  0.00  0.00    +0.000 OA
ATOM     10  O   UNL     1     111.787 130.072 138.559  0.00  0.00    +0.000 OA
ATOM     11  O   UNL     1     113.830 129.725 136.590  0.00  0.00    +0.000 OA
ATOM     12  O   UNL     1     114.009 128.463 135.916  0.00  0.00    +0.000 OA
ATOM     13  C   UNL     1     111.943 128.811 137.906  0.00  0.00    +0.000 A 
ATOM     14  C   UNL     1     112.336 128.332 137.360  0.00  0.00    +0.000 A 
ATOM     15  C   UNL     1     112.179 129.594 138.013  0.00  0.00    +0.000 A 
ATOM     16  C   UNL     1     112.965 128.637 136.921  0.00  0.00    +0.000 A 
ATOM     17  C   UNL     1     112.808 129.899 137.575  0.00  0.00    +0.000 A 
ATOM     18  C   UNL     1     113.201 129.421 137.029  0.00  0.00    +0.000 A 
ATOM     19  C   UNL     1     113.381 128.150 136.350  0.00  0.00    +0.000 A 
ATOM     20  C   UNL     1     112.485 127.015 136.690  0.00  0.00    +0.000 A 
ATOM     21  C   UNL     1     113.140 127.333 136.234  0.00  0.00    +0.000 A 
BRANCH  20  23
ATOM     22  O   UNL     1     111.531 123.885 136.270  0.00  0.00    +0.000 OA
ATOM     23  C   UNL     1     112.247 126.233 136.585  0.00  0.00    +0.000 A 
ATOM     24  C   UNL     1     112.586 125.634 137.040  0.00  0.00    +0.000 A 
ATOM     25  C   UNL     1     111.670 126.049 136.025  0.00  0.00    +0.000 A 
ATOM     26  C   UNL     1     112.347 124.851 136.935  0.00  0.00    +0.000 A 
ATOM     27  C   UNL     1     111.431 125.266 135.919  0.00  0.00    +0.000 A 
ATOM     28  C   UNL     1     111.769 124.667 136.375  0.00  0.00    +0.000 A 
ENDBRANCH  20  23
ENDBRANCH   6  13
BRANCH   8  30
ATOM     29  O   UNL     1     111.649 127.193 140.462  0.00  0.00    +0.000 OA
ATOM     30  C   UNL     1     110.973 127.121 139.996  0.00  0.00    +0.000 C 
ENDBRANCH   8  30
BRANCH   4  31
ATOM     31  O   UNL     1     110.398 129.281 137.568  0.00  0.00    +0.000 OA
BRANCH  31  35
ATOM     32  O   UNL     1     109.607 128.374 136.723  0.00  0.00    +0.000 OA
ATOM     33  O   UNL     1     109.379 130.497 136.729  0.00  0.00    +0.000 OA
ATOM     34  O   UNL     1     108.287 129.624 135.603  0.00  0.00    +0.000 OA
ATOM     35  C   UNL     1     109.819 129.121 137.003  0.00  0.00    +0.000 C 
ATOM     36  C   UNL     1     109.351 129.681 136.617  0.00  0.00    +0.000 C 
ATOM     37  C   UNL     1     108.849 129.279 136.100  0.00  0.00    +0.000 C 
ATOM     38  C   UNL     1     109.007 128.472 136.166  0.00  0.00    +0.000 C 
BRANCH  38  40
ATOM     39  O   UNL     1     108.430 127.165 136.128  0.00  0.00    +0.000 OA
ATOM     40  C   UNL     1     108.631 127.868 135.747  0.00  0.00    +0.000 C 
ENDBRANCH  38  40
ENDBRANCH  31  35
ENDBRANCH   4  31
TORSDOF 6
ENDMDL
MODEL 10
REMARK VINA RESULT:      -9.6      1.562      2.270
REMARK  Name = 44257666
REMARK  6 active torsions:
REMARK  status: ('A' for Active; 'I' for Inactive)
REMARK    1  A    between atoms: O_1  and  C_15
REMARK    2  A    between atoms: O_1  and  C_20
REMARK    3  A    between atoms: C_17  and  C_24
REMARK    4  A    between atoms: C_19  and  C_25
REMARK    5  A    between atoms: C_23  and  C_26
REMARK    6  A    between atoms: C_33  and  C_35
REMARK                            x       y       z     vdW  Elec       q    Type
REMARK                         _______ _______ _______ _____ _____    ______ ____
ROOT
ATOM      1  O   UNL     1     112.720 127.848 136.249  0.00  0.00    +0.000 OA
ATOM      2  O   UNL     1     112.687 128.235 138.694  0.00  0.00    +0.000 OA
ATOM      3  O   UNL     1     113.420 129.326 137.696  0.00  0.00    +0.000 OA
ATOM      4  C   UNL     1     112.343 127.432 137.564  0.00  0.00    +0.000 C 
ATOM      5  C   UNL     1     112.698 128.106 137.878  0.00  0.00    +0.000 C 
ATOM      6  C   UNL     1     112.354 127.303 136.748  0.00  0.00    +0.000 C 
ATOM      7  C   UNL     1     113.065 128.651 137.380  0.00  0.00    +0.000 C 
ATOM      8  C   UNL     1     113.076 128.523 136.565  0.00  0.00    +0.000 C 
ENDROOT
BRANCH   6  13
ATOM      9  O   UNL     1     110.927 127.467 135.923  0.00  0.00    +0.000 OA
ATOM     10  O   UNL     1     113.065 125.827 136.945  0.00  0.00    +0.000 OA
ATOM     11  O   UNL     1     110.932 124.606 135.485  0.00  0.00    +0.000 OA
ATOM     12  O   UNL     1     109.844 125.392 134.957  0.00  0.00    +0.000 OA
ATOM     13  C   UNL     1     111.999 126.629 136.433  0.00  0.00    +0.000 A 
ATOM     14  C   UNL     1     111.288 126.693 136.018  0.00  0.00    +0.000 A 
ATOM     15  C   UNL     1     112.354 125.891 136.530  0.00  0.00    +0.000 A 
ATOM     16  C   UNL     1     110.932 126.018 135.703  0.00  0.00    +0.000 A 
ATOM     17  C   UNL     1     111.999 125.217 136.215  0.00  0.00    +0.000 A 
ATOM     18  C   UNL     1     111.288 125.281 135.801  0.00  0.00    +0.000 A 
ATOM     19  C   UNL     1     110.192 126.072 135.269  0.00  0.00    +0.000 A 
ATOM     20  C   UNL     1     110.187 127.540 135.493  0.00  0.00    +0.000 A 
ATOM     21  C   UNL     1     109.817 126.838 135.164  0.00  0.00    +0.000 A 
BRANCH  20  23
ATOM     22  O   UNL     1     108.776 130.497 135.107  0.00  0.00    +0.000 OA
ATOM     23  C   UNL     1     109.835 128.279 135.396  0.00  0.00    +0.000 A 
ATOM     24  C   UNL     1     110.105 128.791 134.809  0.00  0.00    +0.000 A 
ATOM     25  C   UNL     1     109.211 128.506 135.886  0.00  0.00    +0.000 A 
ATOM     26  C   UNL     1     109.752 129.531 134.713  0.00  0.00    +0.000 A 
ATOM     27  C   UNL     1     108.858 129.246 135.790  0.00  0.00    +0.000 A 
ATOM     28  C   UNL     1     109.129 129.758 135.203  0.00  0.00    +0.000 A 
ENDBRANCH  20  23
ENDBRANCH   6  13
BRANCH   8  30
ATOM     29  O   UNL     1     113.901 128.806 135.433  0.00  0.00    +0.000 OA
ATOM     30  C   UNL     1     113.442 129.068 136.066  0.00  0.00    +0.000 C 
ENDBRANCH   8  30
BRANCH   4  31
ATOM     31  O   UNL     1     111.977 126.886 138.062  0.00  0.00    +0.000 OA
BRANCH  31  35
ATOM     32  O   UNL     1     110.976 127.817 138.605  0.00  0.00    +0.000 OA
ATOM     33  O   UNL     1     111.690 126.096 139.648  0.00  0.00    +0.000 OA
ATOM     34  O   UNL     1     110.468 127.064 140.538  0.00  0.00    +0.000 OA
ATOM     35  C   UNL     1     111.457 127.147 138.646  0.00  0.00    +0.000 C 
ATOM     36  C   UNL     1     111.325 126.783 139.376  0.00  0.00    +0.000 C 
ATOM     37  C   UNL     1     110.763 127.228 139.784  0.00  0.00    +0.000 C 
ATOM     38  C   UNL     1     110.548 127.867 139.308  0.00  0.00    +0.000 C 
BRANCH  38  40
ATOM     39  O   UNL     1     109.361 128.602 139.001  0.00  0.00    +0.000 OA
ATOM     40  C   UNL     1     110.000 128.453 139.501  0.00  0.00    +0.000 C 
ENDBRANCH  38  40
ENDBRANCH  31  35
ENDBRANCH   4  31
TORSDOF 6
ENDMDL
