MODEL 1
REMARK VINA RESULT:     -10.0      0.000      0.000
REMARK  Name = 44258207
REMARK  9 active torsions:
REMARK  status: ('A' for Active; 'I' for Inactive)
REMARK    1  A    between atoms: O_2  and  C_14
REMARK    2  A    between atoms: O_2  and  C_21
REMARK    3  A    between atoms: O_4  and  C_18
REMARK    4  A    between atoms: O_4  and  C_20
REMARK    5  A    between atoms: O_11  and  C_38
REMARK    6  A    between atoms: C_17  and  C_19
REMARK    7  A    between atoms: C_21  and  C_25
REMARK    8  A    between atoms: C_29  and  C_33
REMARK    9  A    between atoms: C_30  and  C_32
REMARK                            x       y       z     vdW  Elec       q    Type
REMARK                         _______ _______ _______ _____ _____    ______ ____
ROOT
ATOM      1  O   UNL     1     105.830 125.105 144.075  0.00  0.00    +0.000 OA
ENDROOT
BRANCH   1   5
ATOM      2  O   UNL     1     104.961 127.802 143.401  0.00  0.00    +0.000 OA
ATOM      3  O   UNL     1     107.700 127.023 142.912  0.00  0.00    +0.000 OA
ATOM      4  O   UNL     1     107.234 128.351 142.590  0.00  0.00    +0.000 OA
ATOM      5  C   UNL     1     105.994 125.856 143.776  0.00  0.00    +0.000 A 
ATOM      6  C   UNL     1     105.378 126.454 143.743  0.00  0.00    +0.000 A 
ATOM      7  C   UNL     1     106.784 126.047 143.494  0.00  0.00    +0.000 A 
ATOM      8  C   UNL     1     105.558 127.233 143.430  0.00  0.00    +0.000 A 
ATOM      9  C   UNL     1     106.315 127.416 143.160  0.00  0.00    +0.000 A 
ATOM     10  C   UNL     1     106.945 126.832 143.184  0.00  0.00    +0.000 A 
ATOM     11  C   UNL     1     106.476 128.168 142.861  0.00  0.00    +0.000 A 
ATOM     12  C   UNL     1     105.121 128.554 143.102  0.00  0.00    +0.000 A 
ATOM     13  C   UNL     1     105.879 128.737 142.832  0.00  0.00    +0.000 A 
BRANCH  12  15
ATOM     14  O   UNL     1     102.735 130.830 142.986  0.00  0.00    +0.000 OA
ATOM     15  C   UNL     1     104.525 129.123 143.073  0.00  0.00    +0.000 A 
ATOM     16  C   UNL     1     104.015 129.153 142.425  0.00  0.00    +0.000 A 
ATOM     17  C   UNL     1     104.438 129.662 143.692  0.00  0.00    +0.000 A 
ATOM     18  C   UNL     1     103.419 129.722 142.396  0.00  0.00    +0.000 A 
ATOM     19  C   UNL     1     103.841 130.230 143.662  0.00  0.00    +0.000 A 
ATOM     20  C   UNL     1     103.331 130.261 143.014  0.00  0.00    +0.000 A 
BRANCH  18  21
ATOM     21  O   UNL     1     102.909 129.752 141.748  0.00  0.00    +0.000 OA
ATOM     22  C   UNL     1     103.204 129.651 140.984  0.00  0.00    +0.000 C 
ENDBRANCH  18  21
ENDBRANCH  12  15
ENDBRANCH   1   5
BRANCH   1  30
ATOM     23  O   UNL     1     106.355 125.310 145.389  0.00  0.00    +0.000 OA
ATOM     24  O   UNL     1     105.634 124.636 147.336  0.00  0.00    +0.000 OA
ATOM     25  O   UNL     1     104.585 124.228 144.709  0.00  0.00    +0.000 OA
ATOM     26  C   UNL     1     105.110 124.432 146.023  0.00  0.00    +0.000 C 
ATOM     27  C   UNL     1     105.684 124.754 146.521  0.00  0.00    +0.000 C 
ATOM     28  C   UNL     1     105.159 124.550 145.208  0.00  0.00    +0.000 C 
ATOM     29  C   UNL     1     106.307 125.193 146.204  0.00  0.00    +0.000 C 
ATOM     30  C   UNL     1     105.782 124.988 144.891  0.00  0.00    +0.000 C 
BRANCH  29  32
ATOM     31  O   UNL     1     107.657 125.238 146.670  0.00  0.00    +0.000 OA
ATOM     32  C   UNL     1     106.880 125.514 146.702  0.00  0.00    +0.000 C 
ENDBRANCH  29  32
BRANCH  26  33
ATOM     33  O   UNL     1     104.487 123.994 146.340  0.00  0.00    +0.000 OA
BRANCH  33  35
ATOM     34  O   UNL     1     103.371 124.874 146.191  0.00  0.00    +0.000 OA
ATOM     35  C   UNL     1     103.833 124.380 146.663  0.00  0.00    +0.000 C 
BRANCH  35  36
ATOM     36  C   UNL     1     103.642 124.272 147.458  0.00  0.00    +0.000 C 
ATOM     37  C   UNL     1     102.914 123.947 147.668  0.00  0.00    +0.000 C 
BRANCH  37  39
ATOM     38  O   UNL     1     100.764 123.075 145.321  0.00  0.00    +0.000 OA
ATOM     39  C   UNL     1     102.376 123.728 147.080  0.00  0.00    +0.000 A 
ATOM     40  C   UNL     1     101.833 124.279 146.795  0.00  0.00    +0.000 A 
ATOM     41  C   UNL     1     102.382 122.960 146.780  0.00  0.00    +0.000 A 
ATOM     42  C   UNL     1     101.295 124.060 146.208  0.00  0.00    +0.000 A 
ATOM     43  C   UNL     1     101.845 122.742 146.194  0.00  0.00    +0.000 A 
ATOM     44  C   UNL     1     101.302 123.292 145.908  0.00  0.00    +0.000 A 
ENDBRANCH  37  39
ENDBRANCH  35  36
ENDBRANCH  33  35
ENDBRANCH  26  33
ENDBRANCH   1  30
TORSDOF 9
ENDMDL
MODEL 2
REMARK VINA RESULT:      -9.9      8.276     11.611
REMARK  Name = 44258207
REMARK  9 active torsions:
REMARK  status: ('A' for Active; 'I' for Inactive)
REMARK    1  A    between atoms: O_2  and  C_14
REMARK    2  A    between atoms: O_2  and  C_21
REMARK    3  A    between atoms: O_4  and  C_18
REMARK    4  A    between atoms: O_4  and  C_20
REMARK    5  A    between atoms: O_11  and  C_38
REMARK    6  A    between atoms: C_17  and  C_19
REMARK    7  A    between atoms: C_21  and  C_25
REMARK    8  A    between atoms: C_29  and  C_33
REMARK    9  A    between atoms: C_30  and  C_32
REMARK                            x       y       z     vdW  Elec       q    Type
REMARK                         _______ _______ _______ _____ _____    ______ ____
ROOT
ATOM      1  O   UNL     1     111.237 128.081 135.533  0.00  0.00    +0.000 OA
ENDROOT
BRANCH   1   5
ATOM      2  O   UNL     1     112.319 127.128 138.063  0.00  0.00    +0.000 OA
ATOM      3  O   UNL     1     111.987 125.279 135.868  0.00  0.00    +0.000 OA
ATOM      4  O   UNL     1     112.520 124.842 137.136  0.00  0.00    +0.000 OA
ATOM      5  C   UNL     1     111.535 127.469 135.998  0.00  0.00    +0.000 A 
ATOM      6  C   UNL     1     111.778 127.620 136.808  0.00  0.00    +0.000 A 
ATOM      7  C   UNL     1     111.605 126.675 135.676  0.00  0.00    +0.000 A 
ATOM      8  C   UNL     1     112.087 126.976 137.286  0.00  0.00    +0.000 A 
ATOM      9  C   UNL     1     112.154 126.215 136.977  0.00  0.00    +0.000 A 
ATOM     10  C   UNL     1     111.917 126.044 136.169  0.00  0.00    +0.000 A 
ATOM     11  C   UNL     1     112.453 125.604 137.445  0.00  0.00    +0.000 A 
ATOM     12  C   UNL     1     112.617 126.518 138.531  0.00  0.00    +0.000 A 
ATOM     13  C   UNL     1     112.684 125.756 138.222  0.00  0.00    +0.000 A 
BRANCH  12  15
ATOM     14  O   UNL     1     113.543 127.123 141.640  0.00  0.00    +0.000 OA
ATOM     15  C   UNL     1     112.849 126.669 139.309  0.00  0.00    +0.000 A 
ATOM     16  C   UNL     1     112.300 126.605 139.922  0.00  0.00    +0.000 A 
ATOM     17  C   UNL     1     113.628 126.884 139.473  0.00  0.00    +0.000 A 
ATOM     18  C   UNL     1     112.532 126.757 140.698  0.00  0.00    +0.000 A 
ATOM     19  C   UNL     1     113.859 127.036 140.250  0.00  0.00    +0.000 A 
ATOM     20  C   UNL     1     113.311 126.972 140.863  0.00  0.00    +0.000 A 
BRANCH  18  21
ATOM     21  O   UNL     1     111.984 126.693 141.312  0.00  0.00    +0.000 OA
ATOM     22  C   UNL     1     111.198 126.914 141.190  0.00  0.00    +0.000 C 
ENDBRANCH  18  21
ENDBRANCH  12  15
ENDBRANCH   1   5
BRANCH   1  30
ATOM     23  O   UNL     1     109.854 127.743 135.658  0.00  0.00    +0.000 OA
ATOM     24  O   UNL     1     108.085 129.008 135.848  0.00  0.00    +0.000 OA
ATOM     25  O   UNL     1     110.851 129.684 135.598  0.00  0.00    +0.000 OA
ATOM     26  C   UNL     1     109.468 129.346 135.723  0.00  0.00    +0.000 C 
ATOM     27  C   UNL     1     108.873 128.776 135.769  0.00  0.00    +0.000 C 
ATOM     28  C   UNL     1     110.256 129.114 135.644  0.00  0.00    +0.000 C 
ATOM     29  C   UNL     1     109.066 127.975 135.737  0.00  0.00    +0.000 C 
ATOM     30  C   UNL     1     110.448 128.312 135.612  0.00  0.00    +0.000 C 
BRANCH  29  32
ATOM     31  O   UNL     1     108.393 126.944 136.463  0.00  0.00    +0.000 OA
ATOM     32  C   UNL     1     108.471 127.406 135.783  0.00  0.00    +0.000 C 
ENDBRANCH  29  32
BRANCH  26  33
ATOM     33  O   UNL     1     109.275 130.148 135.755  0.00  0.00    +0.000 OA
BRANCH  33  35
ATOM     34  O   UNL     1     109.665 130.505 137.083  0.00  0.00    +0.000 OA
ATOM     35  C   UNL     1     109.102 130.501 136.481  0.00  0.00    +0.000 C 
BRANCH  35  36
ATOM     36  C   UNL     1     108.364 130.849 136.603  0.00  0.00    +0.000 C 
ATOM     37  C   UNL     1     108.305 131.665 136.706  0.00  0.00    +0.000 C 
BRANCH  37  39
ATOM     38  O   UNL     1     111.022 133.537 136.627  0.00  0.00    +0.000 OA
ATOM     39  C   UNL     1     108.984 132.134 136.686  0.00  0.00    +0.000 A 
ATOM     40  C   UNL     1     109.413 132.268 137.378  0.00  0.00    +0.000 A 
ATOM     41  C   UNL     1     109.235 132.467 135.974  0.00  0.00    +0.000 A 
ATOM     42  C   UNL     1     110.092 132.736 137.358  0.00  0.00    +0.000 A 
ATOM     43  C   UNL     1     109.914 132.935 135.954  0.00  0.00    +0.000 A 
ATOM     44  C   UNL     1     110.342 133.069 136.646  0.00  0.00    +0.000 A 
ENDBRANCH  37  39
ENDBRANCH  35  36
ENDBRANCH  33  35
ENDBRANCH  26  33
ENDBRANCH   1  30
TORSDOF 9
ENDMDL
MODEL 3
REMARK VINA RESULT:      -9.9      3.860      6.297
REMARK  Name = 44258207
REMARK  9 active torsions:
REMARK  status: ('A' for Active; 'I' for Inactive)
REMARK    1  A    between atoms: O_2  and  C_14
REMARK    2  A    between atoms: O_2  and  C_21
REMARK    3  A    between atoms: O_4  and  C_18
REMARK    4  A    between atoms: O_4  and  C_20
REMARK    5  A    between atoms: O_11  and  C_38
REMARK    6  A    between atoms: C_17  and  C_19
REMARK    7  A    between atoms: C_21  and  C_25
REMARK    8  A    between atoms: C_29  and  C_33
REMARK    9  A    between atoms: C_30  and  C_32
REMARK                            x       y       z     vdW  Elec       q    Type
REMARK                         _______ _______ _______ _____ _____    ______ ____
ROOT
ATOM      1  O   UNL     1     106.396 126.471 141.224  0.00  0.00    +0.000 OA
ENDROOT
BRANCH   1   5
ATOM      2  O   UNL     1     104.794 124.646 139.615  0.00  0.00    +0.000 OA
ATOM      3  O   UNL     1     106.998 123.614 141.173  0.00  0.00    +0.000 OA
ATOM      4  O   UNL     1     106.182 122.739 140.364  0.00  0.00    +0.000 OA
ATOM      5  C   UNL     1     106.234 125.708 140.954  0.00  0.00    +0.000 A 
ATOM      6  C   UNL     1     105.582 125.570 140.411  0.00  0.00    +0.000 A 
ATOM      7  C   UNL     1     106.716 125.046 141.214  0.00  0.00    +0.000 A 
ATOM      8  C   UNL     1     105.421 124.773 140.136  0.00  0.00    +0.000 A 
ATOM      9  C   UNL     1     105.884 124.137 140.385  0.00  0.00    +0.000 A 
ATOM     10  C   UNL     1     106.540 124.255 140.928  0.00  0.00    +0.000 A 
ATOM     11  C   UNL     1     105.719 123.376 140.114  0.00  0.00    +0.000 A 
ATOM     12  C   UNL     1     104.629 123.885 139.343  0.00  0.00    +0.000 A 
ATOM     13  C   UNL     1     105.092 123.250 139.593  0.00  0.00    +0.000 A 
BRANCH  12  15
ATOM     14  O   UNL     1     102.122 123.380 137.259  0.00  0.00    +0.000 OA
ATOM     15  C   UNL     1     104.002 123.759 138.822  0.00  0.00    +0.000 A 
ATOM     16  C   UNL     1     104.149 123.471 138.063  0.00  0.00    +0.000 A 
ATOM     17  C   UNL     1     103.229 123.920 139.061  0.00  0.00    +0.000 A 
ATOM     18  C   UNL     1     103.522 123.345 137.542  0.00  0.00    +0.000 A 
ATOM     19  C   UNL     1     102.603 123.794 138.539  0.00  0.00    +0.000 A 
ATOM     20  C   UNL     1     102.749 123.506 137.780  0.00  0.00    +0.000 A 
BRANCH  18  21
ATOM     21  O   UNL     1     103.668 123.058 136.783  0.00  0.00    +0.000 OA
ATOM     22  C   UNL     1     104.179 123.465 136.278  0.00  0.00    +0.000 C 
ENDBRANCH  18  21
ENDBRANCH  12  15
ENDBRANCH   1   5
BRANCH   1  30
ATOM     23  O   UNL     1     106.301 126.425 142.649  0.00  0.00    +0.000 OA
ATOM     24  O   UNL     1     105.042 127.549 144.033  0.00  0.00    +0.000 OA
ATOM     25  O   UNL     1     105.232 127.640 141.183  0.00  0.00    +0.000 OA
ATOM     26  C   UNL     1     105.137 127.594 142.608  0.00  0.00    +0.000 C 
ATOM     27  C   UNL     1     105.381 127.279 143.331  0.00  0.00    +0.000 C 
ATOM     28  C   UNL     1     105.476 127.325 141.906  0.00  0.00    +0.000 C 
ATOM     29  C   UNL     1     105.962 126.694 143.352  0.00  0.00    +0.000 C 
ATOM     30  C   UNL     1     106.058 126.740 141.927  0.00  0.00    +0.000 C 
BRANCH  29  32
ATOM     31  O   UNL     1     107.009 126.291 144.236  0.00  0.00    +0.000 OA
ATOM     32  C   UNL     1     106.205 126.380 144.074  0.00  0.00    +0.000 C 
ENDBRANCH  29  32
BRANCH  26  33
ATOM     33  O   UNL     1     104.555 128.179 142.588  0.00  0.00    +0.000 OA
BRANCH  33  35
ATOM     34  O   UNL     1     105.284 129.360 142.248  0.00  0.00    +0.000 OA
ATOM     35  C   UNL     1     104.755 128.965 142.741  0.00  0.00    +0.000 C 
BRANCH  35  36
ATOM     36  C   UNL     1     104.425 129.355 143.388  0.00  0.00    +0.000 C 
ATOM     37  C   UNL     1     103.898 129.979 143.270  0.00  0.00    +0.000 C 
BRANCH  37  39
ATOM     38  O   UNL     1     103.113 130.911 140.203  0.00  0.00    +0.000 OA
ATOM     39  C   UNL     1     103.701 130.212 142.502  0.00  0.00    +0.000 A 
ATOM     40  C   UNL     1     104.176 130.756 142.103  0.00  0.00    +0.000 A 
ATOM     41  C   UNL     1     103.031 129.901 142.136  0.00  0.00    +0.000 A 
ATOM     42  C   UNL     1     103.979 130.988 141.336  0.00  0.00    +0.000 A 
ATOM     43  C   UNL     1     102.835 130.134 141.369  0.00  0.00    +0.000 A 
ATOM     44  C   UNL     1     103.309 130.677 140.970  0.00  0.00    +0.000 A 
ENDBRANCH  37  39
ENDBRANCH  35  36
ENDBRANCH  33  35
ENDBRANCH  26  33
ENDBRANCH   1  30
TORSDOF 9
ENDMDL
MODEL 4
REMARK VINA RESULT:      -9.7      5.564      9.175
REMARK  Name = 44258207
REMARK  9 active torsions:
REMARK  status: ('A' for Active; 'I' for Inactive)
REMARK    1  A    between atoms: O_2  and  C_14
REMARK    2  A    between atoms: O_2  and  C_21
REMARK    3  A    between atoms: O_4  and  C_18
REMARK    4  A    between atoms: O_4  and  C_20
REMARK    5  A    between atoms: O_11  and  C_38
REMARK    6  A    between atoms: C_17  and  C_19
REMARK    7  A    between atoms: C_21  and  C_25
REMARK    8  A    between atoms: C_29  and  C_33
REMARK    9  A    between atoms: C_30  and  C_32
REMARK                            x       y       z     vdW  Elec       q    Type
REMARK                         _______ _______ _______ _____ _____    ______ ____
ROOT
ATOM      1  O   UNL     1     110.336 126.573 140.542  0.00  0.00    +0.000 OA
ENDROOT
BRANCH   1   5
ATOM      2  O   UNL     1     107.730 125.271 140.587  0.00  0.00    +0.000 OA
ATOM      3  O   UNL     1     108.294 127.399 142.459  0.00  0.00    +0.000 OA
ATOM      4  O   UNL     1     107.014 126.731 142.453  0.00  0.00    +0.000 OA
ATOM      5  C   UNL     1     109.579 126.496 140.862  0.00  0.00    +0.000 A 
ATOM      6  C   UNL     1     109.034 125.909 140.551  0.00  0.00    +0.000 A 
ATOM      7  C   UNL     1     109.330 127.003 141.511  0.00  0.00    +0.000 A 
ATOM      8  C   UNL     1     108.249 125.837 140.891  0.00  0.00    +0.000 A 
ATOM      9  C   UNL     1     108.010 126.323 141.512  0.00  0.00    +0.000 A 
ATOM     10  C   UNL     1     108.541 126.916 141.838  0.00  0.00    +0.000 A 
ATOM     11  C   UNL     1     107.253 126.244 141.831  0.00  0.00    +0.000 A 
ATOM     12  C   UNL     1     106.973 125.192 140.905  0.00  0.00    +0.000 A 
ATOM     13  C   UNL     1     106.735 125.679 141.527  0.00  0.00    +0.000 A 
BRANCH  12  15
ATOM     14  O   UNL     1     104.899 122.931 139.691  0.00  0.00    +0.000 OA
ATOM     15  C   UNL     1     106.455 124.626 140.602  0.00  0.00    +0.000 A 
ATOM     16  C   UNL     1     105.955 124.820 139.974  0.00  0.00    +0.000 A 
ATOM     17  C   UNL     1     106.436 123.868 140.926  0.00  0.00    +0.000 A 
ATOM     18  C   UNL     1     105.438 124.255 139.671  0.00  0.00    +0.000 A 
ATOM     19  C   UNL     1     105.917 123.303 140.622  0.00  0.00    +0.000 A 
ATOM     20  C   UNL     1     105.418 123.496 139.994  0.00  0.00    +0.000 A 
BRANCH  18  21
ATOM     21  O   UNL     1     104.938 124.448 139.043  0.00  0.00    +0.000 OA
ATOM     22  C   UNL     1     104.401 125.070 139.118  0.00  0.00    +0.000 C 
ENDBRANCH  18  21
ENDBRANCH  12  15
ENDBRANCH   1   5
BRANCH   1  30
ATOM     23  O   UNL     1     110.104 127.701 139.697  0.00  0.00    +0.000 OA
ATOM     24  O   UNL     1     110.756 128.116 137.655  0.00  0.00    +0.000 OA
ATOM     25  O   UNL     1     111.220 125.859 139.345  0.00  0.00    +0.000 OA
ATOM     26  C   UNL     1     110.988 126.987 138.500  0.00  0.00    +0.000 C 
ATOM     27  C   UNL     1     110.650 127.731 138.377  0.00  0.00    +0.000 C 
ATOM     28  C   UNL     1     110.882 126.602 139.222  0.00  0.00    +0.000 C 
ATOM     29  C   UNL     1     110.208 128.088 138.975  0.00  0.00    +0.000 C 
ATOM     30  C   UNL     1     110.440 126.959 139.820  0.00  0.00    +0.000 C 
BRANCH  29  32
ATOM     31  O   UNL     1     109.051 128.916 138.843  0.00  0.00    +0.000 OA
ATOM     32  C   UNL     1     109.872 128.830 138.852  0.00  0.00    +0.000 C 
ENDBRANCH  29  32
BRANCH  26  33
ATOM     33  O   UNL     1     111.430 126.630 137.902  0.00  0.00    +0.000 OA
BRANCH  33  35
ATOM     34  O   UNL     1     110.633 125.505 137.527  0.00  0.00    +0.000 OA
ATOM     35  C   UNL     1     111.051 126.185 137.320  0.00  0.00    +0.000 C 
BRANCH  35  36
ATOM     36  C   UNL     1     111.090 126.421 136.530  0.00  0.00    +0.000 C 
ATOM     37  C   UNL     1     111.543 125.989 135.993  0.00  0.00    +0.000 C 
BRANCH  37  39
ATOM     38  O   UNL     1     113.196 123.317 137.003  0.00  0.00    +0.000 OA
ATOM     39  C   UNL     1     111.957 125.321 136.245  0.00  0.00    +0.000 A 
ATOM     40  C   UNL     1     111.577 124.589 136.278  0.00  0.00    +0.000 A 
ATOM     41  C   UNL     1     112.749 125.385 136.465  0.00  0.00    +0.000 A 
ATOM     42  C   UNL     1     111.990 123.922 136.531  0.00  0.00    +0.000 A 
ATOM     43  C   UNL     1     113.162 124.717 136.717  0.00  0.00    +0.000 A 
ATOM     44  C   UNL     1     112.783 123.986 136.750  0.00  0.00    +0.000 A 
ENDBRANCH  37  39
ENDBRANCH  35  36
ENDBRANCH  33  35
ENDBRANCH  26  33
ENDBRANCH   1  30
TORSDOF 9
ENDMDL
MODEL 5
REMARK VINA RESULT:      -9.6      9.544     11.639
REMARK  Name = 44258207
REMARK  9 active torsions:
REMARK  status: ('A' for Active; 'I' for Inactive)
REMARK    1  A    between atoms: O_2  and  C_14
REMARK    2  A    between atoms: O_2  and  C_21
REMARK    3  A    between atoms: O_4  and  C_18
REMARK    4  A    between atoms: O_4  and  C_20
REMARK    5  A    between atoms: O_11  and  C_38
REMARK    6  A    between atoms: C_17  and  C_19
REMARK    7  A    between atoms: C_21  and  C_25
REMARK    8  A    between atoms: C_29  and  C_33
REMARK    9  A    between atoms: C_30  and  C_32
REMARK                            x       y       z     vdW  Elec       q    Type
REMARK                         _______ _______ _______ _____ _____    ______ ____
ROOT
ATOM      1  O   UNL     1     109.929 128.875 138.104  0.00  0.00    +0.000 OA
ENDROOT
BRANCH   1   5
ATOM      2  O   UNL     1     111.110 126.408 137.104  0.00  0.00    +0.000 OA
ATOM      3  O   UNL     1     109.013 127.698 135.593  0.00  0.00    +0.000 OA
ATOM      4  O   UNL     1     109.622 126.474 135.128  0.00  0.00    +0.000 OA
ATOM      5  C   UNL     1     109.971 128.282 137.532  0.00  0.00    +0.000 A 
ATOM      6  C   UNL     1     110.532 127.637 137.617  0.00  0.00    +0.000 A 
ATOM      7  C   UNL     1     109.454 128.305 136.845  0.00  0.00    +0.000 A 
ATOM      8  C   UNL     1     110.569 127.024 137.016  0.00  0.00    +0.000 A 
ATOM      9  C   UNL     1     110.074 127.046 136.358  0.00  0.00    +0.000 A 
ATOM     10  C   UNL     1     109.506 127.683 136.255  0.00  0.00    +0.000 A 
ATOM     11  C   UNL     1     110.119 126.452 135.788  0.00  0.00    +0.000 A 
ATOM     12  C   UNL     1     111.156 125.813 136.534  0.00  0.00    +0.000 A 
ATOM     13  C   UNL     1     110.660 125.836 135.876  0.00  0.00    +0.000 A 
BRANCH  12  15
ATOM     14  O   UNL     1     113.321 123.347 136.885  0.00  0.00    +0.000 OA
ATOM     15  C   UNL     1     111.697 125.196 136.622  0.00  0.00    +0.000 A 
ATOM     16  C   UNL     1     112.491 125.314 136.427  0.00  0.00    +0.000 A 
ATOM     17  C   UNL     1     111.445 124.464 136.905  0.00  0.00    +0.000 A 
ATOM     18  C   UNL     1     113.031 124.697 136.515  0.00  0.00    +0.000 A 
ATOM     19  C   UNL     1     111.986 123.848 136.992  0.00  0.00    +0.000 A 
ATOM     20  C   UNL     1     112.779 123.964 136.797  0.00  0.00    +0.000 A 
BRANCH  18  21
ATOM     21  O   UNL     1     113.824 124.814 136.320  0.00  0.00    +0.000 OA
ATOM     22  C   UNL     1     114.201 125.519 136.523  0.00  0.00    +0.000 C 
ENDBRANCH  18  21
ENDBRANCH  12  15
ENDBRANCH   1   5
BRANCH   1  30
ATOM     23  O   UNL     1     110.684 129.941 137.527  0.00  0.00    +0.000 OA
ATOM     24  O   UNL     1     112.334 131.123 138.331  0.00  0.00    +0.000 OA
ATOM     25  O   UNL     1     110.823 128.990 139.486  0.00  0.00    +0.000 OA
ATOM     26  C   UNL     1     111.578 130.056 138.909  0.00  0.00    +0.000 C 
ATOM     27  C   UNL     1     111.732 130.561 138.274  0.00  0.00    +0.000 C 
ATOM     28  C   UNL     1     110.977 129.495 138.851  0.00  0.00    +0.000 C 
ATOM     29  C   UNL     1     111.285 130.504 137.583  0.00  0.00    +0.000 C 
ATOM     30  C   UNL     1     110.530 129.437 138.160  0.00  0.00    +0.000 C 
BRANCH  29  32
ATOM     31  O   UNL     1     110.816 131.365 136.543  0.00  0.00    +0.000 OA
ATOM     32  C   UNL     1     111.439 131.008 136.949  0.00  0.00    +0.000 C 
ENDBRANCH  29  32
BRANCH  26  33
ATOM     33  O   UNL     1     112.025 130.114 139.600  0.00  0.00    +0.000 OA
BRANCH  33  35
ATOM     34  O   UNL     1     113.320 129.649 139.213  0.00  0.00    +0.000 OA
ATOM     35  C   UNL     1     112.669 129.611 139.717  0.00  0.00    +0.000 C 
BRANCH  35  36
ATOM     36  C   UNL     1     112.661 129.070 140.339  0.00  0.00    +0.000 C 
ATOM     37  C   UNL     1     113.191 129.153 140.966  0.00  0.00    +0.000 C 
BRANCH  37  39
ATOM     38  O   UNL     1     115.344 131.653 140.981  0.00  0.00    +0.000 OA
ATOM     39  C   UNL     1     113.730 129.778 140.970  0.00  0.00    +0.000 A 
ATOM     40  C   UNL     1     113.553 130.471 141.381  0.00  0.00    +0.000 A 
ATOM     41  C   UNL     1     114.444 129.710 140.562  0.00  0.00    +0.000 A 
ATOM     42  C   UNL     1     114.092 131.096 141.385  0.00  0.00    +0.000 A 
ATOM     43  C   UNL     1     114.982 130.335 140.566  0.00  0.00    +0.000 A 
ATOM     44  C   UNL     1     114.806 131.028 140.977  0.00  0.00    +0.000 A 
ENDBRANCH  37  39
ENDBRANCH  35  36
ENDBRANCH  33  35
ENDBRANCH  26  33
ENDBRANCH   1  30
TORSDOF 9
ENDMDL
MODEL 6
REMARK VINA RESULT:      -9.5      2.224      3.232
REMARK  Name = 44258207
REMARK  9 active torsions:
REMARK  status: ('A' for Active; 'I' for Inactive)
REMARK    1  A    between atoms: O_2  and  C_14
REMARK    2  A    between atoms: O_2  and  C_21
REMARK    3  A    between atoms: O_4  and  C_18
REMARK    4  A    between atoms: O_4  and  C_20
REMARK    5  A    between atoms: O_11  and  C_38
REMARK    6  A    between atoms: C_17  and  C_19
REMARK    7  A    between atoms: C_21  and  C_25
REMARK    8  A    between atoms: C_29  and  C_33
REMARK    9  A    between atoms: C_30  and  C_32
REMARK                            x       y       z     vdW  Elec       q    Type
REMARK                         _______ _______ _______ _____ _____    ______ ____
ROOT
ATOM      1  O   UNL     1     105.614 126.617 144.941  0.00  0.00    +0.000 OA
ENDROOT
BRANCH   1   5
ATOM      2  O   UNL     1     105.946 125.349 142.340  0.00  0.00    +0.000 OA
ATOM      3  O   UNL     1     107.780 127.426 143.158  0.00  0.00    +0.000 OA
ATOM      4  O   UNL     1     107.914 126.775 141.876  0.00  0.00    +0.000 OA
ATOM      5  C   UNL     1     106.021 126.543 144.227  0.00  0.00    +0.000 A 
ATOM      6  C   UNL     1     105.766 125.971 143.640  0.00  0.00    +0.000 A 
ATOM      7  C   UNL     1     106.705 127.039 144.066  0.00  0.00    +0.000 A 
ATOM      8  C   UNL     1     106.196 125.901 142.900  0.00  0.00    +0.000 A 
ATOM      9  C   UNL     1     106.852 126.376 142.745  0.00  0.00    +0.000 A 
ATOM     10  C   UNL     1     107.123 126.955 143.320  0.00  0.00    +0.000 A 
ATOM     11  C   UNL     1     107.258 126.300 142.031  0.00  0.00    +0.000 A 
ATOM     12  C   UNL     1     106.351 125.273 141.625  0.00  0.00    +0.000 A 
ATOM     13  C   UNL     1     107.007 125.748 141.471  0.00  0.00    +0.000 A 
BRANCH  12  15
ATOM     14  O   UNL     1     105.348 123.067 139.385  0.00  0.00    +0.000 OA
ATOM     15  C   UNL     1     106.100 124.721 141.065  0.00  0.00    +0.000 A 
ATOM     16  C   UNL     1     105.636 124.964 140.427  0.00  0.00    +0.000 A 
ATOM     17  C   UNL     1     106.313 123.928 141.143  0.00  0.00    +0.000 A 
ATOM     18  C   UNL     1     105.386 124.412 139.867  0.00  0.00    +0.000 A 
ATOM     19  C   UNL     1     106.062 123.377 140.583  0.00  0.00    +0.000 A 
ATOM     20  C   UNL     1     105.599 123.619 139.945  0.00  0.00    +0.000 A 
BRANCH  18  21
ATOM     21  O   UNL     1     104.923 124.654 139.229  0.00  0.00    +0.000 OA
ATOM     22  C   UNL     1     104.275 125.150 139.352  0.00  0.00    +0.000 C 
ENDBRANCH  18  21
ENDBRANCH  12  15
ENDBRANCH   1   5
BRANCH   1  30
ATOM     23  O   UNL     1     106.466 125.987 145.900  0.00  0.00    +0.000 OA
ATOM     24  O   UNL     1     106.067 124.393 147.336  0.00  0.00    +0.000 OA
ATOM     25  O   UNL     1     104.363 125.652 145.418  0.00  0.00    +0.000 OA
ATOM     26  C   UNL     1     105.215 125.022 146.377  0.00  0.00    +0.000 C 
ATOM     27  C   UNL     1     105.954 124.949 146.737  0.00  0.00    +0.000 C 
ATOM     28  C   UNL     1     105.102 125.579 145.778  0.00  0.00    +0.000 C 
ATOM     29  C   UNL     1     106.580 125.431 146.499  0.00  0.00    +0.000 C 
ATOM     30  C   UNL     1     105.728 126.061 145.540  0.00  0.00    +0.000 C 
BRANCH  29  32
ATOM     31  O   UNL     1     107.746 126.032 147.064  0.00  0.00    +0.000 OA
ATOM     32  C   UNL     1     107.318 125.357 146.859  0.00  0.00    +0.000 C 
ENDBRANCH  29  32
BRANCH  26  33
ATOM     33  O   UNL     1     104.590 124.540 146.616  0.00  0.00    +0.000 OA
BRANCH  33  35
ATOM     34  O   UNL     1     103.616 125.488 147.057  0.00  0.00    +0.000 OA
ATOM     35  C   UNL     1     104.060 124.806 147.189  0.00  0.00    +0.000 C 
BRANCH  35  36
ATOM     36  C   UNL     1     103.975 124.390 147.896  0.00  0.00    +0.000 C 
ATOM     37  C   UNL     1     103.288 123.955 148.039  0.00  0.00    +0.000 C 
BRANCH  37  39
ATOM     38  O   UNL     1     100.883 123.884 145.781  0.00  0.00    +0.000 OA
ATOM     39  C   UNL     1     102.687 123.937 147.474  0.00  0.00    +0.000 A 
ATOM     40  C   UNL     1     102.100 124.517 147.478  0.00  0.00    +0.000 A 
ATOM     41  C   UNL     1     102.672 123.339 146.906  0.00  0.00    +0.000 A 
ATOM     42  C   UNL     1     101.500 124.499 146.913  0.00  0.00    +0.000 A 
ATOM     43  C   UNL     1     102.071 123.321 146.342  0.00  0.00    +0.000 A 
ATOM     44  C   UNL     1     101.485 123.901 146.345  0.00  0.00    +0.000 A 
ENDBRANCH  37  39
ENDBRANCH  35  36
ENDBRANCH  33  35
ENDBRANCH  26  33
ENDBRANCH   1  30
TORSDOF 9
ENDMDL
MODEL 7
REMARK VINA RESULT:      -9.5      3.169      5.061
REMARK  Name = 44258207
REMARK  9 active torsions:
REMARK  status: ('A' for Active; 'I' for Inactive)
REMARK    1  A    between atoms: O_2  and  C_14
REMARK    2  A    between atoms: O_2  and  C_21
REMARK    3  A    between atoms: O_4  and  C_18
REMARK    4  A    between atoms: O_4  and  C_20
REMARK    5  A    between atoms: O_11  and  C_38
REMARK    6  A    between atoms: C_17  and  C_19
REMARK    7  A    between atoms: C_21  and  C_25
REMARK    8  A    between atoms: C_29  and  C_33
REMARK    9  A    between atoms: C_30  and  C_32
REMARK                            x       y       z     vdW  Elec       q    Type
REMARK                         _______ _______ _______ _____ _____    ______ ____
ROOT
ATOM      1  O   UNL     1     104.609 127.963 142.306  0.00  0.00    +0.000 OA
ENDROOT
BRANCH   1   5
ATOM      2  O   UNL     1     102.876 130.252 141.813  0.00  0.00    +0.000 OA
ATOM      3  O   UNL     1     103.326 128.325 139.708  0.00  0.00    +0.000 OA
ATOM      4  O   UNL     1     102.474 129.471 139.499  0.00  0.00    +0.000 OA
ATOM      5  C   UNL     1     104.118 128.394 141.802  0.00  0.00    +0.000 A 
ATOM      6  C   UNL     1     103.743 129.117 142.076  0.00  0.00    +0.000 A 
ATOM      7  C   UNL     1     103.978 128.123 140.998  0.00  0.00    +0.000 A 
ATOM      8  C   UNL     1     103.234 129.558 141.544  0.00  0.00    +0.000 A 
ATOM      9  C   UNL     1     103.100 129.298 140.773  0.00  0.00    +0.000 A 
ATOM     10  C   UNL     1     103.466 128.578 140.480  0.00  0.00    +0.000 A 
ATOM     11  C   UNL     1     102.608 129.731 140.271  0.00  0.00    +0.000 A 
ATOM     12  C   UNL     1     102.385 130.685 141.311  0.00  0.00    +0.000 A 
ATOM     13  C   UNL     1     102.251 130.424 140.540  0.00  0.00    +0.000 A 
BRANCH  12  15
ATOM     14  O   UNL     1     100.956 133.458 142.387  0.00  0.00    +0.000 OA
ATOM     15  C   UNL     1     102.028 131.378 141.581  0.00  0.00    +0.000 A 
ATOM     16  C   UNL     1     102.438 132.094 141.545  0.00  0.00    +0.000 A 
ATOM     17  C   UNL     1     101.261 131.356 141.885  0.00  0.00    +0.000 A 
ATOM     18  C   UNL     1     102.080 132.786 141.814  0.00  0.00    +0.000 A 
ATOM     19  C   UNL     1     100.905 132.049 142.154  0.00  0.00    +0.000 A 
ATOM     20  C   UNL     1     101.314 132.765 142.118  0.00  0.00    +0.000 A 
BRANCH  18  21
ATOM     21  O   UNL     1     102.489 133.502 141.778  0.00  0.00    +0.000 OA
ATOM     22  C   UNL     1     102.973 133.671 141.131  0.00  0.00    +0.000 C 
ENDBRANCH  18  21
ENDBRANCH  12  15
ENDBRANCH   1   5
BRANCH   1  30
ATOM     23  O   UNL     1     105.771 128.740 142.012  0.00  0.00    +0.000 OA
ATOM     24  O   UNL     1     107.526 129.203 143.225  0.00  0.00    +0.000 OA
ATOM     25  O   UNL     1     105.201 127.649 143.814  0.00  0.00    +0.000 OA
ATOM     26  C   UNL     1     106.364 128.426 143.519  0.00  0.00    +0.000 C 
ATOM     27  C   UNL     1     106.797 128.893 142.994  0.00  0.00    +0.000 C 
ATOM     28  C   UNL     1     105.635 128.116 143.289  0.00  0.00    +0.000 C 
ATOM     29  C   UNL     1     106.501 129.050 142.241  0.00  0.00    +0.000 C 
ATOM     30  C   UNL     1     105.338 128.274 142.535  0.00  0.00    +0.000 C 
BRANCH  29  32
ATOM     31  O   UNL     1     107.140 129.223 140.974  0.00  0.00    +0.000 OA
ATOM     32  C   UNL     1     106.934 129.517 141.717  0.00  0.00    +0.000 C 
ENDBRANCH  29  32
BRANCH  26  33
ATOM     33  O   UNL     1     106.660 128.269 144.273  0.00  0.00    +0.000 OA
BRANCH  33  35
ATOM     34  O   UNL     1     105.774 128.986 145.134  0.00  0.00    +0.000 OA
ATOM     35  C   UNL     1     106.539 128.810 144.884  0.00  0.00    +0.000 C 
BRANCH  35  36
ATOM     36  C   UNL     1     107.185 129.175 145.245  0.00  0.00    +0.000 C 
ATOM     37  C   UNL     1     107.382 128.988 146.024  0.00  0.00    +0.000 C 
BRANCH  37  39
ATOM     38  O   UNL     1     105.585 126.783 147.697  0.00  0.00    +0.000 OA
ATOM     39  C   UNL     1     106.932 128.437 146.443  0.00  0.00    +0.000 A 
ATOM     40  C   UNL     1     107.173 127.649 146.475  0.00  0.00    +0.000 A 
ATOM     41  C   UNL     1     106.243 128.674 146.828  0.00  0.00    +0.000 A 
ATOM     42  C   UNL     1     106.724 127.098 146.893  0.00  0.00    +0.000 A 
ATOM     43  C   UNL     1     105.794 128.123 147.246  0.00  0.00    +0.000 A 
ATOM     44  C   UNL     1     106.034 127.335 147.279  0.00  0.00    +0.000 A 
ENDBRANCH  37  39
ENDBRANCH  35  36
ENDBRANCH  33  35
ENDBRANCH  26  33
ENDBRANCH   1  30
TORSDOF 9
ENDMDL
MODEL 8
REMARK VINA RESULT:      -9.5      9.383     11.488
REMARK  Name = 44258207
REMARK  9 active torsions:
REMARK  status: ('A' for Active; 'I' for Inactive)
REMARK    1  A    between atoms: O_2  and  C_14
REMARK    2  A    between atoms: O_2  and  C_21
REMARK    3  A    between atoms: O_4  and  C_18
REMARK    4  A    between atoms: O_4  and  C_20
REMARK    5  A    between atoms: O_11  and  C_38
REMARK    6  A    between atoms: C_17  and  C_19
REMARK    7  A    between atoms: C_21  and  C_25
REMARK    8  A    between atoms: C_29  and  C_33
REMARK    9  A    between atoms: C_30  and  C_32
REMARK                            x       y       z     vdW  Elec       q    Type
REMARK                         _______ _______ _______ _____ _____    ______ ____
ROOT
ATOM      1  O   UNL     1     112.891 130.366 138.876  0.00  0.00    +0.000 OA
ENDROOT
BRANCH   1   5
ATOM      2  O   UNL     1     113.217 127.495 138.505  0.00  0.00    +0.000 OA
ATOM      3  O   UNL     1     113.756 128.669 141.090  0.00  0.00    +0.000 OA
ATOM      4  O   UNL     1     113.907 127.250 140.869  0.00  0.00    +0.000 OA
ATOM      5  C   UNL     1     113.085 129.623 139.177  0.00  0.00    +0.000 A 
ATOM      6  C   UNL     1     113.049 128.928 138.673  0.00  0.00    +0.000 A 
ATOM      7  C   UNL     1     113.325 129.537 139.999  0.00  0.00    +0.000 A 
ATOM      8  C   UNL     1     113.253 128.158 138.995  0.00  0.00    +0.000 A 
ATOM      9  C   UNL     1     113.483 128.077 139.782  0.00  0.00    +0.000 A 
ATOM     10  C   UNL     1     113.525 128.759 140.303  0.00  0.00    +0.000 A 
ATOM     11  C   UNL     1     113.677 127.332 140.080  0.00  0.00    +0.000 A 
ATOM     12  C   UNL     1     113.410 126.751 138.803  0.00  0.00    +0.000 A 
ATOM     13  C   UNL     1     113.640 126.669 139.591  0.00  0.00    +0.000 A 
BRANCH  12  15
ATOM     14  O   UNL     1     113.263 124.099 136.844  0.00  0.00    +0.000 OA
ATOM     15  C   UNL     1     113.373 126.088 138.313  0.00  0.00    +0.000 A 
ATOM     16  C   UNL     1     112.645 125.733 138.153  0.00  0.00    +0.000 A 
ATOM     17  C   UNL     1     114.064 125.780 137.983  0.00  0.00    +0.000 A 
ATOM     18  C   UNL     1     112.609 125.070 137.664  0.00  0.00    +0.000 A 
ATOM     19  C   UNL     1     114.027 125.117 137.493  0.00  0.00    +0.000 A 
ATOM     20  C   UNL     1     113.300 124.762 137.334  0.00  0.00    +0.000 A 
BRANCH  18  21
ATOM     21  O   UNL     1     111.882 124.715 137.504  0.00  0.00    +0.000 OA
ATOM     22  C   UNL     1     111.204 125.178 137.426  0.00  0.00    +0.000 C 
ENDBRANCH  18  21
ENDBRANCH  12  15
ENDBRANCH   1   5
BRANCH   1  30
ATOM     23  O   UNL     1     111.685 130.673 139.579  0.00  0.00    +0.000 OA
ATOM     24  O   UNL     1     109.746 131.367 138.856  0.00  0.00    +0.000 OA
ATOM     25  O   UNL     1     112.157 130.752 137.450  0.00  0.00    +0.000 OA
ATOM     26  C   UNL     1     110.952 131.059 138.153  0.00  0.00    +0.000 C 
ATOM     27  C   UNL     1     110.532 131.116 138.862  0.00  0.00    +0.000 C 
ATOM     28  C   UNL     1     111.738 130.809 138.159  0.00  0.00    +0.000 C 
ATOM     29  C   UNL     1     110.899 130.923 139.575  0.00  0.00    +0.000 C 
ATOM     30  C   UNL     1     112.105 130.616 138.872  0.00  0.00    +0.000 C 
BRANCH  29  32
ATOM     31  O   UNL     1     110.731 131.502 140.871  0.00  0.00    +0.000 OA
ATOM     32  C   UNL     1     110.480 130.980 140.283  0.00  0.00    +0.000 C 
ENDBRANCH  29  32
BRANCH  26  33
ATOM     33  O   UNL     1     110.585 131.253 137.440  0.00  0.00    +0.000 OA
BRANCH  33  35
ATOM     34  O   UNL     1     109.761 130.112 137.191  0.00  0.00    +0.000 OA
ATOM     35  C   UNL     1     110.326 130.654 136.934  0.00  0.00    +0.000 C 
BRANCH  35  36
ATOM     36  C   UNL     1     110.633 130.598 136.171  0.00  0.00    +0.000 C 
ATOM     37  C   UNL     1     110.149 130.743 135.519  0.00  0.00    +0.000 C 
BRANCH  37  39
ATOM     38  O   UNL     1     106.980 131.546 135.967  0.00  0.00    +0.000 OA
ATOM     39  C   UNL     1     109.356 130.944 135.631  0.00  0.00    +0.000 A 
ATOM     40  C   UNL     1     108.792 130.352 135.736  0.00  0.00    +0.000 A 
ATOM     41  C   UNL     1     109.129 131.737 135.638  0.00  0.00    +0.000 A 
ATOM     42  C   UNL     1     108.000 130.553 135.848  0.00  0.00    +0.000 A 
ATOM     43  C   UNL     1     108.337 131.938 135.750  0.00  0.00    +0.000 A 
ATOM     44  C   UNL     1     107.773 131.346 135.855  0.00  0.00    +0.000 A 
ENDBRANCH  37  39
ENDBRANCH  35  36
ENDBRANCH  33  35
ENDBRANCH  26  33
ENDBRANCH   1  30
TORSDOF 9
ENDMDL
MODEL 9
REMARK VINA RESULT:      -9.4      7.070     10.203
REMARK  Name = 44258207
REMARK  9 active torsions:
REMARK  status: ('A' for Active; 'I' for Inactive)
REMARK    1  A    between atoms: O_2  and  C_14
REMARK    2  A    between atoms: O_2  and  C_21
REMARK    3  A    between atoms: O_4  and  C_18
REMARK    4  A    between atoms: O_4  and  C_20
REMARK    5  A    between atoms: O_11  and  C_38
REMARK    6  A    between atoms: C_17  and  C_19
REMARK    7  A    between atoms: C_21  and  C_25
REMARK    8  A    between atoms: C_29  and  C_33
REMARK    9  A    between atoms: C_30  and  C_32
REMARK                            x       y       z     vdW  Elec       q    Type
REMARK                         _______ _______ _______ _____ _____    ______ ____
ROOT
ATOM      1  O   UNL     1     112.557 127.071 140.906  0.00  0.00    +0.000 OA
ENDROOT
BRANCH   1   5
ATOM      2  O   UNL     1     111.817 128.884 143.062  0.00  0.00    +0.000 OA
ATOM      3  O   UNL     1     109.751 127.497 141.594  0.00  0.00    +0.000 OA
ATOM      4  O   UNL     1     109.422 128.403 142.668  0.00  0.00    +0.000 OA
ATOM      5  C   UNL     1     111.979 127.435 141.368  0.00  0.00    +0.000 A 
ATOM      6  C   UNL     1     112.204 127.984 141.990  0.00  0.00    +0.000 A 
ATOM      7  C   UNL     1     111.147 127.268 141.232  0.00  0.00    +0.000 A 
ATOM      8  C   UNL     1     111.594 128.358 142.466  0.00  0.00    +0.000 A 
ATOM      9  C   UNL     1     110.797 128.198 142.335  0.00  0.00    +0.000 A 
ATOM     10  C   UNL     1     110.552 127.652 141.718  0.00  0.00    +0.000 A 
ATOM     11  C   UNL     1     110.221 128.563 142.799  0.00  0.00    +0.000 A 
ATOM     12  C   UNL     1     111.241 129.250 143.526  0.00  0.00    +0.000 A 
ATOM     13  C   UNL     1     110.443 129.089 143.395  0.00  0.00    +0.000 A 
BRANCH  12  15
ATOM     14  O   UNL     1     112.130 131.354 145.907  0.00  0.00    +0.000 OA
ATOM     15  C   UNL     1     111.464 129.776 144.122  0.00  0.00    +0.000 A 
ATOM     16  C   UNL     1     111.562 130.577 143.948  0.00  0.00    +0.000 A 
ATOM     17  C   UNL     1     111.587 129.501 144.890  0.00  0.00    +0.000 A 
ATOM     18  C   UNL     1     111.785 131.102 144.543  0.00  0.00    +0.000 A 
ATOM     19  C   UNL     1     111.809 130.028 145.484  0.00  0.00    +0.000 A 
ATOM     20  C   UNL     1     111.908 130.828 145.312  0.00  0.00    +0.000 A 
BRANCH  18  21
ATOM     21  O   UNL     1     111.883 131.903 144.371  0.00  0.00    +0.000 OA
ATOM     22  C   UNL     1     112.197 132.133 143.643  0.00  0.00    +0.000 C 
ENDBRANCH  18  21
ENDBRANCH  12  15
ENDBRANCH   1   5
BRANCH   1  30
ATOM     23  O   UNL     1     112.947 128.148 140.052  0.00  0.00    +0.000 OA
ATOM     24  O   UNL     1     113.224 128.227 137.888  0.00  0.00    +0.000 OA
ATOM     25  O   UNL     1     112.444 126.073 139.597  0.00  0.00    +0.000 OA
ATOM     26  C   UNL     1     112.834 127.150 138.742  0.00  0.00    +0.000 C 
ATOM     27  C   UNL     1     113.058 127.939 138.643  0.00  0.00    +0.000 C 
ATOM     28  C   UNL     1     112.668 126.862 139.497  0.00  0.00    +0.000 C 
ATOM     29  C   UNL     1     113.114 128.438 139.297  0.00  0.00    +0.000 C 
ATOM     30  C   UNL     1     112.724 127.361 140.152  0.00  0.00    +0.000 C 
BRANCH  29  32
ATOM     31  O   UNL     1     113.970 129.533 139.629  0.00  0.00    +0.000 OA
ATOM     32  C   UNL     1     113.337 129.225 139.197  0.00  0.00    +0.000 C 
ENDBRANCH  29  32
BRANCH  26  33
ATOM     33  O   UNL     1     112.778 126.651 138.088  0.00  0.00    +0.000 OA
BRANCH  33  35
ATOM     34  O   UNL     1     113.792 125.669 138.308  0.00  0.00    +0.000 OA
ATOM     35  C   UNL     1     113.443 126.239 137.825  0.00  0.00    +0.000 C 
BRANCH  35  36
ATOM     36  C   UNL     1     113.758 126.397 137.079  0.00  0.00    +0.000 C 
ATOM     37  C   UNL     1     113.659 125.855 136.466  0.00  0.00    +0.000 C 
BRANCH  37  39
ATOM     38  O   UNL     1     112.001 123.051 136.997  0.00  0.00    +0.000 OA
ATOM     39  C   UNL     1     113.244 125.153 136.599  0.00  0.00    +0.000 A 
ATOM     40  C   UNL     1     112.439 125.112 136.426  0.00  0.00    +0.000 A 
ATOM     41  C   UNL     1     113.635 124.494 136.904  0.00  0.00    +0.000 A 
ATOM     42  C   UNL     1     112.025 124.411 136.559  0.00  0.00    +0.000 A 
ATOM     43  C   UNL     1     113.221 123.794 137.037  0.00  0.00    +0.000 A 
ATOM     44  C   UNL     1     112.416 123.752 136.864  0.00  0.00    +0.000 A 
ENDBRANCH  37  39
ENDBRANCH  35  36
ENDBRANCH  33  35
ENDBRANCH  26  33
ENDBRANCH   1  30
TORSDOF 9
ENDMDL
MODEL 10
REMARK VINA RESULT:      -9.4      9.923     11.661
REMARK  Name = 44258207
REMARK  9 active torsions:
REMARK  status: ('A' for Active; 'I' for Inactive)
REMARK    1  A    between atoms: O_2  and  C_14
REMARK    2  A    between atoms: O_2  and  C_21
REMARK    3  A    between atoms: O_4  and  C_18
REMARK    4  A    between atoms: O_4  and  C_20
REMARK    5  A    between atoms: O_11  and  C_38
REMARK    6  A    between atoms: C_17  and  C_19
REMARK    7  A    between atoms: C_21  and  C_25
REMARK    8  A    between atoms: C_29  and  C_33
REMARK    9  A    between atoms: C_30  and  C_32
REMARK                            x       y       z     vdW  Elec       q    Type
REMARK                         _______ _______ _______ _____ _____    ______ ____
ROOT
ATOM      1  O   UNL     1     111.453 128.590 135.402  0.00  0.00    +0.000 OA
ENDROOT
BRANCH   1   5
ATOM      2  O   UNL     1     112.656 129.791 137.767  0.00  0.00    +0.000 OA
ATOM      3  O   UNL     1     110.575 131.209 136.350  0.00  0.00    +0.000 OA
ATOM      4  O   UNL     1     111.194 131.773 137.526  0.00  0.00    +0.000 OA
ATOM      5  C   UNL     1     111.505 129.213 135.941  0.00  0.00    +0.000 A 
ATOM      6  C   UNL     1     112.067 129.178 136.590  0.00  0.00    +0.000 A 
ATOM      7  C   UNL     1     110.997 129.902 135.857  0.00  0.00    +0.000 A 
ATOM      8  C   UNL     1     112.114 129.831 137.146  0.00  0.00    +0.000 A 
ATOM      9  C   UNL     1     111.627 130.491 137.066  0.00  0.00    +0.000 A 
ATOM     10  C   UNL     1     111.058 130.545 136.423  0.00  0.00    +0.000 A 
ATOM     11  C   UNL     1     111.681 131.112 137.606  0.00  0.00    +0.000 A 
ATOM     12  C   UNL     1     112.710 130.412 138.308  0.00  0.00    +0.000 A 
ATOM     13  C   UNL     1     112.223 131.073 138.227  0.00  0.00    +0.000 A 
BRANCH  12  15
ATOM     14  O   UNL     1     114.877 130.254 140.792  0.00  0.00    +0.000 OA
ATOM     15  C   UNL     1     113.252 130.372 138.929  0.00  0.00    +0.000 A 
ATOM     16  C   UNL     1     113.017 130.075 139.662  0.00  0.00    +0.000 A 
ATOM     17  C   UNL     1     114.028 130.630 138.817  0.00  0.00    +0.000 A 
ATOM     18  C   UNL     1     113.559 130.035 140.282  0.00  0.00    +0.000 A 
ATOM     19  C   UNL     1     114.569 130.590 139.438  0.00  0.00    +0.000 A 
ATOM     20  C   UNL     1     114.335 130.293 140.171  0.00  0.00    +0.000 A 
BRANCH  18  21
ATOM     21  O   UNL     1     113.325 129.738 141.015  0.00  0.00    +0.000 OA
ATOM     22  C   UNL     1     112.859 129.058 141.057  0.00  0.00    +0.000 C 
ENDBRANCH  18  21
ENDBRANCH  12  15
ENDBRANCH   1   5
BRANCH   1  30
ATOM     23  O   UNL     1     110.265 127.897 135.791  0.00  0.00    +0.000 OA
ATOM     24  O   UNL     1     109.927 125.792 136.258  0.00  0.00    +0.000 OA
ATOM     25  O   UNL     1     112.302 127.178 135.479  0.00  0.00    +0.000 OA
ATOM     26  C   UNL     1     111.115 126.485 135.868  0.00  0.00    +0.000 C 
ATOM     27  C   UNL     1     110.308 126.492 136.044  0.00  0.00    +0.000 C 
ATOM     28  C   UNL     1     111.495 127.185 135.655  0.00  0.00    +0.000 C 
ATOM     29  C   UNL     1     109.883 127.198 136.005  0.00  0.00    +0.000 C 
ATOM     30  C   UNL     1     111.071 127.891 135.616  0.00  0.00    +0.000 C 
BRANCH  29  32
ATOM     31  O   UNL     1     108.564 127.681 135.745  0.00  0.00    +0.000 OA
ATOM     32  C   UNL     1     109.078 127.204 136.180  0.00  0.00    +0.000 C 
ENDBRANCH  29  32
BRANCH  26  33
ATOM     33  O   UNL     1     111.539 125.779 135.907  0.00  0.00    +0.000 OA
BRANCH  33  35
ATOM     34  O   UNL     1     112.101 125.911 137.214  0.00  0.00    +0.000 OA
ATOM     35  C   UNL     1     111.729 125.451 136.640  0.00  0.00    +0.000 C 
BRANCH  35  36
ATOM     36  C   UNL     1     111.544 124.663 136.799  0.00  0.00    +0.000 C 
ATOM     37  C   UNL     1     112.147 124.122 136.957  0.00  0.00    +0.000 C 
BRANCH  37  39
ATOM     38  O   UNL     1     115.294 125.113 136.952  0.00  0.00    +0.000 OA
ATOM     39  C   UNL     1     112.934 124.370 136.956  0.00  0.00    +0.000 A 
ATOM     40  C   UNL     1     113.263 124.702 137.635  0.00  0.00    +0.000 A 
ATOM     41  C   UNL     1     113.392 124.285 136.275  0.00  0.00    +0.000 A 
ATOM     42  C   UNL     1     114.049 124.950 137.633  0.00  0.00    +0.000 A 
ATOM     43  C   UNL     1     114.179 124.533 136.274  0.00  0.00    +0.000 A 
ATOM     44  C   UNL     1     114.507 124.865 136.953  0.00  0.00    +0.000 A 
ENDBRANCH  37  39
ENDBRANCH  35  36
ENDBRANCH  33  35
ENDBRANCH  26  33
ENDBRANCH   1  30
TORSDOF 9
ENDMDL
