MODEL 1
REMARK VINA RESULT:     -10.9      0.000      0.000
REMARK  Name = 44258883
REMARK  10 active torsions:
REMARK  status: ('A' for Active; 'I' for Inactive)
REMARK    1  A    between atoms: O_3  and  C_21
REMARK    2  A    between atoms: O_3  and  C_36
REMARK    3  A    between atoms: O_4  and  C_23
REMARK    4  A    between atoms: O_4  and  C_31
REMARK    5  A    between atoms: O_7  and  C_28
REMARK    6  A    between atoms: O_7  and  C_32
REMARK    7  A    between atoms: C_22  and  C_29
REMARK    8  A    between atoms: C_34  and  C_41
REMARK    9  A    between atoms: C_36  and  C_42
REMARK   10  A    between atoms: C_45  and  C_49
REMARK                            x       y       z     vdW  Elec       q    Type
REMARK                         _______ _______ _______ _____ _____    ______ ____
ROOT
ATOM      1  O   UNL     1     113.050 128.616 138.042  0.00  0.00    +0.000 OA
ATOM      2  O   UNL     1     110.912 128.607 139.291  0.00  0.00    +0.000 OA
ATOM      3  O   UNL     1     111.102 127.225 139.662  0.00  0.00    +0.000 OA
ATOM      4  C   UNL     1     111.874 129.296 138.490  0.00  0.00    +0.000 A 
ATOM      5  C   UNL     1     113.035 126.509 138.785  0.00  0.00    +0.000 A 
ATOM      6  C   UNL     1     111.625 128.610 138.874  0.00  0.00    +0.000 A 
ATOM      7  C   UNL     1     112.587 129.299 138.074  0.00  0.00    +0.000 A 
ATOM      8  C   UNL     1     112.087 127.927 138.843  0.00  0.00    +0.000 A 
ATOM      9  C   UNL     1     112.799 127.931 138.427  0.00  0.00    +0.000 A 
ATOM     10  C   UNL     1     113.290 127.226 138.386  0.00  0.00    +0.000 A 
ATOM     11  C   UNL     1     112.292 126.505 139.219  0.00  0.00    +0.000 A 
ATOM     12  C   UNL     1     111.816 127.219 139.248  0.00  0.00    +0.000 A 
ENDROOT
BRANCH   7  14
ATOM     13  O   UNL     1     113.584 132.042 136.534  0.00  0.00    +0.000 OA
ATOM     14  C   UNL     1     112.837 129.985 137.689  0.00  0.00    +0.000 A 
ATOM     15  C   UNL     1     113.385 130.484 138.050  0.00  0.00    +0.000 A 
ATOM     16  C   UNL     1     112.537 130.171 136.943  0.00  0.00    +0.000 A 
ATOM     17  C   UNL     1     113.634 131.170 137.665  0.00  0.00    +0.000 A 
ATOM     18  C   UNL     1     112.787 130.857 136.559  0.00  0.00    +0.000 A 
ATOM     19  C   UNL     1     113.335 131.356 136.920  0.00  0.00    +0.000 A 
ENDBRANCH   7  14
BRANCH   4  20
ATOM     20  O   UNL     1     111.412 129.978 138.522  0.00  0.00    +0.000 OA
BRANCH  20  28
ATOM     21  O   UNL     1     111.698 130.261 139.893  0.00  0.00    +0.000 OA
ATOM     22  O   UNL     1     109.447 131.257 140.156  0.00  0.00    +0.000 OA
ATOM     23  O   UNL     1     110.483 131.209 141.440  0.00  0.00    +0.000 OA
ATOM     24  C   UNL     1     110.198 130.925 140.068  0.00  0.00    +0.000 C 
ATOM     25  C   UNL     1     110.716 130.901 140.710  0.00  0.00    +0.000 C 
ATOM     26  C   UNL     1     110.430 130.617 139.338  0.00  0.00    +0.000 C 
ATOM     27  C   UNL     1     111.466 130.569 140.622  0.00  0.00    +0.000 C 
ATOM     28  C   UNL     1     111.180 130.285 139.251  0.00  0.00    +0.000 C 
BRANCH  27  30
ATOM     29  O   UNL     1     112.721 130.911 141.214  0.00  0.00    +0.000 OA
ATOM     30  C   UNL     1     111.984 130.545 141.264  0.00  0.00    +0.000 C 
ENDBRANCH  27  30
BRANCH  26  31
ATOM     31  O   UNL     1     109.912 130.642 138.697  0.00  0.00    +0.000 OA
BRANCH  31  33
ATOM     32  O   UNL     1     110.150 132.043 138.555  0.00  0.00    +0.000 OA
ATOM     33  C   UNL     1     109.754 131.359 138.321  0.00  0.00    +0.000 C 
BRANCH  33  34
ATOM     34  C   UNL     1     109.200 131.391 137.710  0.00  0.00    +0.000 C 
ATOM     35  C   UNL     1     109.335 131.874 137.056  0.00  0.00    +0.000 C 
BRANCH  35  38
ATOM     36  O   UNL     1     106.688 131.401 136.087  0.00  0.00    +0.000 OA
ATOM     37  O   UNL     1     107.120 132.003 134.613  0.00  0.00    +0.000 OA
ATOM     38  C   UNL     1     108.782 131.907 136.445  0.00  0.00    +0.000 A 
ATOM     39  C   UNL     1     108.012 131.637 136.571  0.00  0.00    +0.000 A 
ATOM     40  C   UNL     1     108.998 132.208 135.708  0.00  0.00    +0.000 A 
ATOM     41  C   UNL     1     107.459 131.670 135.960  0.00  0.00    +0.000 A 
ATOM     42  C   UNL     1     108.444 132.240 135.097  0.00  0.00    +0.000 A 
ATOM     43  C   UNL     1     107.675 131.971 135.223  0.00  0.00    +0.000 A 
ENDBRANCH  35  38
ENDBRANCH  33  34
ENDBRANCH  31  33
ENDBRANCH  26  31
ENDBRANCH  20  28
ENDBRANCH   4  20
BRANCH   5  44
ATOM     44  O   UNL     1     113.500 125.828 138.752  0.00  0.00    +0.000 OA
BRANCH  44  53
ATOM     45  O   UNL     1     112.808 125.129 137.715  0.00  0.00    +0.000 OA
ATOM     46  O   UNL     1     114.972 124.489 136.701  0.00  0.00    +0.000 OA
ATOM     47  O   UNL     1     113.558 124.004 136.002  0.00  0.00    +0.000 OA
ATOM     48  O   UNL     1     114.942 125.401 138.075  0.00  0.00    +0.000 OA
ATOM     49  C   UNL     1     114.250 124.702 137.039  0.00  0.00    +0.000 C 
ATOM     50  C   UNL     1     113.543 124.460 136.689  0.00  0.00    +0.000 C 
ATOM     51  C   UNL     1     114.235 125.158 137.726  0.00  0.00    +0.000 C 
ATOM     52  C   UNL     1     112.822 124.673 137.027  0.00  0.00    +0.000 C 
ATOM     53  C   UNL     1     113.514 125.372 138.064  0.00  0.00    +0.000 C 
ATOM     54  C   UNL     1     112.115 124.430 136.678  0.00  0.00    +0.000 C 
ENDBRANCH  44  53
ENDBRANCH   5  44
TORSDOF 10
ENDMDL
MODEL 2
REMARK VINA RESULT:     -10.8      1.912      6.082
REMARK  Name = 44258883
REMARK  10 active torsions:
REMARK  status: ('A' for Active; 'I' for Inactive)
REMARK    1  A    between atoms: O_3  and  C_21
REMARK    2  A    between atoms: O_3  and  C_36
REMARK    3  A    between atoms: O_4  and  C_23
REMARK    4  A    between atoms: O_4  and  C_31
REMARK    5  A    between atoms: O_7  and  C_28
REMARK    6  A    between atoms: O_7  and  C_32
REMARK    7  A    between atoms: C_22  and  C_29
REMARK    8  A    between atoms: C_34  and  C_41
REMARK    9  A    between atoms: C_36  and  C_42
REMARK   10  A    between atoms: C_45  and  C_49
REMARK                            x       y       z     vdW  Elec       q    Type
REMARK                         _______ _______ _______ _____ _____    ______ ____
ROOT
ATOM      1  O   UNL     1     111.356 130.294 139.056  0.00  0.00    +0.000 OA
ATOM      2  O   UNL     1     109.302 128.967 138.669  0.00  0.00    +0.000 OA
ATOM      3  O   UNL     1     108.727 129.445 139.903  0.00  0.00    +0.000 OA
ATOM      4  C   UNL     1     110.602 129.386 138.249  0.00  0.00    +0.000 A 
ATOM      5  C   UNL     1     110.187 130.834 140.882  0.00  0.00    +0.000 A 
ATOM      6  C   UNL     1     109.987 129.410 138.798  0.00  0.00    +0.000 A 
ATOM      7  C   UNL     1     111.287 129.828 138.378  0.00  0.00    +0.000 A 
ATOM      8  C   UNL     1     110.056 129.875 139.476  0.00  0.00    +0.000 A 
ATOM      9  C   UNL     1     110.740 130.317 139.604  0.00  0.00    +0.000 A 
ATOM     10  C   UNL     1     110.825 130.806 140.307  0.00  0.00    +0.000 A 
ATOM     11  C   UNL     1     109.474 130.374 140.748  0.00  0.00    +0.000 A 
ATOM     12  C   UNL     1     109.408 129.891 140.040  0.00  0.00    +0.000 A 
ENDROOT
BRANCH   7  14
ATOM     13  O   UNL     1     113.748 129.731 136.182  0.00  0.00    +0.000 OA
ATOM     14  C   UNL     1     111.902 129.805 137.829  0.00  0.00    +0.000 A 
ATOM     15  C   UNL     1     111.968 130.396 137.257  0.00  0.00    +0.000 A 
ATOM     16  C   UNL     1     112.451 129.188 137.851  0.00  0.00    +0.000 A 
ATOM     17  C   UNL     1     112.584 130.371 136.708  0.00  0.00    +0.000 A 
ATOM     18  C   UNL     1     113.066 129.164 137.302  0.00  0.00    +0.000 A 
ATOM     19  C   UNL     1     113.132 129.756 136.731  0.00  0.00    +0.000 A 
ENDBRANCH   7  14
BRANCH   4  20
ATOM     20  O   UNL     1     110.533 128.920 137.572  0.00  0.00    +0.000 OA
BRANCH  20  28
ATOM     21  O   UNL     1     109.599 129.779 136.914  0.00  0.00    +0.000 OA
ATOM     22  O   UNL     1     108.540 127.813 135.848  0.00  0.00    +0.000 OA
ATOM     23  O   UNL     1     107.959 129.327 135.546  0.00  0.00    +0.000 OA
ATOM     24  C   UNL     1     108.893 128.468 136.203  0.00  0.00    +0.000 C 
ATOM     25  C   UNL     1     108.603 129.226 136.053  0.00  0.00    +0.000 C 
ATOM     26  C   UNL     1     109.537 128.367 136.710  0.00  0.00    +0.000 C 
ATOM     27  C   UNL     1     108.956 129.881 136.408  0.00  0.00    +0.000 C 
ATOM     28  C   UNL     1     109.890 129.022 137.066  0.00  0.00    +0.000 C 
BRANCH  27  30
ATOM     29  O   UNL     1     109.161 131.216 135.940  0.00  0.00    +0.000 OA
ATOM     30  C   UNL     1     108.665 130.639 136.257  0.00  0.00    +0.000 C 
ENDBRANCH  27  30
BRANCH  26  31
ATOM     31  O   UNL     1     109.827 127.609 136.860  0.00  0.00    +0.000 OA
BRANCH  31  33
ATOM     32  O   UNL     1     110.351 127.535 135.534  0.00  0.00    +0.000 OA
ATOM     33  C   UNL     1     110.285 127.222 136.294  0.00  0.00    +0.000 C 
BRANCH  33  34
ATOM     34  C   UNL     1     110.676 126.522 136.488  0.00  0.00    +0.000 C 
ATOM     35  C   UNL     1     111.291 126.248 136.012  0.00  0.00    +0.000 C 
BRANCH  35  38
ATOM     36  O   UNL     1     113.641 124.898 136.919  0.00  0.00    +0.000 OA
ATOM     37  O   UNL     1     112.861 123.450 136.786  0.00  0.00    +0.000 OA
ATOM     38  C   UNL     1     111.683 125.548 136.205  0.00  0.00    +0.000 A 
ATOM     39  C   UNL     1     112.466 125.573 136.466  0.00  0.00    +0.000 A 
ATOM     40  C   UNL     1     111.293 124.825 136.138  0.00  0.00    +0.000 A 
ATOM     41  C   UNL     1     112.858 124.873 136.659  0.00  0.00    +0.000 A 
ATOM     42  C   UNL     1     111.686 124.125 136.332  0.00  0.00    +0.000 A 
ATOM     43  C   UNL     1     112.468 124.149 136.592  0.00  0.00    +0.000 A 
ENDBRANCH  35  38
ENDBRANCH  33  34
ENDBRANCH  31  33
ENDBRANCH  26  31
ENDBRANCH  20  28
ENDBRANCH   4  20
BRANCH   5  44
ATOM     44  O   UNL     1     110.259 131.301 141.559  0.00  0.00    +0.000 OA
BRANCH  44  53
ATOM     45  O   UNL     1     110.578 130.259 142.483  0.00  0.00    +0.000 OA
ATOM     46  O   UNL     1     112.229 131.738 143.583  0.00  0.00    +0.000 OA
ATOM     47  O   UNL     1     111.997 130.203 144.141  0.00  0.00    +0.000 OA
ATOM     48  O   UNL     1     111.360 132.287 142.292  0.00  0.00    +0.000 OA
ATOM     49  C   UNL     1     111.678 131.245 143.217  0.00  0.00    +0.000 C 
ATOM     50  C   UNL     1     111.562 130.477 143.496  0.00  0.00    +0.000 C 
ATOM     51  C   UNL     1     111.244 131.519 142.571  0.00  0.00    +0.000 C 
ATOM     52  C   UNL     1     111.012 129.984 143.129  0.00  0.00    +0.000 C 
ATOM     53  C   UNL     1     110.694 131.027 142.204  0.00  0.00    +0.000 C 
ATOM     54  C   UNL     1     110.896 129.216 143.408  0.00  0.00    +0.000 C 
ENDBRANCH  44  53
ENDBRANCH   5  44
TORSDOF 10
ENDMDL
MODEL 3
REMARK VINA RESULT:     -10.8      7.655      9.624
REMARK  Name = 44258883
REMARK  10 active torsions:
REMARK  status: ('A' for Active; 'I' for Inactive)
REMARK    1  A    between atoms: O_3  and  C_21
REMARK    2  A    between atoms: O_3  and  C_36
REMARK    3  A    between atoms: O_4  and  C_23
REMARK    4  A    between atoms: O_4  and  C_31
REMARK    5  A    between atoms: O_7  and  C_28
REMARK    6  A    between atoms: O_7  and  C_32
REMARK    7  A    between atoms: C_22  and  C_29
REMARK    8  A    between atoms: C_34  and  C_41
REMARK    9  A    between atoms: C_36  and  C_42
REMARK   10  A    between atoms: C_45  and  C_49
REMARK                            x       y       z     vdW  Elec       q    Type
REMARK                         _______ _______ _______ _____ _____    ______ ____
ROOT
ATOM      1  O   UNL     1     106.128 128.350 145.765  0.00  0.00    +0.000 OA
ATOM      2  O   UNL     1     104.977 126.787 144.228  0.00  0.00    +0.000 OA
ATOM      3  O   UNL     1     104.810 125.823 145.288  0.00  0.00    +0.000 OA
ATOM      4  C   UNL     1     105.629 128.037 144.463  0.00  0.00    +0.000 A 
ATOM      5  C   UNL     1     105.709 126.658 147.163  0.00  0.00    +0.000 A 
ATOM      6  C   UNL     1     105.361 127.308 144.741  0.00  0.00    +0.000 A 
ATOM      7  C   UNL     1     106.012 128.558 144.976  0.00  0.00    +0.000 A 
ATOM      8  C   UNL     1     105.476 127.100 145.531  0.00  0.00    +0.000 A 
ATOM      9  C   UNL     1     105.859 127.621 146.043  0.00  0.00    +0.000 A 
ATOM     10  C   UNL     1     105.986 127.416 146.868  0.00  0.00    +0.000 A 
ATOM     11  C   UNL     1     105.309 126.115 146.629  0.00  0.00    +0.000 A 
ATOM     12  C   UNL     1     105.192 126.338 145.808  0.00  0.00    +0.000 A 
ENDROOT
BRANCH   7  14
ATOM     13  O   UNL     1     107.081 131.476 143.863  0.00  0.00    +0.000 OA
ATOM     14  C   UNL     1     106.280 129.287 144.697  0.00  0.00    +0.000 A 
ATOM     15  C   UNL     1     107.069 129.380 144.474  0.00  0.00    +0.000 A 
ATOM     16  C   UNL     1     105.758 129.925 144.643  0.00  0.00    +0.000 A 
ATOM     17  C   UNL     1     107.335 130.109 144.195  0.00  0.00    +0.000 A 
ATOM     18  C   UNL     1     106.026 130.654 144.365  0.00  0.00    +0.000 A 
ATOM     19  C   UNL     1     106.815 130.746 144.141  0.00  0.00    +0.000 A 
ENDBRANCH   7  14
BRANCH   4  20
ATOM     20  O   UNL     1     105.513 128.246 143.673  0.00  0.00    +0.000 OA
BRANCH  20  28
ATOM     21  O   UNL     1     106.504 127.370 143.132  0.00  0.00    +0.000 OA
ATOM     22  O   UNL     1     105.077 126.981 141.148  0.00  0.00    +0.000 OA
ATOM     23  O   UNL     1     106.544 126.234 141.268  0.00  0.00    +0.000 OA
ATOM     24  C   UNL     1     105.553 127.110 141.809  0.00  0.00    +0.000 C 
ATOM     25  C   UNL     1     106.286 126.738 141.870  0.00  0.00    +0.000 C 
ATOM     26  C   UNL     1     105.295 127.614 142.411  0.00  0.00    +0.000 C 
ATOM     27  C   UNL     1     106.762 126.867 142.532  0.00  0.00    +0.000 C 
ATOM     28  C   UNL     1     105.771 127.743 143.072  0.00  0.00    +0.000 C 
BRANCH  27  30
ATOM     29  O   UNL     1     108.178 126.940 142.704  0.00  0.00    +0.000 OA
ATOM     30  C   UNL     1     107.495 126.493 142.592  0.00  0.00    +0.000 C 
ENDBRANCH  27  30
BRANCH  26  31
ATOM     31  O   UNL     1     104.562 127.987 142.350  0.00  0.00    +0.000 OA
BRANCH  31  33
ATOM     32  O   UNL     1     105.077 128.848 141.334  0.00  0.00    +0.000 OA
ATOM     33  C   UNL     1     104.468 128.634 141.847  0.00  0.00    +0.000 C 
BRANCH  33  34
ATOM     34  C   UNL     1     103.766 129.067 141.859  0.00  0.00    +0.000 C 
ATOM     35  C   UNL     1     103.773 129.869 141.666  0.00  0.00    +0.000 C 
BRANCH  35  38
ATOM     36  O   UNL     1     101.997 131.666 143.002  0.00  0.00    +0.000 OA
ATOM     37  O   UNL     1     100.967 131.605 141.715  0.00  0.00    +0.000 OA
ATOM     38  C   UNL     1     103.071 130.303 141.678  0.00  0.00    +0.000 A 
ATOM     39  C   UNL     1     102.885 130.767 142.334  0.00  0.00    +0.000 A 
ATOM     40  C   UNL     1     102.556 130.272 141.034  0.00  0.00    +0.000 A 
ATOM     41  C   UNL     1     102.183 131.201 142.346  0.00  0.00    +0.000 A 
ATOM     42  C   UNL     1     101.855 130.707 141.047  0.00  0.00    +0.000 A 
ATOM     43  C   UNL     1     101.668 131.171 141.702  0.00  0.00    +0.000 A 
ENDBRANCH  35  38
ENDBRANCH  33  34
ENDBRANCH  31  33
ENDBRANCH  26  31
ENDBRANCH  20  28
ENDBRANCH   4  20
BRANCH   5  44
ATOM     44  O   UNL     1     105.826 126.452 147.953  0.00  0.00    +0.000 OA
BRANCH  44  53
ATOM     45  O   UNL     1     107.124 125.886 147.763  0.00  0.00    +0.000 OA
ATOM     46  O   UNL     1     106.661 124.223 149.535  0.00  0.00    +0.000 OA
ATOM     47  O   UNL     1     108.114 124.212 148.754  0.00  0.00    +0.000 OA
ATOM     48  O   UNL     1     105.517 125.343 149.135  0.00  0.00    +0.000 OA
ATOM     49  C   UNL     1     106.816 124.777 148.944  0.00  0.00    +0.000 C 
ATOM     50  C   UNL     1     107.542 124.772 148.554  0.00  0.00    +0.000 C 
ATOM     51  C   UNL     1     106.244 125.337 148.744  0.00  0.00    +0.000 C 
ATOM     52  C   UNL     1     107.697 125.326 147.963  0.00  0.00    +0.000 C 
ATOM     53  C   UNL     1     106.398 125.892 148.154  0.00  0.00    +0.000 C 
ATOM     54  C   UNL     1     108.424 125.321 147.572  0.00  0.00    +0.000 C 
ENDBRANCH  44  53
ENDBRANCH   5  44
TORSDOF 10
ENDMDL
MODEL 4
REMARK VINA RESULT:     -10.6      1.853      4.464
REMARK  Name = 44258883
REMARK  10 active torsions:
REMARK  status: ('A' for Active; 'I' for Inactive)
REMARK    1  A    between atoms: O_3  and  C_21
REMARK    2  A    between atoms: O_3  and  C_36
REMARK    3  A    between atoms: O_4  and  C_23
REMARK    4  A    between atoms: O_4  and  C_31
REMARK    5  A    between atoms: O_7  and  C_28
REMARK    6  A    between atoms: O_7  and  C_32
REMARK    7  A    between atoms: C_22  and  C_29
REMARK    8  A    between atoms: C_34  and  C_41
REMARK    9  A    between atoms: C_36  and  C_42
REMARK   10  A    between atoms: C_45  and  C_49
REMARK                            x       y       z     vdW  Elec       q    Type
REMARK                         _______ _______ _______ _____ _____    ______ ____
ROOT
ATOM      1  O   UNL     1     112.916 128.608 138.142  0.00  0.00    +0.000 OA
ATOM      2  O   UNL     1     110.558 128.942 138.819  0.00  0.00    +0.000 OA
ATOM      3  O   UNL     1     110.113 127.960 137.860  0.00  0.00    +0.000 OA
ATOM      4  C   UNL     1     111.943 129.263 138.960  0.00  0.00    +0.000 A 
ATOM      5  C   UNL     1     111.903 127.158 136.776  0.00  0.00    +0.000 A 
ATOM      6  C   UNL     1     111.344 128.830 138.593  0.00  0.00    +0.000 A 
ATOM      7  C   UNL     1     112.730 129.152 138.734  0.00  0.00    +0.000 A 
ATOM      8  C   UNL     1     111.530 128.286 138.001  0.00  0.00    +0.000 A 
ATOM      9  C   UNL     1     112.316 128.175 137.776  0.00  0.00    +0.000 A 
ATOM     10  C   UNL     1     112.523 127.611 137.161  0.00  0.00    +0.000 A 
ATOM     11  C   UNL     1     111.084 127.274 137.011  0.00  0.00    +0.000 A 
ATOM     12  C   UNL     1     110.897 127.842 137.628  0.00  0.00    +0.000 A 
ENDROOT
BRANCH   7  14
ATOM     13  O   UNL     1     115.126 130.885 140.198  0.00  0.00    +0.000 OA
ATOM     14  C   UNL     1     113.328 129.584 139.100  0.00  0.00    +0.000 A 
ATOM     15  C   UNL     1     113.613 129.352 139.839  0.00  0.00    +0.000 A 
ATOM     16  C   UNL     1     113.643 130.250 138.727  0.00  0.00    +0.000 A 
ATOM     17  C   UNL     1     114.212 129.786 140.205  0.00  0.00    +0.000 A 
ATOM     18  C   UNL     1     114.242 130.683 139.094  0.00  0.00    +0.000 A 
ATOM     19  C   UNL     1     114.527 130.451 139.832  0.00  0.00    +0.000 A 
ENDBRANCH   7  14
BRANCH   4  20
ATOM     20  O   UNL     1     111.757 129.807 139.551  0.00  0.00    +0.000 OA
BRANCH  20  28
ATOM     21  O   UNL     1     111.220 130.789 138.663  0.00  0.00    +0.000 OA
ATOM     22  O   UNL     1     109.616 131.494 140.411  0.00  0.00    +0.000 OA
ATOM     23  O   UNL     1     109.614 132.241 138.940  0.00  0.00    +0.000 OA
ATOM     24  C   UNL     1     110.151 131.259 139.828  0.00  0.00    +0.000 C 
ATOM     25  C   UNL     1     110.150 131.632 139.093  0.00  0.00    +0.000 C 
ATOM     26  C   UNL     1     110.687 130.650 139.981  0.00  0.00    +0.000 C 
ATOM     27  C   UNL     1     110.685 131.397 138.510  0.00  0.00    +0.000 C 
ATOM     28  C   UNL     1     111.222 130.415 139.398  0.00  0.00    +0.000 C 
BRANCH  27  30
ATOM     29  O   UNL     1     111.345 132.197 137.526  0.00  0.00    +0.000 OA
ATOM     30  C   UNL     1     110.684 131.771 137.774  0.00  0.00    +0.000 C 
ENDBRANCH  27  30
BRANCH  26  31
ATOM     31  O   UNL     1     110.687 130.277 140.717  0.00  0.00    +0.000 OA
BRANCH  31  33
ATOM     32  O   UNL     1     111.286 131.433 141.304  0.00  0.00    +0.000 OA
ATOM     33  C   UNL     1     110.992 130.666 141.377  0.00  0.00    +0.000 C 
BRANCH  33  34
ATOM     34  C   UNL     1     111.002 130.287 142.110  0.00  0.00    +0.000 C 
ATOM     35  C   UNL     1     111.616 130.434 142.641  0.00  0.00    +0.000 C 
BRANCH  35  38
ATOM     36  O   UNL     1     111.546 130.569 145.495  0.00  0.00    +0.000 OA
ATOM     37  O   UNL     1     111.660 128.925 145.576  0.00  0.00    +0.000 OA
ATOM     38  C   UNL     1     111.627 130.056 143.374  0.00  0.00    +0.000 A 
ATOM     39  C   UNL     1     111.581 130.501 144.068  0.00  0.00    +0.000 A 
ATOM     40  C   UNL     1     111.685 129.234 143.415  0.00  0.00    +0.000 A 
ATOM     41  C   UNL     1     111.592 130.123 144.801  0.00  0.00    +0.000 A 
ATOM     42  C   UNL     1     111.695 128.857 144.149  0.00  0.00    +0.000 A 
ATOM     43  C   UNL     1     111.649 129.301 144.842  0.00  0.00    +0.000 A 
ENDBRANCH  35  38
ENDBRANCH  33  34
ENDBRANCH  31  33
ENDBRANCH  26  31
ENDBRANCH  20  28
ENDBRANCH   4  20
BRANCH   5  44
ATOM     44  O   UNL     1     112.092 126.615 136.184  0.00  0.00    +0.000 OA
BRANCH  44  53
ATOM     45  O   UNL     1     113.003 125.735 136.847  0.00  0.00    +0.000 OA
ATOM     46  O   UNL     1     111.685 123.788 136.074  0.00  0.00    +0.000 OA
ATOM     47  O   UNL     1     113.035 123.557 136.994  0.00  0.00    +0.000 OA
ATOM     48  O   UNL     1     111.214 125.317 135.669  0.00  0.00    +0.000 OA
ATOM     49  C   UNL     1     112.124 124.437 136.332  0.00  0.00    +0.000 C 
ATOM     50  C   UNL     1     112.799 124.321 136.791  0.00  0.00    +0.000 C 
ATOM     51  C   UNL     1     111.889 125.201 136.129  0.00  0.00    +0.000 C 
ATOM     52  C   UNL     1     113.239 124.970 137.049  0.00  0.00    +0.000 C 
ATOM     53  C   UNL     1     112.328 125.850 136.387  0.00  0.00    +0.000 C 
ATOM     54  C   UNL     1     113.914 124.855 137.509  0.00  0.00    +0.000 C 
ENDBRANCH  44  53
ENDBRANCH   5  44
TORSDOF 10
ENDMDL
MODEL 5
REMARK VINA RESULT:     -10.6      6.182      9.168
REMARK  Name = 44258883
REMARK  10 active torsions:
REMARK  status: ('A' for Active; 'I' for Inactive)
REMARK    1  A    between atoms: O_3  and  C_21
REMARK    2  A    between atoms: O_3  and  C_36
REMARK    3  A    between atoms: O_4  and  C_23
REMARK    4  A    between atoms: O_4  and  C_31
REMARK    5  A    between atoms: O_7  and  C_28
REMARK    6  A    between atoms: O_7  and  C_32
REMARK    7  A    between atoms: C_22  and  C_29
REMARK    8  A    between atoms: C_34  and  C_41
REMARK    9  A    between atoms: C_36  and  C_42
REMARK   10  A    between atoms: C_45  and  C_49
REMARK                            x       y       z     vdW  Elec       q    Type
REMARK                         _______ _______ _______ _____ _____    ______ ____
ROOT
ATOM      1  O   UNL     1     107.209 128.789 141.922  0.00  0.00    +0.000 OA
ATOM      2  O   UNL     1     107.936 126.511 142.560  0.00  0.00    +0.000 OA
ATOM      3  O   UNL     1     109.182 126.678 141.851  0.00  0.00    +0.000 OA
ATOM      4  C   UNL     1     106.960 127.554 142.596  0.00  0.00    +0.000 A 
ATOM      5  C   UNL     1     109.211 128.722 140.932  0.00  0.00    +0.000 A 
ATOM      6  C   UNL     1     107.694 127.271 142.347  0.00  0.00    +0.000 A 
ATOM      7  C   UNL     1     106.718 128.314 142.383  0.00  0.00    +0.000 A 
ATOM      8  C   UNL     1     108.185 127.746 141.886  0.00  0.00    +0.000 A 
ATOM      9  C   UNL     1     107.943 128.505 141.674  0.00  0.00    +0.000 A 
ATOM     10  C   UNL     1     108.446 129.011 141.193  0.00  0.00    +0.000 A 
ATOM     11  C   UNL     1     109.464 127.930 141.153  0.00  0.00    +0.000 A 
ATOM     12  C   UNL     1     108.947 127.439 141.634  0.00  0.00    +0.000 A 
ENDROOT
BRANCH   7  14
ATOM     13  O   UNL     1     103.781 129.445 143.375  0.00  0.00    +0.000 OA
ATOM     14  C   UNL     1     105.984 128.597 142.631  0.00  0.00    +0.000 A 
ATOM     15  C   UNL     1     105.884 128.860 143.407  0.00  0.00    +0.000 A 
ATOM     16  C   UNL     1     105.349 128.616 142.103  0.00  0.00    +0.000 A 
ATOM     17  C   UNL     1     105.149 129.143 143.654  0.00  0.00    +0.000 A 
ATOM     18  C   UNL     1     104.615 128.899 142.352  0.00  0.00    +0.000 A 
ATOM     19  C   UNL     1     104.515 129.162 143.128  0.00  0.00    +0.000 A 
ENDBRANCH   7  14
BRANCH   4  20
ATOM     20  O   UNL     1     106.468 127.078 143.057  0.00  0.00    +0.000 OA
BRANCH  20  28
ATOM     21  O   UNL     1     106.042 126.220 141.996  0.00  0.00    +0.000 OA
ATOM     22  O   UNL     1     105.998 124.305 143.563  0.00  0.00    +0.000 OA
ATOM     23  O   UNL     1     105.586 124.085 141.980  0.00  0.00    +0.000 OA
ATOM     24  C   UNL     1     106.012 124.943 143.041  0.00  0.00    +0.000 C 
ATOM     25  C   UNL     1     105.807 124.834 142.249  0.00  0.00    +0.000 C 
ATOM     26  C   UNL     1     106.233 125.692 143.310  0.00  0.00    +0.000 C 
ATOM     27  C   UNL     1     105.822 125.473 141.727  0.00  0.00    +0.000 C 
ATOM     28  C   UNL     1     106.248 126.330 142.788  0.00  0.00    +0.000 C 
BRANCH  27  30
ATOM     29  O   UNL     1     105.121 125.903 140.558  0.00  0.00    +0.000 OA
ATOM     30  C   UNL     1     105.616 125.362 140.936  0.00  0.00    +0.000 C 
ENDBRANCH  27  30
BRANCH  26  31
ATOM     31  O   UNL     1     106.439 125.801 144.101  0.00  0.00    +0.000 OA
BRANCH  31  33
ATOM     32  O   UNL     1     105.096 125.865 144.583  0.00  0.00    +0.000 OA
ATOM     33  C   UNL     1     105.885 125.656 144.696  0.00  0.00    +0.000 C 
BRANCH  33  34
ATOM     34  C   UNL     1     106.122 125.302 145.402  0.00  0.00    +0.000 C 
ATOM     35  C   UNL     1     106.123 125.739 146.102  0.00  0.00    +0.000 C 
BRANCH  35  38
ATOM     36  O   UNL     1     108.187 125.071 147.963  0.00  0.00    +0.000 OA
ATOM     37  O   UNL     1     107.074 124.330 148.930  0.00  0.00    +0.000 OA
ATOM     38  C   UNL     1     106.360 125.387 146.809  0.00  0.00    +0.000 A 
ATOM     39  C   UNL     1     107.155 125.405 147.033  0.00  0.00    +0.000 A 
ATOM     40  C   UNL     1     105.804 125.016 147.293  0.00  0.00    +0.000 A 
ATOM     41  C   UNL     1     107.392 125.053 147.740  0.00  0.00    +0.000 A 
ATOM     42  C   UNL     1     106.042 124.664 148.000  0.00  0.00    +0.000 A 
ATOM     43  C   UNL     1     106.836 124.682 148.223  0.00  0.00    +0.000 A 
ENDBRANCH  35  38
ENDBRANCH  33  34
ENDBRANCH  31  33
ENDBRANCH  26  31
ENDBRANCH  20  28
ENDBRANCH   4  20
BRANCH   5  44
ATOM     44  O   UNL     1     109.701 129.200 140.471  0.00  0.00    +0.000 OA
BRANCH  44  53
ATOM     45  O   UNL     1     110.446 129.769 141.549  0.00  0.00    +0.000 OA
ATOM     46  O   UNL     1     110.519 131.936 140.355  0.00  0.00    +0.000 OA
ATOM     47  O   UNL     1     111.240 131.783 141.832  0.00  0.00    +0.000 OA
ATOM     48  O   UNL     1     109.750 130.644 139.675  0.00  0.00    +0.000 OA
ATOM     49  C   UNL     1     110.495 131.213 140.753  0.00  0.00    +0.000 C 
ATOM     50  C   UNL     1     110.855 131.137 141.492  0.00  0.00    +0.000 C 
ATOM     51  C   UNL     1     110.110 130.567 140.413  0.00  0.00    +0.000 C 
ATOM     52  C   UNL     1     110.831 130.415 141.890  0.00  0.00    +0.000 C 
ATOM     53  C   UNL     1     110.085 129.845 140.811  0.00  0.00    +0.000 C 
ATOM     54  C   UNL     1     111.191 130.338 142.628  0.00  0.00    +0.000 C 
ENDBRANCH  44  53
ENDBRANCH   5  44
TORSDOF 10
ENDMDL
MODEL 6
REMARK VINA RESULT:     -10.6      1.541      6.189
REMARK  Name = 44258883
REMARK  10 active torsions:
REMARK  status: ('A' for Active; 'I' for Inactive)
REMARK    1  A    between atoms: O_3  and  C_21
REMARK    2  A    between atoms: O_3  and  C_36
REMARK    3  A    between atoms: O_4  and  C_23
REMARK    4  A    between atoms: O_4  and  C_31
REMARK    5  A    between atoms: O_7  and  C_28
REMARK    6  A    between atoms: O_7  and  C_32
REMARK    7  A    between atoms: C_22  and  C_29
REMARK    8  A    between atoms: C_34  and  C_41
REMARK    9  A    between atoms: C_36  and  C_42
REMARK   10  A    between atoms: C_45  and  C_49
REMARK                            x       y       z     vdW  Elec       q    Type
REMARK                         _______ _______ _______ _____ _____    ______ ____
ROOT
ATOM      1  O   UNL     1     112.056 130.411 136.916  0.00  0.00    +0.000 OA
ATOM      2  O   UNL     1     111.690 129.657 139.245  0.00  0.00    +0.000 OA
ATOM      3  O   UNL     1     110.654 130.643 139.433  0.00  0.00    +0.000 OA
ATOM      4  C   UNL     1     112.384 129.541 138.001  0.00  0.00    +0.000 A 
ATOM      5  C   UNL     1     110.425 131.809 137.533  0.00  0.00    +0.000 A 
ATOM      6  C   UNL     1     111.812 129.908 138.468  0.00  0.00    +0.000 A 
ATOM      7  C   UNL     1     112.505 129.793 137.224  0.00  0.00    +0.000 A 
ATOM      8  C   UNL     1     111.362 130.527 138.160  0.00  0.00    +0.000 A 
ATOM      9  C   UNL     1     111.484 130.778 137.384  0.00  0.00    +0.000 A 
ATOM     10  C   UNL     1     111.021 131.422 137.050  0.00  0.00    +0.000 A 
ATOM     11  C   UNL     1     110.297 131.547 138.342  0.00  0.00    +0.000 A 
ATOM     12  C   UNL     1     110.769 130.902 138.657  0.00  0.00    +0.000 A 
ENDROOT
BRANCH   7  14
ATOM     13  O   UNL     1     114.792 128.320 135.355  0.00  0.00    +0.000 OA
ATOM     14  C   UNL     1     113.077 129.425 136.757  0.00  0.00    +0.000 A 
ATOM     15  C   UNL     1     113.833 129.751 136.696  0.00  0.00    +0.000 A 
ATOM     16  C   UNL     1     112.893 128.730 136.351  0.00  0.00    +0.000 A 
ATOM     17  C   UNL     1     114.404 129.382 136.229  0.00  0.00    +0.000 A 
ATOM     18  C   UNL     1     113.465 128.363 135.884  0.00  0.00    +0.000 A 
ATOM     19  C   UNL     1     114.220 128.688 135.823  0.00  0.00    +0.000 A 
ENDBRANCH   7  14
BRANCH   4  20
ATOM     20  O   UNL     1     112.834 128.922 138.310  0.00  0.00    +0.000 OA
BRANCH  20  28
ATOM     21  O   UNL     1     113.621 129.746 139.173  0.00  0.00    +0.000 OA
ATOM     22  O   UNL     1     113.755 127.898 140.814  0.00  0.00    +0.000 OA
ATOM     23  O   UNL     1     114.497 129.338 141.130  0.00  0.00    +0.000 OA
ATOM     24  C   UNL     1     113.710 128.514 140.267  0.00  0.00    +0.000 C 
ATOM     25  C   UNL     1     114.081 129.234 140.424  0.00  0.00    +0.000 C 
ATOM     26  C   UNL     1     113.294 128.410 139.561  0.00  0.00    +0.000 C 
ATOM     27  C   UNL     1     114.036 129.850 139.877  0.00  0.00    +0.000 C 
ATOM     28  C   UNL     1     113.249 129.026 139.014  0.00  0.00    +0.000 C 
BRANCH  27  30
ATOM     29  O   UNL     1     114.971 130.867 139.512  0.00  0.00    +0.000 OA
ATOM     30  C   UNL     1     114.407 130.569 140.035  0.00  0.00    +0.000 C 
ENDBRANCH  27  30
BRANCH  26  31
ATOM     31  O   UNL     1     112.923 127.690 139.404  0.00  0.00    +0.000 OA
BRANCH  31  33
ATOM     32  O   UNL     1     113.591 126.676 140.156  0.00  0.00    +0.000 OA
ATOM     33  C   UNL     1     113.356 126.988 139.430  0.00  0.00    +0.000 C 
BRANCH  33  34
ATOM     34  C   UNL     1     113.552 126.600 138.729  0.00  0.00    +0.000 C 
ATOM     35  C   UNL     1     113.323 125.815 138.615  0.00  0.00    +0.000 C 
BRANCH  35  38
ATOM     36  O   UNL     1     112.521 124.440 136.242  0.00  0.00    +0.000 OA
ATOM     37  O   UNL     1     114.104 124.255 135.814  0.00  0.00    +0.000 OA
ATOM     38  C   UNL     1     113.519 125.425 137.915  0.00  0.00    +0.000 A 
ATOM     39  C   UNL     1     112.922 125.127 137.428  0.00  0.00    +0.000 A 
ATOM     40  C   UNL     1     114.311 125.333 137.701  0.00  0.00    +0.000 A 
ATOM     41  C   UNL     1     113.118 124.738 136.728  0.00  0.00    +0.000 A 
ATOM     42  C   UNL     1     114.505 124.943 137.000  0.00  0.00    +0.000 A 
ATOM     43  C   UNL     1     113.910 124.646 136.514  0.00  0.00    +0.000 A 
ENDBRANCH  35  38
ENDBRANCH  33  34
ENDBRANCH  31  33
ENDBRANCH  26  31
ENDBRANCH  20  28
ENDBRANCH   4  20
BRANCH   5  44
ATOM     44  O   UNL     1     109.976 132.427 137.221  0.00  0.00    +0.000 OA
BRANCH  44  53
ATOM     45  O   UNL     1     108.876 131.689 136.686  0.00  0.00    +0.000 OA
ATOM     46  O   UNL     1     108.982 133.036 134.612  0.00  0.00    +0.000 OA
ATOM     47  O   UNL     1     107.846 131.849 134.767  0.00  0.00    +0.000 OA
ATOM     48  O   UNL     1     110.046 133.325 135.839  0.00  0.00    +0.000 OA
ATOM     49  C   UNL     1     108.946 132.587 135.303  0.00  0.00    +0.000 C 
ATOM     50  C   UNL     1     108.379 131.993 135.381  0.00  0.00    +0.000 C 
ATOM     51  C   UNL     1     109.478 132.731 135.917  0.00  0.00    +0.000 C 
ATOM     52  C   UNL     1     108.343 131.544 136.072  0.00  0.00    +0.000 C 
ATOM     53  C   UNL     1     109.444 132.283 136.608  0.00  0.00    +0.000 C 
ATOM     54  C   UNL     1     107.776 130.950 136.150  0.00  0.00    +0.000 C 
ENDBRANCH  44  53
ENDBRANCH   5  44
TORSDOF 10
ENDMDL
MODEL 7
REMARK VINA RESULT:     -10.4      2.892      6.602
REMARK  Name = 44258883
REMARK  10 active torsions:
REMARK  status: ('A' for Active; 'I' for Inactive)
REMARK    1  A    between atoms: O_3  and  C_21
REMARK    2  A    between atoms: O_3  and  C_36
REMARK    3  A    between atoms: O_4  and  C_23
REMARK    4  A    between atoms: O_4  and  C_31
REMARK    5  A    between atoms: O_7  and  C_28
REMARK    6  A    between atoms: O_7  and  C_32
REMARK    7  A    between atoms: C_22  and  C_29
REMARK    8  A    between atoms: C_34  and  C_41
REMARK    9  A    between atoms: C_36  and  C_42
REMARK   10  A    between atoms: C_45  and  C_49
REMARK                            x       y       z     vdW  Elec       q    Type
REMARK                         _______ _______ _______ _____ _____    ______ ____
ROOT
ATOM      1  O   UNL     1     111.602 129.482 143.035  0.00  0.00    +0.000 OA
ATOM      2  O   UNL     1     111.950 131.251 141.338  0.00  0.00    +0.000 OA
ATOM      3  O   UNL     1     112.089 132.252 142.368  0.00  0.00    +0.000 OA
ATOM      4  C   UNL     1     111.710 129.881 141.667  0.00  0.00    +0.000 A 
ATOM      5  C   UNL     1     111.863 131.260 144.364  0.00  0.00    +0.000 A 
ATOM      6  C   UNL     1     111.834 130.661 141.904  0.00  0.00    +0.000 A 
ATOM      7  C   UNL     1     111.594 129.291 142.233  0.00  0.00    +0.000 A 
ATOM      8  C   UNL     1     111.843 130.852 142.707  0.00  0.00    +0.000 A 
ATOM      9  C   UNL     1     111.727 130.263 143.272  0.00  0.00    +0.000 A 
ATOM     10  C   UNL     1     111.734 130.449 144.112  0.00  0.00    +0.000 A 
ATOM     11  C   UNL     1     111.984 131.874 143.775  0.00  0.00    +0.000 A 
ATOM     12  C   UNL     1     111.974 131.669 142.941  0.00  0.00    +0.000 A 
ENDROOT
BRANCH   7  14
ATOM     13  O   UNL     1     111.093 126.171 141.282  0.00  0.00    +0.000 OA
ATOM     14  C   UNL     1     111.469 128.511 141.995  0.00  0.00    +0.000 A 
ATOM     15  C   UNL     1     112.097 127.976 141.991  0.00  0.00    +0.000 A 
ATOM     16  C   UNL     1     110.716 128.267 141.762  0.00  0.00    +0.000 A 
ATOM     17  C   UNL     1     111.971 127.196 141.753  0.00  0.00    +0.000 A 
ATOM     18  C   UNL     1     110.591 127.487 141.525  0.00  0.00    +0.000 A 
ATOM     19  C   UNL     1     111.219 126.951 141.520  0.00  0.00    +0.000 A 
ENDBRANCH   7  14
BRANCH   4  20
ATOM     20  O   UNL     1     111.701 129.690 140.864  0.00  0.00    +0.000 OA
BRANCH  20  28
ATOM     21  O   UNL     1     113.112 129.836 140.694  0.00  0.00    +0.000 OA
ATOM     22  O   UNL     1     112.757 130.536 138.347  0.00  0.00    +0.000 OA
ATOM     23  O   UNL     1     114.287 130.448 138.960  0.00  0.00    +0.000 OA
ATOM     24  C   UNL     1     112.876 130.303 139.130  0.00  0.00    +0.000 C 
ATOM     25  C   UNL     1     113.640 130.259 139.436  0.00  0.00    +0.000 C 
ATOM     26  C   UNL     1     112.229 130.113 139.606  0.00  0.00    +0.000 C 
ATOM     27  C   UNL     1     113.758 130.025 140.219  0.00  0.00    +0.000 C 
ATOM     28  C   UNL     1     112.347 129.879 140.389  0.00  0.00    +0.000 C 
BRANCH  27  30
ATOM     29  O   UNL     1     114.839 129.252 140.745  0.00  0.00    +0.000 OA
ATOM     30  C   UNL     1     114.524 129.981 140.524  0.00  0.00    +0.000 C 
ENDBRANCH  27  30
BRANCH  26  31
ATOM     31  O   UNL     1     111.464 130.157 139.300  0.00  0.00    +0.000 OA
BRANCH  31  33
ATOM     32  O   UNL     1     111.541 128.902 138.622  0.00  0.00    +0.000 OA
ATOM     33  C   UNL     1     111.241 129.668 138.674  0.00  0.00    +0.000 C 
BRANCH  33  34
ATOM     34  C   UNL     1     110.719 129.947 138.099  0.00  0.00    +0.000 C 
ATOM     35  C   UNL     1     110.000 129.561 137.974  0.00  0.00    +0.000 C 
BRANCH  35  38
ATOM     36  O   UNL     1     108.454 129.114 135.613  0.00  0.00    +0.000 OA
ATOM     37  O   UNL     1     107.906 130.669 135.677  0.00  0.00    +0.000 OA
ATOM     38  C   UNL     1     109.477 129.838 137.400  0.00  0.00    +0.000 A 
ATOM     39  C   UNL     1     109.227 129.337 136.793  0.00  0.00    +0.000 A 
ATOM     40  C   UNL     1     109.202 130.616 137.433  0.00  0.00    +0.000 A 
ATOM     41  C   UNL     1     108.704 129.615 136.220  0.00  0.00    +0.000 A 
ATOM     42  C   UNL     1     108.679 130.892 136.858  0.00  0.00    +0.000 A 
ATOM     43  C   UNL     1     108.429 130.392 136.252  0.00  0.00    +0.000 A 
ENDBRANCH  35  38
ENDBRANCH  33  34
ENDBRANCH  31  33
ENDBRANCH  26  31
ENDBRANCH  20  28
ENDBRANCH   4  20
BRANCH   5  44
ATOM     44  O   UNL     1     111.871 131.448 145.168  0.00  0.00    +0.000 OA
BRANCH  44  53
ATOM     45  O   UNL     1     110.471 131.672 145.342  0.00  0.00    +0.000 OA
ATOM     46  O   UNL     1     110.962 133.622 146.784  0.00  0.00    +0.000 OA
ATOM     47  O   UNL     1     109.398 133.197 146.477  0.00  0.00    +0.000 OA
ATOM     48  O   UNL     1     112.199 132.748 146.129  0.00  0.00    +0.000 OA
ATOM     49  C   UNL     1     110.798 132.972 146.303  0.00  0.00    +0.000 C 
ATOM     50  C   UNL     1     110.016 132.760 146.150  0.00  0.00    +0.000 C 
ATOM     51  C   UNL     1     111.416 132.535 145.976  0.00  0.00    +0.000 C 
ATOM     52  C   UNL     1     109.852 132.110 145.669  0.00  0.00    +0.000 C 
ATOM     53  C   UNL     1     111.253 131.885 145.495  0.00  0.00    +0.000 C 
ATOM     54  C   UNL     1     109.070 131.897 145.516  0.00  0.00    +0.000 C 
ENDBRANCH  44  53
ENDBRANCH   5  44
TORSDOF 10
ENDMDL
MODEL 8
REMARK VINA RESULT:     -10.4      1.945      6.714
REMARK  Name = 44258883
REMARK  10 active torsions:
REMARK  status: ('A' for Active; 'I' for Inactive)
REMARK    1  A    between atoms: O_3  and  C_21
REMARK    2  A    between atoms: O_3  and  C_36
REMARK    3  A    between atoms: O_4  and  C_23
REMARK    4  A    between atoms: O_4  and  C_31
REMARK    5  A    between atoms: O_7  and  C_28
REMARK    6  A    between atoms: O_7  and  C_32
REMARK    7  A    between atoms: C_22  and  C_29
REMARK    8  A    between atoms: C_34  and  C_41
REMARK    9  A    between atoms: C_36  and  C_42
REMARK   10  A    between atoms: C_45  and  C_49
REMARK                            x       y       z     vdW  Elec       q    Type
REMARK                         _______ _______ _______ _____ _____    ______ ____
ROOT
ATOM      1  O   UNL     1     109.597 128.664 137.009  0.00  0.00    +0.000 OA
ATOM      2  O   UNL     1     110.643 128.925 139.238  0.00  0.00    +0.000 OA
ATOM      3  O   UNL     1     109.964 130.181 139.441  0.00  0.00    +0.000 OA
ATOM      4  C   UNL     1     110.462 128.173 138.036  0.00  0.00    +0.000 A 
ATOM      5  C   UNL     1     108.710 130.617 137.636  0.00  0.00    +0.000 A 
ATOM      6  C   UNL     1     110.294 128.838 138.494  0.00  0.00    +0.000 A 
ATOM      7  C   UNL     1     110.113 128.086 137.292  0.00  0.00    +0.000 A 
ATOM      8  C   UNL     1     109.777 129.415 138.211  0.00  0.00    +0.000 A 
ATOM      9  C   UNL     1     109.429 129.328 137.469  0.00  0.00    +0.000 A 
ATOM     10  C   UNL     1     108.889 129.923 137.162  0.00  0.00    +0.000 A 
ATOM     11  C   UNL     1     109.074 130.707 138.410  0.00  0.00    +0.000 A 
ATOM     12  C   UNL     1     109.611 130.103 138.699  0.00  0.00    +0.000 A 
ENDROOT
BRANCH   7  14
ATOM     13  O   UNL     1     110.789 125.429 135.456  0.00  0.00    +0.000 OA
ATOM     14  C   UNL     1     110.282 127.422 136.834  0.00  0.00    +0.000 A 
ATOM     15  C   UNL     1     109.760 126.782 136.826  0.00  0.00    +0.000 A 
ATOM     16  C   UNL     1     110.972 127.397 136.382  0.00  0.00    +0.000 A 
ATOM     17  C   UNL     1     109.930 126.118 136.367  0.00  0.00    +0.000 A 
ATOM     18  C   UNL     1     111.140 126.732 135.923  0.00  0.00    +0.000 A 
ATOM     19  C   UNL     1     110.619 126.093 135.916  0.00  0.00    +0.000 A 
ENDBRANCH   7  14
BRANCH   4  20
ATOM     20  O   UNL     1     110.979 127.596 138.319  0.00  0.00    +0.000 OA
BRANCH  20  28
ATOM     21  O   UNL     1     110.045 127.047 139.250  0.00  0.00    +0.000 OA
ATOM     22  O   UNL     1     111.909 126.427 140.755  0.00  0.00    +0.000 OA
ATOM     23  O   UNL     1     110.354 126.084 141.185  0.00  0.00    +0.000 OA
ATOM     24  C   UNL     1     111.288 126.634 140.254  0.00  0.00    +0.000 C 
ATOM     25  C   UNL     1     110.510 126.463 140.468  0.00  0.00    +0.000 C 
ATOM     26  C   UNL     1     111.444 127.012 139.537  0.00  0.00    +0.000 C 
ATOM     27  C   UNL     1     109.888 126.669 139.966  0.00  0.00    +0.000 C 
ATOM     28  C   UNL     1     110.823 127.218 139.035  0.00  0.00    +0.000 C 
BRANCH  27  30
ATOM     29  O   UNL     1     108.660 125.980 139.725  0.00  0.00    +0.000 OA
ATOM     30  C   UNL     1     109.111 126.497 140.182  0.00  0.00    +0.000 C 
ENDBRANCH  27  30
BRANCH  26  31
ATOM     31  O   UNL     1     112.222 127.183 139.322  0.00  0.00    +0.000 OA
BRANCH  31  33
ATOM     32  O   UNL     1     113.190 126.458 140.082  0.00  0.00    +0.000 OA
ATOM     33  C   UNL     1     112.802 126.597 139.368  0.00  0.00    +0.000 C 
BRANCH  33  34
ATOM     34  C   UNL     1     112.991 126.152 138.700  0.00  0.00    +0.000 C 
ATOM     35  C   UNL     1     113.778 126.078 138.464  0.00  0.00    +0.000 C 
BRANCH  35  38
ATOM     36  O   UNL     1     115.127 125.835 135.956  0.00  0.00    +0.000 OA
ATOM     37  O   UNL     1     114.543 124.300 135.791  0.00  0.00    +0.000 OA
ATOM     38  C   UNL     1     113.969 125.633 137.796  0.00  0.00    +0.000 A 
ATOM     39  C   UNL     1     114.453 125.957 137.210  0.00  0.00    +0.000 A 
ATOM     40  C   UNL     1     113.677 124.866 137.713  0.00  0.00    +0.000 A 
ATOM     41  C   UNL     1     114.644 125.512 136.542  0.00  0.00    +0.000 A 
ATOM     42  C   UNL     1     113.869 124.422 137.045  0.00  0.00    +0.000 A 
ATOM     43  C   UNL     1     114.352 124.744 136.459  0.00  0.00    +0.000 A 
ENDBRANCH  35  38
ENDBRANCH  33  34
ENDBRANCH  31  33
ENDBRANCH  26  31
ENDBRANCH  20  28
ENDBRANCH   4  20
BRANCH   5  44
ATOM     44  O   UNL     1     108.193 131.192 137.350  0.00  0.00    +0.000 OA
BRANCH  44  53
ATOM     45  O   UNL     1     109.101 132.012 136.612  0.00  0.00    +0.000 OA
ATOM     46  O   UNL     1     107.507 132.076 134.720  0.00  0.00    +0.000 OA
ATOM     47  O   UNL     1     108.947 132.874 134.612  0.00  0.00    +0.000 OA
ATOM     48  O   UNL     1     107.130 131.235 136.089  0.00  0.00    +0.000 OA
ATOM     49  C   UNL     1     108.039 132.055 135.351  0.00  0.00    +0.000 C 
ATOM     50  C   UNL     1     108.759 132.454 135.297  0.00  0.00    +0.000 C 
ATOM     51  C   UNL     1     107.850 131.634 136.035  0.00  0.00    +0.000 C 
ATOM     52  C   UNL     1     109.290 132.433 135.927  0.00  0.00    +0.000 C 
ATOM     53  C   UNL     1     108.381 131.613 136.666  0.00  0.00    +0.000 C 
ATOM     54  C   UNL     1     110.010 132.832 135.873  0.00  0.00    +0.000 C 
ENDBRANCH  44  53
ENDBRANCH   5  44
TORSDOF 10
ENDMDL
MODEL 9
REMARK VINA RESULT:     -10.4      1.831      3.115
REMARK  Name = 44258883
REMARK  10 active torsions:
REMARK  status: ('A' for Active; 'I' for Inactive)
REMARK    1  A    between atoms: O_3  and  C_21
REMARK    2  A    between atoms: O_3  and  C_36
REMARK    3  A    between atoms: O_4  and  C_23
REMARK    4  A    between atoms: O_4  and  C_31
REMARK    5  A    between atoms: O_7  and  C_28
REMARK    6  A    between atoms: O_7  and  C_32
REMARK    7  A    between atoms: C_22  and  C_29
REMARK    8  A    between atoms: C_34  and  C_41
REMARK    9  A    between atoms: C_36  and  C_42
REMARK   10  A    between atoms: C_45  and  C_49
REMARK                            x       y       z     vdW  Elec       q    Type
REMARK                         _______ _______ _______ _____ _____    ______ ____
ROOT
ATOM      1  O   UNL     1     112.510 128.727 137.664  0.00  0.00    +0.000 OA
ATOM      2  O   UNL     1     112.465 128.285 140.100  0.00  0.00    +0.000 OA
ATOM      3  O   UNL     1     113.030 126.972 139.901  0.00  0.00    +0.000 OA
ATOM      4  C   UNL     1     112.208 129.154 138.994  0.00  0.00    +0.000 A 
ATOM      5  C   UNL     1     113.364 126.662 137.707  0.00  0.00    +0.000 A 
ATOM      6  C   UNL     1     112.480 128.432 139.287  0.00  0.00    +0.000 A 
ATOM      7  C   UNL     1     112.223 129.301 138.182  0.00  0.00    +0.000 A 
ATOM      8  C   UNL     1     112.767 127.858 138.769  0.00  0.00    +0.000 A 
ATOM      9  C   UNL     1     112.782 128.005 137.958  0.00  0.00    +0.000 A 
ATOM     10  C   UNL     1     113.079 127.415 137.407  0.00  0.00    +0.000 A 
ATOM     11  C   UNL     1     113.349 126.509 138.553  0.00  0.00    +0.000 A 
ATOM     12  C   UNL     1     113.048 127.111 139.087  0.00  0.00    +0.000 A 
ENDROOT
BRANCH   7  14
ATOM     13  O   UNL     1     111.130 132.186 137.011  0.00  0.00    +0.000 OA
ATOM     14  C   UNL     1     111.950 130.022 137.889  0.00  0.00    +0.000 A 
ATOM     15  C   UNL     1     112.488 130.609 137.671  0.00  0.00    +0.000 A 
ATOM     16  C   UNL     1     111.139 130.157 137.815  0.00  0.00    +0.000 A 
ATOM     17  C   UNL     1     112.214 131.330 137.378  0.00  0.00    +0.000 A 
ATOM     18  C   UNL     1     110.867 130.878 137.522  0.00  0.00    +0.000 A 
ATOM     19  C   UNL     1     111.404 131.465 137.304  0.00  0.00    +0.000 A 
ENDBRANCH   7  14
BRANCH   4  20
ATOM     20  O   UNL     1     111.921 129.728 139.513  0.00  0.00    +0.000 OA
BRANCH  20  28
ATOM     21  O   UNL     1     113.199 130.130 140.007  0.00  0.00    +0.000 OA
ATOM     22  O   UNL     1     112.205 130.552 142.234  0.00  0.00    +0.000 OA
ATOM     23  O   UNL     1     113.815 130.814 141.987  0.00  0.00    +0.000 OA
ATOM     24  C   UNL     1     112.537 130.412 141.492  0.00  0.00    +0.000 C 
ATOM     25  C   UNL     1     113.341 130.542 141.367  0.00  0.00    +0.000 C 
ATOM     26  C   UNL     1     112.063 130.140 140.873  0.00  0.00    +0.000 C 
ATOM     27  C   UNL     1     113.673 130.401 140.625  0.00  0.00    +0.000 C 
ATOM     28  C   UNL     1     112.394 129.999 140.130  0.00  0.00    +0.000 C 
BRANCH  27  30
ATOM     29  O   UNL     1     114.726 131.107 139.965  0.00  0.00    +0.000 OA
ATOM     30  C   UNL     1     114.478 130.532 140.502  0.00  0.00    +0.000 C 
ENDBRANCH  27  30
BRANCH  26  31
ATOM     31  O   UNL     1     111.258 130.009 140.997  0.00  0.00    +0.000 OA
BRANCH  31  33
ATOM     32  O   UNL     1     110.975 131.407 140.921  0.00  0.00    +0.000 OA
ATOM     33  C   UNL     1     110.754 130.646 141.147  0.00  0.00    +0.000 C 
BRANCH  33  34
ATOM     34  C   UNL     1     110.031 130.519 141.522  0.00  0.00    +0.000 C 
ATOM     35  C   UNL     1     109.327 130.718 141.139  0.00  0.00    +0.000 C 
BRANCH  35  38
ATOM     36  O   UNL     1     106.708 129.575 141.138  0.00  0.00    +0.000 OA
ATOM     37  O   UNL     1     106.429 130.212 142.635  0.00  0.00    +0.000 OA
ATOM     38  C   UNL     1     108.603 130.592 141.514  0.00  0.00    +0.000 A 
ATOM     39  C   UNL     1     108.017 130.146 141.139  0.00  0.00    +0.000 A 
ATOM     40  C   UNL     1     108.464 130.910 142.262  0.00  0.00    +0.000 A 
ATOM     41  C   UNL     1     107.293 130.020 141.513  0.00  0.00    +0.000 A 
ATOM     42  C   UNL     1     107.739 130.783 142.635  0.00  0.00    +0.000 A 
ATOM     43  C   UNL     1     107.154 130.339 142.261  0.00  0.00    +0.000 A 
ENDBRANCH  35  38
ENDBRANCH  33  34
ENDBRANCH  31  33
ENDBRANCH  26  31
ENDBRANCH  20  28
ENDBRANCH   4  20
BRANCH   5  44
ATOM     44  O   UNL     1     113.651 126.090 137.187  0.00  0.00    +0.000 OA
BRANCH  44  53
ATOM     45  O   UNL     1     112.425 125.620 136.623  0.00  0.00    +0.000 OA
ATOM     46  O   UNL     1     113.190 123.283 136.907  0.00  0.00    +0.000 OA
ATOM     47  O   UNL     1     111.708 123.592 136.249  0.00  0.00    +0.000 OA
ATOM     48  O   UNL     1     114.160 124.532 137.376  0.00  0.00    +0.000 OA
ATOM     49  C   UNL     1     112.934 124.062 136.812  0.00  0.00    +0.000 C 
ATOM     50  C   UNL     1     112.194 124.216 136.483  0.00  0.00    +0.000 C 
ATOM     51  C   UNL     1     113.420 124.687 137.047  0.00  0.00    +0.000 C 
ATOM     52  C   UNL     1     111.939 124.995 136.389  0.00  0.00    +0.000 C 
ATOM     53  C   UNL     1     113.165 125.465 136.952  0.00  0.00    +0.000 C 
ATOM     54  C   UNL     1     111.198 125.149 136.059  0.00  0.00    +0.000 C 
ENDBRANCH  44  53
ENDBRANCH   5  44
TORSDOF 10
ENDMDL
MODEL 10
REMARK VINA RESULT:     -10.3      2.401      5.196
REMARK  Name = 44258883
REMARK  10 active torsions:
REMARK  status: ('A' for Active; 'I' for Inactive)
REMARK    1  A    between atoms: O_3  and  C_21
REMARK    2  A    between atoms: O_3  and  C_36
REMARK    3  A    between atoms: O_4  and  C_23
REMARK    4  A    between atoms: O_4  and  C_31
REMARK    5  A    between atoms: O_7  and  C_28
REMARK    6  A    between atoms: O_7  and  C_32
REMARK    7  A    between atoms: C_22  and  C_29
REMARK    8  A    between atoms: C_34  and  C_41
REMARK    9  A    between atoms: C_36  and  C_42
REMARK   10  A    between atoms: C_45  and  C_49
REMARK                            x       y       z     vdW  Elec       q    Type
REMARK                         _______ _______ _______ _____ _____    ______ ____
ROOT
ATOM      1  O   UNL     1     111.239 128.605 139.769  0.00  0.00    +0.000 OA
ATOM      2  O   UNL     1     113.020 128.742 141.483  0.00  0.00    +0.000 OA
ATOM      3  O   UNL     1     113.345 127.349 141.298  0.00  0.00    +0.000 OA
ATOM      4  C   UNL     1     111.979 129.365 140.728  0.00  0.00    +0.000 A 
ATOM      5  C   UNL     1     111.988 126.500 139.730  0.00  0.00    +0.000 A 
ATOM      6  C   UNL     1     112.426 128.696 140.912  0.00  0.00    +0.000 A 
ATOM      7  C   UNL     1     111.385 129.319 140.157  0.00  0.00    +0.000 A 
ATOM      8  C   UNL     1     112.280 127.983 140.524  0.00  0.00    +0.000 A 
ATOM      9  C   UNL     1     111.687 127.937 139.954  0.00  0.00    +0.000 A 
ATOM     10  C   UNL     1     111.525 127.200 139.543  0.00  0.00    +0.000 A 
ATOM     11  C   UNL     1     112.607 126.548 140.326  0.00  0.00    +0.000 A 
ATOM     12  C   UNL     1     112.753 127.294 140.725  0.00  0.00    +0.000 A 
ENDROOT
BRANCH   7  14
ATOM     13  O   UNL     1     109.594 131.993 139.425  0.00  0.00    +0.000 OA
ATOM     14  C   UNL     1     110.938 129.988 139.973  0.00  0.00    +0.000 A 
ATOM     15  C   UNL     1     111.103 130.420 139.291  0.00  0.00    +0.000 A 
ATOM     16  C   UNL     1     110.324 130.223 140.473  0.00  0.00    +0.000 A 
ATOM     17  C   UNL     1     110.655 131.089 139.108  0.00  0.00    +0.000 A 
ATOM     18  C   UNL     1     109.877 130.891 140.290  0.00  0.00    +0.000 A 
ATOM     19  C   UNL     1     110.042 131.324 139.607  0.00  0.00    +0.000 A 
ENDBRANCH   7  14
BRANCH   4  20
ATOM     20  O   UNL     1     112.125 130.079 141.115  0.00  0.00    +0.000 OA
BRANCH  20  28
ATOM     21  O   UNL     1     113.328 130.353 140.395  0.00  0.00    +0.000 OA
ATOM     22  O   UNL     1     114.218 131.582 142.350  0.00  0.00    +0.000 OA
ATOM     23  O   UNL     1     115.125 131.447 140.979  0.00  0.00    +0.000 OA
ATOM     24  C   UNL     1     113.922 131.172 141.699  0.00  0.00    +0.000 C 
ATOM     25  C   UNL     1     114.374 131.104 141.013  0.00  0.00    +0.000 C 
ATOM     26  C   UNL     1     113.171 130.830 141.733  0.00  0.00    +0.000 C 
ATOM     27  C   UNL     1     114.078 130.695 140.361  0.00  0.00    +0.000 C 
ATOM     28  C   UNL     1     112.874 130.420 141.081  0.00  0.00    +0.000 C 
BRANCH  27  30
ATOM     29  O   UNL     1     114.261 130.952 138.967  0.00  0.00    +0.000 OA
ATOM     30  C   UNL     1     114.532 130.627 139.675  0.00  0.00    +0.000 C 
ENDBRANCH  27  30
BRANCH  26  31
ATOM     31  O   UNL     1     112.718 130.898 142.419  0.00  0.00    +0.000 OA
BRANCH  31  33
ATOM     32  O   UNL     1     112.262 132.221 142.134  0.00  0.00    +0.000 OA
ATOM     33  C   UNL     1     112.473 131.641 142.680  0.00  0.00    +0.000 C 
BRANCH  33  34
ATOM     34  C   UNL     1     112.440 131.803 143.489  0.00  0.00    +0.000 C 
ATOM     35  C   UNL     1     111.770 132.163 143.809  0.00  0.00    +0.000 C 
BRANCH  35  38
ATOM     36  O   UNL     1     111.328 134.011 145.944  0.00  0.00    +0.000 OA
ATOM     37  O   UNL     1     111.630 132.816 147.041  0.00  0.00    +0.000 OA
ATOM     38  C   UNL     1     111.735 132.325 144.617  0.00  0.00    +0.000 A 
ATOM     39  C   UNL     1     111.549 133.087 144.876  0.00  0.00    +0.000 A 
ATOM     40  C   UNL     1     111.886 131.728 145.165  0.00  0.00    +0.000 A 
ATOM     41  C   UNL     1     111.514 133.250 145.684  0.00  0.00    +0.000 A 
ATOM     42  C   UNL     1     111.851 131.892 145.973  0.00  0.00    +0.000 A 
ATOM     43  C   UNL     1     111.665 132.652 146.233  0.00  0.00    +0.000 A 
ENDBRANCH  35  38
ENDBRANCH  33  34
ENDBRANCH  31  33
ENDBRANCH  26  31
ENDBRANCH  20  28
ENDBRANCH   4  20
BRANCH   5  44
ATOM     44  O   UNL     1     111.840 125.788 139.341  0.00  0.00    +0.000 OA
BRANCH  44  53
ATOM     45  O   UNL     1     112.932 125.827 138.421  0.00  0.00    +0.000 OA
ATOM     46  O   UNL     1     111.458 124.952 136.635  0.00  0.00    +0.000 OA
ATOM     47  O   UNL     1     113.042 125.283 136.310  0.00  0.00    +0.000 OA
ATOM     48  O   UNL     1     110.858 125.205 138.151  0.00  0.00    +0.000 OA
ATOM     49  C   UNL     1     111.950 125.244 137.230  0.00  0.00    +0.000 C 
ATOM     50  C   UNL     1     112.742 125.409 137.067  0.00  0.00    +0.000 C 
ATOM     51  C   UNL     1     111.649 125.370 137.988  0.00  0.00    +0.000 C 
ATOM     52  C   UNL     1     113.233 125.700 137.663  0.00  0.00    +0.000 C 
ATOM     53  C   UNL     1     112.140 125.662 138.583  0.00  0.00    +0.000 C 
ATOM     54  C   UNL     1     114.025 125.866 137.500  0.00  0.00    +0.000 C 
ENDBRANCH  44  53
ENDBRANCH   5  44
TORSDOF 10
ENDMDL
