MODEL 1
REMARK VINA RESULT:      -9.0      0.000      0.000
REMARK  Name = 44258500
REMARK  6 active torsions:
REMARK  status: ('A' for Active; 'I' for Inactive)
REMARK    1  A    between atoms: O_4  and  C_16
REMARK    2  A    between atoms: O_4  and  C_19
REMARK    3  A    between atoms: O_8  and  C_32
REMARK    4  A    between atoms: O_9  and  C_33
REMARK    5  A    between atoms: C_13  and  C_17
REMARK    6  A    between atoms: C_22  and  C_25
REMARK                            x       y       z     vdW  Elec       q    Type
REMARK                         _______ _______ _______ _____ _____    ______ ____
ROOT
ATOM      1  O   UNL     1     107.442 127.958 145.061  0.00  0.00    +0.000 OA
ATOM      2  C   UNL     1     106.541 126.849 145.089  0.00  0.00    +0.000 A 
ATOM      3  C   UNL     1     106.781 127.568 144.760  0.00  0.00    +0.000 A 
ATOM      4  C   UNL     1     105.880 126.459 144.788  0.00  0.00    +0.000 A 
ATOM      5  C   UNL     1     105.698 127.504 143.830  0.00  0.00    +0.000 A 
ATOM      6  C   UNL     1     106.360 127.895 144.131  0.00  0.00    +0.000 A 
ATOM      7  C   UNL     1     105.458 126.786 144.158  0.00  0.00    +0.000 A 
ENDROOT
BRANCH   5  11
ATOM      8  O   UNL     1     104.775 128.516 143.326  0.00  0.00    +0.000 OA
ATOM      9  O   UNL     1     104.033 128.521 140.529  0.00  0.00    +0.000 OA
ATOM     10  O   UNL     1     104.946 127.512 141.008  0.00  0.00    +0.000 OA
ATOM     11  C   UNL     1     105.277 127.831 143.201  0.00  0.00    +0.000 A 
ATOM     12  C   UNL     1     104.397 128.521 141.911  0.00  0.00    +0.000 A 
ATOM     13  C   UNL     1     104.339 128.851 142.665  0.00  0.00    +0.000 A 
ATOM     14  C   UNL     1     105.337 127.488 142.415  0.00  0.00    +0.000 A 
ATOM     15  C   UNL     1     104.894 127.835 141.766  0.00  0.00    +0.000 A 
ATOM     16  C   UNL     1     103.975 128.850 141.284  0.00  0.00    +0.000 A 
ATOM     17  C   UNL     1     103.859 129.509 142.791  0.00  0.00    +0.000 A 
ATOM     18  C   UNL     1     103.494 129.509 141.410  0.00  0.00    +0.000 A 
ATOM     19  C   UNL     1     103.436 129.839 142.164  0.00  0.00    +0.000 A 
BRANCH  18  20
ATOM     20  O   UNL     1     103.071 129.838 140.783  0.00  0.00    +0.000 OA
ATOM     21  C   UNL     1     102.383 129.472 140.512  0.00  0.00    +0.000 C 
ENDBRANCH  18  20
BRANCH  19  22
ATOM     22  O   UNL     1     102.956 130.497 142.292  0.00  0.00    +0.000 OA
ATOM     23  C   UNL     1     103.008 130.915 143.001  0.00  0.00    +0.000 C 
ENDBRANCH  19  22
ENDBRANCH   5  11
BRANCH   2  24
ATOM     24  O   UNL     1     106.962 126.522 145.718  0.00  0.00    +0.000 OA
BRANCH  24  33
ATOM     25  O   UNL     1     106.041 126.733 146.790  0.00  0.00    +0.000 OA
ATOM     26  O   UNL     1     105.355 125.391 148.369  0.00  0.00    +0.000 OA
ATOM     27  O   UNL     1     106.394 124.404 147.551  0.00  0.00    +0.000 OA
ATOM     28  O   UNL     1     107.198 124.970 146.225  0.00  0.00    +0.000 OA
ATOM     29  C   UNL     1     105.757 125.674 147.705  0.00  0.00    +0.000 C 
ATOM     30  C   UNL     1     105.639 126.450 147.452  0.00  0.00    +0.000 C 
ATOM     31  C   UNL     1     106.276 125.180 147.297  0.00  0.00    +0.000 C 
ATOM     32  C   UNL     1     106.678 125.464 146.635  0.00  0.00    +0.000 C 
ATOM     33  C   UNL     1     106.560 126.240 146.381  0.00  0.00    +0.000 C 
BRANCH  30  34
ATOM     34  C   UNL     1     105.119 126.943 147.861  0.00  0.00    +0.000 C 
ATOM     35  C   UNL     1     105.368 127.689 148.110  0.00  0.00    +0.000 C 
ENDBRANCH  30  34
ENDBRANCH  24  33
ENDBRANCH   2  24
TORSDOF 6
ENDMDL
MODEL 2
REMARK VINA RESULT:      -8.9      9.062     10.806
REMARK  Name = 44258500
REMARK  6 active torsions:
REMARK  status: ('A' for Active; 'I' for Inactive)
REMARK    1  A    between atoms: O_4  and  C_16
REMARK    2  A    between atoms: O_4  and  C_19
REMARK    3  A    between atoms: O_8  and  C_32
REMARK    4  A    between atoms: O_9  and  C_33
REMARK    5  A    between atoms: C_13  and  C_17
REMARK    6  A    between atoms: C_22  and  C_25
REMARK                            x       y       z     vdW  Elec       q    Type
REMARK                         _______ _______ _______ _____ _____    ______ ____
ROOT
ATOM      1  O   UNL     1     110.012 129.900 134.612  0.00  0.00    +0.000 OA
ATOM      2  C   UNL     1     109.347 129.658 135.854  0.00  0.00    +0.000 A 
ATOM      3  C   UNL     1     109.848 129.402 135.249  0.00  0.00    +0.000 A 
ATOM      4  C   UNL     1     109.183 129.161 136.491  0.00  0.00    +0.000 A 
ATOM      5  C   UNL     1     110.020 128.153 135.921  0.00  0.00    +0.000 A 
ATOM      6  C   UNL     1     110.185 128.650 135.283  0.00  0.00    +0.000 A 
ATOM      7  C   UNL     1     109.520 128.408 136.525  0.00  0.00    +0.000 A 
ENDROOT
BRANCH   5  11
ATOM      8  O   UNL     1     111.030 127.250 136.466  0.00  0.00    +0.000 OA
ATOM      9  O   UNL     1     111.095 124.485 135.616  0.00  0.00    +0.000 OA
ATOM     10  O   UNL     1     110.090 125.362 135.066  0.00  0.00    +0.000 OA
ATOM     11  C   UNL     1     110.356 127.401 135.955  0.00  0.00    +0.000 A 
ATOM     12  C   UNL     1     111.065 125.850 136.038  0.00  0.00    +0.000 A 
ATOM     13  C   UNL     1     111.374 126.463 136.496  0.00  0.00    +0.000 A 
ATOM     14  C   UNL     1     110.035 126.761 135.478  0.00  0.00    +0.000 A 
ATOM     15  C   UNL     1     110.392 125.981 135.520  0.00  0.00    +0.000 A 
ATOM     16  C   UNL     1     111.404 125.098 136.074  0.00  0.00    +0.000 A 
ATOM     17  C   UNL     1     112.020 126.325 136.988  0.00  0.00    +0.000 A 
ATOM     18  C   UNL     1     112.050 124.960 136.567  0.00  0.00    +0.000 A 
ATOM     19  C   UNL     1     112.359 125.573 137.025  0.00  0.00    +0.000 A 
BRANCH  18  20
ATOM     20  O   UNL     1     112.389 124.208 136.603  0.00  0.00    +0.000 OA
ATOM     21  C   UNL     1     112.004 123.602 137.009  0.00  0.00    +0.000 C 
ENDBRANCH  18  20
BRANCH  19  22
ATOM     22  O   UNL     1     113.005 125.436 137.518  0.00  0.00    +0.000 OA
ATOM     23  C   UNL     1     113.407 126.071 137.859  0.00  0.00    +0.000 C 
ENDBRANCH  19  22
ENDBRANCH   5  11
BRANCH   2  24
ATOM     24  O   UNL     1     109.011 130.411 135.820  0.00  0.00    +0.000 OA
BRANCH  24  33
ATOM     25  O   UNL     1     109.853 131.106 136.741  0.00  0.00    +0.000 OA
ATOM     26  O   UNL     1     109.367 132.492 138.356  0.00  0.00    +0.000 OA
ATOM     27  O   UNL     1     107.861 132.142 137.782  0.00  0.00    +0.000 OA
ATOM     28  O   UNL     1     107.682 131.101 136.513  0.00  0.00    +0.000 OA
ATOM     29  C   UNL     1     109.278 131.971 137.722  0.00  0.00    +0.000 C 
ATOM     30  C   UNL     1     109.943 131.626 137.375  0.00  0.00    +0.000 C 
ATOM     31  C   UNL     1     108.525 131.796 137.435  0.00  0.00    +0.000 C 
ATOM     32  C   UNL     1     108.437 131.276 136.801  0.00  0.00    +0.000 C 
ATOM     33  C   UNL     1     109.101 130.931 136.454  0.00  0.00    +0.000 C 
BRANCH  30  34
ATOM     34  C   UNL     1     110.696 131.801 137.663  0.00  0.00    +0.000 C 
ATOM     35  C   UNL     1     111.270 132.105 137.155  0.00  0.00    +0.000 C 
ENDBRANCH  30  34
ENDBRANCH  24  33
ENDBRANCH   2  24
TORSDOF 6
ENDMDL
MODEL 3
REMARK VINA RESULT:      -8.9      9.907     11.500
REMARK  Name = 44258500
REMARK  6 active torsions:
REMARK  status: ('A' for Active; 'I' for Inactive)
REMARK    1  A    between atoms: O_4  and  C_16
REMARK    2  A    between atoms: O_4  and  C_19
REMARK    3  A    between atoms: O_8  and  C_32
REMARK    4  A    between atoms: O_9  and  C_33
REMARK    5  A    between atoms: C_13  and  C_17
REMARK    6  A    between atoms: C_22  and  C_25
REMARK                            x       y       z     vdW  Elec       q    Type
REMARK                         _______ _______ _______ _____ _____    ______ ____
ROOT
ATOM      1  O   UNL     1     112.711 129.791 135.178  0.00  0.00    +0.000 OA
ATOM      2  C   UNL     1     112.039 129.773 136.439  0.00  0.00    +0.000 A 
ATOM      3  C   UNL     1     112.366 129.369 135.797  0.00  0.00    +0.000 A 
ATOM      4  C   UNL     1     111.694 129.351 137.058  0.00  0.00    +0.000 A 
ATOM      5  C   UNL     1     112.003 128.124 136.396  0.00  0.00    +0.000 A 
ATOM      6  C   UNL     1     112.348 128.545 135.775  0.00  0.00    +0.000 A 
ATOM      7  C   UNL     1     111.676 128.526 137.036  0.00  0.00    +0.000 A 
ENDROOT
BRANCH   5  11
ATOM      8  O   UNL     1     112.647 126.843 136.679  0.00  0.00    +0.000 OA
ATOM      9  O   UNL     1     111.298 124.375 136.002  0.00  0.00    +0.000 OA
ATOM     10  O   UNL     1     110.646 125.629 135.714  0.00  0.00    +0.000 OA
ATOM     11  C   UNL     1     111.985 127.299 136.374  0.00  0.00    +0.000 A 
ATOM     12  C   UNL     1     111.966 125.592 136.338  0.00  0.00    +0.000 A 
ATOM     13  C   UNL     1     112.620 125.985 136.653  0.00  0.00    +0.000 A 
ATOM     14  C   UNL     1     111.304 126.889 136.045  0.00  0.00    +0.000 A 
ATOM     15  C   UNL     1     111.295 126.030 136.027  0.00  0.00    +0.000 A 
ATOM     16  C   UNL     1     111.951 124.768 136.317  0.00  0.00    +0.000 A 
ATOM     17  C   UNL     1     113.257 125.553 136.947  0.00  0.00    +0.000 A 
ATOM     18  C   UNL     1     112.590 124.336 136.612  0.00  0.00    +0.000 A 
ATOM     19  C   UNL     1     113.243 124.729 136.928  0.00  0.00    +0.000 A 
BRANCH  18  20
ATOM     20  O   UNL     1     112.574 123.511 136.592  0.00  0.00    +0.000 OA
ATOM     21  C   UNL     1     112.129 123.093 137.146  0.00  0.00    +0.000 C 
ENDBRANCH  18  20
BRANCH  19  22
ATOM     22  O   UNL     1     113.881 124.298 137.222  0.00  0.00    +0.000 OA
ATOM     23  C   UNL     1     114.606 124.670 137.352  0.00  0.00    +0.000 C 
ENDBRANCH  19  22
ENDBRANCH   5  11
BRANCH   2  24
ATOM     24  O   UNL     1     112.057 130.597 136.460  0.00  0.00    +0.000 OA
BRANCH  24  33
ATOM     25  O   UNL     1     110.679 130.880 136.210  0.00  0.00    +0.000 OA
ATOM     26  O   UNL     1     109.312 132.288 137.165  0.00  0.00    +0.000 OA
ATOM     27  O   UNL     1     110.696 132.568 138.019  0.00  0.00    +0.000 OA
ATOM     28  O   UNL     1     112.068 131.723 137.667  0.00  0.00    +0.000 OA
ATOM     29  C   UNL     1     109.999 131.865 136.989  0.00  0.00    +0.000 C 
ATOM     30  C   UNL     1     109.993 131.302 136.386  0.00  0.00    +0.000 C 
ATOM     31  C   UNL     1     110.690 132.005 137.416  0.00  0.00    +0.000 C 
ATOM     32  C   UNL     1     111.376 131.582 137.239  0.00  0.00    +0.000 C 
ATOM     33  C   UNL     1     111.370 131.020 136.636  0.00  0.00    +0.000 C 
BRANCH  30  34
ATOM     34  C   UNL     1     109.301 131.163 135.959  0.00  0.00    +0.000 C 
ATOM     35  C   UNL     1     109.304 131.227 135.136  0.00  0.00    +0.000 C 
ENDBRANCH  30  34
ENDBRANCH  24  33
ENDBRANCH   2  24
TORSDOF 6
ENDMDL
MODEL 4
REMARK VINA RESULT:      -8.8      8.533      9.696
REMARK  Name = 44258500
REMARK  6 active torsions:
REMARK  status: ('A' for Active; 'I' for Inactive)
REMARK    1  A    between atoms: O_4  and  C_16
REMARK    2  A    between atoms: O_4  and  C_19
REMARK    3  A    between atoms: O_8  and  C_32
REMARK    4  A    between atoms: O_9  and  C_33
REMARK    5  A    between atoms: C_13  and  C_17
REMARK    6  A    between atoms: C_22  and  C_25
REMARK                            x       y       z     vdW  Elec       q    Type
REMARK                         _______ _______ _______ _____ _____    ______ ____
ROOT
ATOM      1  O   UNL     1     110.065 125.978 138.481  0.00  0.00    +0.000 OA
ATOM      2  C   UNL     1     110.758 125.916 137.233  0.00  0.00    +0.000 A 
ATOM      3  C   UNL     1     110.246 126.309 137.748  0.00  0.00    +0.000 A 
ATOM      4  C   UNL     1     110.939 126.247 136.500  0.00  0.00    +0.000 A 
ATOM      5  C   UNL     1     110.098 127.363 136.795  0.00  0.00    +0.000 A 
ATOM      6  C   UNL     1     109.916 127.032 137.529  0.00  0.00    +0.000 A 
ATOM      7  C   UNL     1     110.609 126.970 136.280  0.00  0.00    +0.000 A 
ENDROOT
BRANCH   5  11
ATOM      8  O   UNL     1     110.201 128.817 136.704  0.00  0.00    +0.000 OA
ATOM      9  O   UNL     1     108.024 130.345 135.566  0.00  0.00    +0.000 OA
ATOM     10  O   UNL     1     107.903 128.909 135.646  0.00  0.00    +0.000 OA
ATOM     11  C   UNL     1     109.768 128.086 136.575  0.00  0.00    +0.000 A 
ATOM     12  C   UNL     1     109.101 129.593 136.128  0.00  0.00    +0.000 A 
ATOM     13  C   UNL     1     109.850 129.566 136.473  0.00  0.00    +0.000 A 
ATOM     14  C   UNL     1     108.987 128.115 136.216  0.00  0.00    +0.000 A 
ATOM     15  C   UNL     1     108.651 128.873 135.991  0.00  0.00    +0.000 A 
ATOM     16  C   UNL     1     108.773 130.318 135.910  0.00  0.00    +0.000 A 
ATOM     17  C   UNL     1     110.271 130.263 136.598  0.00  0.00    +0.000 A 
ATOM     18  C   UNL     1     109.194 131.016 136.036  0.00  0.00    +0.000 A 
ATOM     19  C   UNL     1     109.944 130.989 136.380  0.00  0.00    +0.000 A 
BRANCH  18  20
ATOM     20  O   UNL     1     108.867 131.741 135.818  0.00  0.00    +0.000 OA
ATOM     21  C   UNL     1     108.897 131.987 135.031  0.00  0.00    +0.000 C 
ENDBRANCH  18  20
BRANCH  19  22
ATOM     22  O   UNL     1     110.366 131.686 136.507  0.00  0.00    +0.000 OA
ATOM     23  C   UNL     1     110.998 131.696 137.036  0.00  0.00    +0.000 C 
ENDBRANCH  19  22
ENDBRANCH   5  11
BRANCH   2  24
ATOM     24  O   UNL     1     111.088 125.192 137.452  0.00  0.00    +0.000 OA
BRANCH  24  33
ATOM     25  O   UNL     1     112.411 125.625 137.777  0.00  0.00    +0.000 OA
ATOM     26  O   UNL     1     114.356 124.757 137.299  0.00  0.00    +0.000 OA
ATOM     27  O   UNL     1     113.344 123.673 136.574  0.00  0.00    +0.000 OA
ATOM     28  O   UNL     1     111.710 123.891 136.651  0.00  0.00    +0.000 OA
ATOM     29  C   UNL     1     113.538 124.866 137.338  0.00  0.00    +0.000 C 
ATOM     30  C   UNL     1     113.227 125.516 137.739  0.00  0.00    +0.000 C 
ATOM     31  C   UNL     1     113.033 124.324 136.975  0.00  0.00    +0.000 C 
ATOM     32  C   UNL     1     112.217 124.433 137.014  0.00  0.00    +0.000 C 
ATOM     33  C   UNL     1     111.906 125.084 137.414  0.00  0.00    +0.000 C 
BRANCH  30  34
ATOM     34  C   UNL     1     113.734 126.057 138.101  0.00  0.00    +0.000 C 
ATOM     35  C   UNL     1     113.657 126.218 138.907  0.00  0.00    +0.000 C 
ENDBRANCH  30  34
ENDBRANCH  24  33
ENDBRANCH   2  24
TORSDOF 6
ENDMDL
MODEL 5
REMARK VINA RESULT:      -8.8      8.679     11.294
REMARK  Name = 44258500
REMARK  6 active torsions:
REMARK  status: ('A' for Active; 'I' for Inactive)
REMARK    1  A    between atoms: O_4  and  C_16
REMARK    2  A    between atoms: O_4  and  C_19
REMARK    3  A    between atoms: O_8  and  C_32
REMARK    4  A    between atoms: O_9  and  C_33
REMARK    5  A    between atoms: C_13  and  C_17
REMARK    6  A    between atoms: C_22  and  C_25
REMARK                            x       y       z     vdW  Elec       q    Type
REMARK                         _______ _______ _______ _____ _____    ______ ____
ROOT
ATOM      1  O   UNL     1     109.368 129.087 138.149  0.00  0.00    +0.000 OA
ATOM      2  C   UNL     1     109.451 129.304 136.739  0.00  0.00    +0.000 A 
ATOM      3  C   UNL     1     109.741 128.950 137.426  0.00  0.00    +0.000 A 
ATOM      4  C   UNL     1     109.824 129.167 136.016  0.00  0.00    +0.000 A 
ATOM      5  C   UNL     1     110.774 128.322 136.666  0.00  0.00    +0.000 A 
ATOM      6  C   UNL     1     110.402 128.458 137.390  0.00  0.00    +0.000 A 
ATOM      7  C   UNL     1     110.486 128.675 135.980  0.00  0.00    +0.000 A 
ENDROOT
BRANCH   5  11
ATOM      8  O   UNL     1     111.343 126.976 136.645  0.00  0.00    +0.000 OA
ATOM      9  O   UNL     1     114.210 126.629 136.468  0.00  0.00    +0.000 OA
ATOM     10  O   UNL     1     113.668 127.966 136.488  0.00  0.00    +0.000 OA
ATOM     11  C   UNL     1     111.436 127.830 136.630  0.00  0.00    +0.000 A 
ATOM     12  C   UNL     1     112.793 126.798 136.555  0.00  0.00    +0.000 A 
ATOM     13  C   UNL     1     112.037 126.472 136.606  0.00  0.00    +0.000 A 
ATOM     14  C   UNL     1     112.225 128.169 136.576  0.00  0.00    +0.000 A 
ATOM     15  C   UNL     1     112.908 127.650 136.539  0.00  0.00    +0.000 A 
ATOM     16  C   UNL     1     113.453 126.304 136.519  0.00  0.00    +0.000 A 
ATOM     17  C   UNL     1     111.941 125.654 136.621  0.00  0.00    +0.000 A 
ATOM     18  C   UNL     1     113.357 125.485 136.534  0.00  0.00    +0.000 A 
ATOM     19  C   UNL     1     112.601 125.159 136.585  0.00  0.00    +0.000 A 
BRANCH  18  20
ATOM     20  O   UNL     1     114.017 124.991 136.497  0.00  0.00    +0.000 OA
ATOM     21  C   UNL     1     114.463 124.848 137.176  0.00  0.00    +0.000 C 
ENDBRANCH  18  20
BRANCH  19  22
ATOM     22  O   UNL     1     112.504 124.340 136.600  0.00  0.00    +0.000 OA
ATOM     23  C   UNL     1     111.756 124.011 136.487  0.00  0.00    +0.000 C 
ENDBRANCH  19  22
ENDBRANCH   5  11
BRANCH   2  24
ATOM     24  O   UNL     1     108.789 129.796 136.776  0.00  0.00    +0.000 OA
BRANCH  24  33
ATOM     25  O   UNL     1     109.429 131.060 136.588  0.00  0.00    +0.000 OA
ATOM     26  O   UNL     1     108.869 132.777 135.362  0.00  0.00    +0.000 OA
ATOM     27  O   UNL     1     107.630 131.739 135.030  0.00  0.00    +0.000 OA
ATOM     28  O   UNL     1     107.590 130.248 135.737  0.00  0.00    +0.000 OA
ATOM     29  C   UNL     1     108.849 132.031 135.716  0.00  0.00    +0.000 C 
ATOM     30  C   UNL     1     109.449 131.804 136.235  0.00  0.00    +0.000 C 
ATOM     31  C   UNL     1     108.229 131.513 135.550  0.00  0.00    +0.000 C 
ATOM     32  C   UNL     1     108.210 130.768 135.903  0.00  0.00    +0.000 C 
ATOM     33  C   UNL     1     108.810 130.541 136.423  0.00  0.00    +0.000 C 
BRANCH  30  34
ATOM     34  C   UNL     1     110.068 132.324 136.401  0.00  0.00    +0.000 C 
ATOM     35  C   UNL     1     110.196 132.579 137.175  0.00  0.00    +0.000 C 
ENDBRANCH  30  34
ENDBRANCH  24  33
ENDBRANCH   2  24
TORSDOF 6
ENDMDL
MODEL 6
REMARK VINA RESULT:      -8.7      1.577      2.649
REMARK  Name = 44258500
REMARK  6 active torsions:
REMARK  status: ('A' for Active; 'I' for Inactive)
REMARK    1  A    between atoms: O_4  and  C_16
REMARK    2  A    between atoms: O_4  and  C_19
REMARK    3  A    between atoms: O_8  and  C_32
REMARK    4  A    between atoms: O_9  and  C_33
REMARK    5  A    between atoms: C_13  and  C_17
REMARK    6  A    between atoms: C_22  and  C_25
REMARK                            x       y       z     vdW  Elec       q    Type
REMARK                         _______ _______ _______ _____ _____    ______ ____
ROOT
ATOM      1  O   UNL     1     106.013 124.092 144.990  0.00  0.00    +0.000 OA
ATOM      2  C   UNL     1     105.362 125.078 145.794  0.00  0.00    +0.000 A 
ATOM      3  C   UNL     1     105.794 124.877 145.120  0.00  0.00    +0.000 A 
ATOM      4  C   UNL     1     105.144 125.862 145.924  0.00  0.00    +0.000 A 
ATOM      5  C   UNL     1     105.788 126.245 144.709  0.00  0.00    +0.000 A 
ATOM      6  C   UNL     1     106.008 125.460 144.577  0.00  0.00    +0.000 A 
ATOM      7  C   UNL     1     105.357 126.446 145.382  0.00  0.00    +0.000 A 
ENDROOT
BRANCH   5  11
ATOM      8  O   UNL     1     105.441 127.092 143.570  0.00  0.00    +0.000 OA
ATOM      9  O   UNL     1     107.389 128.954 142.516  0.00  0.00    +0.000 OA
ATOM     10  O   UNL     1     107.751 128.126 143.641  0.00  0.00    +0.000 OA
ATOM     11  C   UNL     1     106.002 126.829 144.166  0.00  0.00    +0.000 A 
ATOM     12  C   UNL     1     106.425 128.035 143.035  0.00  0.00    +0.000 A 
ATOM     13  C   UNL     1     105.671 127.700 143.009  0.00  0.00    +0.000 A 
ATOM     14  C   UNL     1     106.787 127.178 144.192  0.00  0.00    +0.000 A 
ATOM     15  C   UNL     1     107.000 127.786 143.623  0.00  0.00    +0.000 A 
ATOM     16  C   UNL     1     106.635 128.619 142.491  0.00  0.00    +0.000 A 
ATOM     17  C   UNL     1     105.129 127.948 142.440  0.00  0.00    +0.000 A 
ATOM     18  C   UNL     1     106.092 128.867 141.921  0.00  0.00    +0.000 A 
ATOM     19  C   UNL     1     105.339 128.532 141.896  0.00  0.00    +0.000 A 
BRANCH  18  20
ATOM     20  O   UNL     1     106.303 129.450 141.377  0.00  0.00    +0.000 OA
ATOM     21  C   UNL     1     106.339 130.240 141.613  0.00  0.00    +0.000 C 
ENDBRANCH  18  20
BRANCH  19  22
ATOM     22  O   UNL     1     104.796 128.779 141.327  0.00  0.00    +0.000 OA
ATOM     23  C   UNL     1     104.058 128.413 141.273  0.00  0.00    +0.000 C 
ENDBRANCH  19  22
ENDBRANCH   5  11
BRANCH   2  24
ATOM     24  O   UNL     1     105.149 124.494 146.337  0.00  0.00    +0.000 OA
BRANCH  24  33
ATOM     25  O   UNL     1     106.020 124.835 147.417  0.00  0.00    +0.000 OA
ATOM     26  O   UNL     1     105.647 124.981 149.563  0.00  0.00    +0.000 OA
ATOM     27  O   UNL     1     104.153 124.542 149.015  0.00  0.00    +0.000 OA
ATOM     28  O   UNL     1     103.904 124.299 147.402  0.00  0.00    +0.000 OA
ATOM     29  C   UNL     1     105.522 124.859 148.755  0.00  0.00    +0.000 C 
ATOM     30  C   UNL     1     106.145 124.957 148.223  0.00  0.00    +0.000 C 
ATOM     31  C   UNL     1     104.775 124.640 148.482  0.00  0.00    +0.000 C 
ATOM     32  C   UNL     1     104.652 124.518 147.676  0.00  0.00    +0.000 C 
ATOM     33  C   UNL     1     105.274 124.616 147.143  0.00  0.00    +0.000 C 
BRANCH  30  34
ATOM     34  C   UNL     1     106.891 125.176 148.497  0.00  0.00    +0.000 C 
ATOM     35  C   UNL     1     107.547 124.704 148.330  0.00  0.00    +0.000 C 
ENDBRANCH  30  34
ENDBRANCH  24  33
ENDBRANCH   2  24
TORSDOF 6
ENDMDL
MODEL 7
REMARK VINA RESULT:      -8.6      8.174      9.854
REMARK  Name = 44258500
REMARK  6 active torsions:
REMARK  status: ('A' for Active; 'I' for Inactive)
REMARK    1  A    between atoms: O_4  and  C_16
REMARK    2  A    between atoms: O_4  and  C_19
REMARK    3  A    between atoms: O_8  and  C_32
REMARK    4  A    between atoms: O_9  and  C_33
REMARK    5  A    between atoms: C_13  and  C_17
REMARK    6  A    between atoms: C_22  and  C_25
REMARK                            x       y       z     vdW  Elec       q    Type
REMARK                         _______ _______ _______ _____ _____    ______ ____
ROOT
ATOM      1  O   UNL     1     114.579 127.710 141.163  0.00  0.00    +0.000 OA
ATOM      2  C   UNL     1     113.628 128.597 140.572  0.00  0.00    +0.000 A 
ATOM      3  C   UNL     1     113.974 127.849 140.620  0.00  0.00    +0.000 A 
ATOM      4  C   UNL     1     113.022 128.735 140.029  0.00  0.00    +0.000 A 
ATOM      5  C   UNL     1     113.107 127.381 139.585  0.00  0.00    +0.000 A 
ATOM      6  C   UNL     1     113.713 127.241 140.127  0.00  0.00    +0.000 A 
ATOM      7  C   UNL     1     112.761 128.127 139.536  0.00  0.00    +0.000 A 
ENDROOT
BRANCH   5  11
ATOM      8  O   UNL     1     113.366 126.454 138.486  0.00  0.00    +0.000 OA
ATOM      9  O   UNL     1     111.308 124.600 137.653  0.00  0.00    +0.000 OA
ATOM     10  O   UNL     1     111.032 125.507 138.740  0.00  0.00    +0.000 OA
ATOM     11  C   UNL     1     112.847 126.773 139.092  0.00  0.00    +0.000 A 
ATOM     12  C   UNL     1     112.326 125.515 138.062  0.00  0.00    +0.000 A 
ATOM     13  C   UNL     1     113.088 125.821 137.977  0.00  0.00    +0.000 A 
ATOM     14  C   UNL     1     112.054 126.453 139.180  0.00  0.00    +0.000 A 
ATOM     15  C   UNL     1     111.792 125.820 138.662  0.00  0.00    +0.000 A 
ATOM     16  C   UNL     1     112.069 124.907 137.567  0.00  0.00    +0.000 A 
ATOM     17  C   UNL     1     113.590 125.520 137.397  0.00  0.00    +0.000 A 
ATOM     18  C   UNL     1     112.573 124.605 136.987  0.00  0.00    +0.000 A 
ATOM     19  C   UNL     1     113.334 124.912 136.902  0.00  0.00    +0.000 A 
BRANCH  18  20
ATOM     20  O   UNL     1     112.315 123.997 136.493  0.00  0.00    +0.000 OA
ATOM     21  C   UNL     1     112.251 123.228 136.784  0.00  0.00    +0.000 C 
ENDBRANCH  18  20
BRANCH  19  22
ATOM     22  O   UNL     1     113.838 124.611 136.323  0.00  0.00    +0.000 OA
ATOM     23  C   UNL     1     114.556 124.985 136.166  0.00  0.00    +0.000 C 
ENDBRANCH  19  22
ENDBRANCH   5  11
BRANCH   2  24
ATOM     24  O   UNL     1     113.888 129.205 141.065  0.00  0.00    +0.000 OA
BRANCH  24  33
ATOM     25  O   UNL     1     112.751 129.235 141.930  0.00  0.00    +0.000 OA
ATOM     26  O   UNL     1     111.713 130.911 142.867  0.00  0.00    +0.000 OA
ATOM     27  O   UNL     1     112.899 131.703 142.038  0.00  0.00    +0.000 OA
ATOM     28  O   UNL     1     113.986 130.850 141.137  0.00  0.00    +0.000 OA
ATOM     29  C   UNL     1     112.257 130.484 142.416  0.00  0.00    +0.000 C 
ATOM     30  C   UNL     1     112.207 129.661 142.380  0.00  0.00    +0.000 C 
ATOM     31  C   UNL     1     112.850 130.881 142.002  0.00  0.00    +0.000 C 
ATOM     32  C   UNL     1     113.393 130.454 141.552  0.00  0.00    +0.000 C 
ATOM     33  C   UNL     1     113.344 129.631 141.516  0.00  0.00    +0.000 C 
BRANCH  30  34
ATOM     34  C   UNL     1     111.614 129.266 142.795  0.00  0.00    +0.000 C 
ATOM     35  C   UNL     1     111.812 128.765 143.421  0.00  0.00    +0.000 C 
ENDBRANCH  30  34
ENDBRANCH  24  33
ENDBRANCH   2  24
TORSDOF 6
ENDMDL
MODEL 8
REMARK VINA RESULT:      -8.6      8.696     10.653
REMARK  Name = 44258500
REMARK  6 active torsions:
REMARK  status: ('A' for Active; 'I' for Inactive)
REMARK    1  A    between atoms: O_4  and  C_16
REMARK    2  A    between atoms: O_4  and  C_19
REMARK    3  A    between atoms: O_8  and  C_32
REMARK    4  A    between atoms: O_9  and  C_33
REMARK    5  A    between atoms: C_13  and  C_17
REMARK    6  A    between atoms: C_22  and  C_25
REMARK                            x       y       z     vdW  Elec       q    Type
REMARK                         _______ _______ _______ _____ _____    ______ ____
ROOT
ATOM      1  O   UNL     1     113.409 127.943 136.303  0.00  0.00    +0.000 OA
ATOM      2  C   UNL     1     113.332 126.886 137.261  0.00  0.00    +0.000 A 
ATOM      3  C   UNL     1     113.282 127.689 137.077  0.00  0.00    +0.000 A 
ATOM      4  C   UNL     1     113.205 126.632 138.036  0.00  0.00    +0.000 A 
ATOM      5  C   UNL     1     112.978 127.982 138.442  0.00  0.00    +0.000 A 
ATOM      6  C   UNL     1     113.105 128.237 137.668  0.00  0.00    +0.000 A 
ATOM      7  C   UNL     1     113.028 127.180 138.626  0.00  0.00    +0.000 A 
ENDROOT
BRANCH   5  11
ATOM      8  O   UNL     1     113.429 128.979 139.410  0.00  0.00    +0.000 OA
ATOM      9  O   UNL     1     111.497 130.340 141.079  0.00  0.00    +0.000 OA
ATOM     10  O   UNL     1     111.032 129.358 140.129  0.00  0.00    +0.000 OA
ATOM     11  C   UNL     1     112.801 128.530 139.032  0.00  0.00    +0.000 A 
ATOM     12  C   UNL     1     112.454 129.669 140.256  0.00  0.00    +0.000 A 
ATOM     13  C   UNL     1     113.236 129.547 140.024  0.00  0.00    +0.000 A 
ATOM     14  C   UNL     1     111.985 128.657 139.275  0.00  0.00    +0.000 A 
ATOM     15  C   UNL     1     111.811 129.230 139.891  0.00  0.00    +0.000 A 
ATOM     16  C   UNL     1     112.279 130.218 140.847  0.00  0.00    +0.000 A 
ATOM     17  C   UNL     1     113.843 129.975 140.382  0.00  0.00    +0.000 A 
ATOM     18  C   UNL     1     112.887 130.645 141.205  0.00  0.00    +0.000 A 
ATOM     19  C   UNL     1     113.670 130.524 140.973  0.00  0.00    +0.000 A 
BRANCH  18  20
ATOM     20  O   UNL     1     112.713 131.194 141.796  0.00  0.00    +0.000 OA
ATOM     21  C   UNL     1     112.529 130.936 142.558  0.00  0.00    +0.000 C 
ENDBRANCH  18  20
BRANCH  19  22
ATOM     22  O   UNL     1     114.278 130.950 141.331  0.00  0.00    +0.000 OA
ATOM     23  C   UNL     1     115.008 131.024 140.954  0.00  0.00    +0.000 C 
ENDBRANCH  19  22
ENDBRANCH   5  11
BRANCH   2  24
ATOM     24  O   UNL     1     113.509 126.337 136.671  0.00  0.00    +0.000 OA
BRANCH  24  33
ATOM     25  O   UNL     1     112.234 125.752 136.396  0.00  0.00    +0.000 OA
ATOM     26  O   UNL     1     111.616 123.662 136.283  0.00  0.00    +0.000 OA
ATOM     27  O   UNL     1     113.219 123.494 136.638  0.00  0.00    +0.000 OA
ATOM     28  O   UNL     1     114.165 124.832 136.831  0.00  0.00    +0.000 OA
ATOM     29  C   UNL     1     112.089 124.332 136.380  0.00  0.00    +0.000 C 
ATOM     30  C   UNL     1     111.761 125.084 136.300  0.00  0.00    +0.000 C 
ATOM     31  C   UNL     1     112.891 124.247 136.557  0.00  0.00    +0.000 C 
ATOM     32  C   UNL     1     113.363 124.916 136.654  0.00  0.00    +0.000 C 
ATOM     33  C   UNL     1     113.035 125.669 136.574  0.00  0.00    +0.000 C 
BRANCH  30  34
ATOM     34  C   UNL     1     110.960 125.167 136.122  0.00  0.00    +0.000 C 
ATOM     35  C   UNL     1     110.727 125.603 135.462  0.00  0.00    +0.000 C 
ENDBRANCH  30  34
ENDBRANCH  24  33
ENDBRANCH   2  24
TORSDOF 6
ENDMDL
MODEL 9
REMARK VINA RESULT:      -8.6      2.488      4.493
REMARK  Name = 44258500
REMARK  6 active torsions:
REMARK  status: ('A' for Active; 'I' for Inactive)
REMARK    1  A    between atoms: O_4  and  C_16
REMARK    2  A    between atoms: O_4  and  C_19
REMARK    3  A    between atoms: O_8  and  C_32
REMARK    4  A    between atoms: O_9  and  C_33
REMARK    5  A    between atoms: C_13  and  C_17
REMARK    6  A    between atoms: C_22  and  C_25
REMARK                            x       y       z     vdW  Elec       q    Type
REMARK                         _______ _______ _______ _____ _____    ______ ____
ROOT
ATOM      1  O   UNL     1     104.175 127.951 140.748  0.00  0.00    +0.000 OA
ATOM      2  C   UNL     1     104.510 128.287 142.097  0.00  0.00    +0.000 A 
ATOM      3  C   UNL     1     104.143 128.478 141.382  0.00  0.00    +0.000 A 
ATOM      4  C   UNL     1     104.477 128.813 142.730  0.00  0.00    +0.000 A 
ATOM      5  C   UNL     1     103.711 129.722 141.938  0.00  0.00    +0.000 A 
ATOM      6  C   UNL     1     103.743 129.195 141.303  0.00  0.00    +0.000 A 
ATOM      7  C   UNL     1     104.078 129.531 142.651  0.00  0.00    +0.000 A 
ENDROOT
BRANCH   5  11
ATOM      8  O   UNL     1     103.680 131.096 141.444  0.00  0.00    +0.000 OA
ATOM      9  O   UNL     1     101.349 132.742 141.919  0.00  0.00    +0.000 OA
ATOM     10  O   UNL     1     101.360 131.387 142.415  0.00  0.00    +0.000 OA
ATOM     11  C   UNL     1     103.312 130.439 141.858  0.00  0.00    +0.000 A 
ATOM     12  C   UNL     1     102.501 131.932 141.683  0.00  0.00    +0.000 A 
ATOM     13  C   UNL     1     103.257 131.840 141.366  0.00  0.00    +0.000 A 
ATOM     14  C   UNL     1     102.524 130.535 142.188  0.00  0.00    +0.000 A 
ATOM     15  C   UNL     1     102.116 131.286 142.101  0.00  0.00    +0.000 A 
ATOM     16  C   UNL     1     102.105 132.650 141.602  0.00  0.00    +0.000 A 
ATOM     17  C   UNL     1     103.616 132.467 140.968  0.00  0.00    +0.000 A 
ATOM     18  C   UNL     1     102.464 133.277 141.204  0.00  0.00    +0.000 A 
ATOM     19  C   UNL     1     103.220 133.186 140.887  0.00  0.00    +0.000 A 
BRANCH  18  20
ATOM     20  O   UNL     1     102.067 133.996 141.123  0.00  0.00    +0.000 OA
ATOM     21  C   UNL     1     102.064 134.538 141.745  0.00  0.00    +0.000 C 
ENDBRANCH  18  20
BRANCH  19  22
ATOM     22  O   UNL     1     103.579 133.812 140.489  0.00  0.00    +0.000 OA
ATOM     23  C   UNL     1     104.174 133.663 139.937  0.00  0.00    +0.000 C 
ENDBRANCH  19  22
ENDBRANCH   5  11
BRANCH   2  24
ATOM     24  O   UNL     1     104.909 127.569 142.176  0.00  0.00    +0.000 OA
BRANCH  24  33
ATOM     25  O   UNL     1     106.239 128.091 142.199  0.00  0.00    +0.000 OA
ATOM     26  O   UNL     1     107.979 127.515 143.384  0.00  0.00    +0.000 OA
ATOM     27  O   UNL     1     106.854 126.445 143.942  0.00  0.00    +0.000 OA
ATOM     28  O   UNL     1     105.319 126.472 143.338  0.00  0.00    +0.000 OA
ATOM     29  C   UNL     1     107.211 127.529 143.082  0.00  0.00    +0.000 C 
ATOM     30  C   UNL     1     107.006 128.077 142.501  0.00  0.00    +0.000 C 
ATOM     31  C   UNL     1     106.649 126.993 143.361  0.00  0.00    +0.000 C 
ATOM     32  C   UNL     1     105.882 127.007 143.059  0.00  0.00    +0.000 C 
ATOM     33  C   UNL     1     105.677 127.556 142.478  0.00  0.00    +0.000 C 
BRANCH  30  34
ATOM     34  C   UNL     1     107.569 128.613 142.223  0.00  0.00    +0.000 C 
ATOM     35  C   UNL     1     107.797 128.595 141.430  0.00  0.00    +0.000 C 
ENDBRANCH  30  34
ENDBRANCH  24  33
ENDBRANCH   2  24
TORSDOF 6
ENDMDL
MODEL 10
REMARK VINA RESULT:      -8.5      8.803     10.074
REMARK  Name = 44258500
REMARK  6 active torsions:
REMARK  status: ('A' for Active; 'I' for Inactive)
REMARK    1  A    between atoms: O_4  and  C_16
REMARK    2  A    between atoms: O_4  and  C_19
REMARK    3  A    between atoms: O_8  and  C_32
REMARK    4  A    between atoms: O_9  and  C_33
REMARK    5  A    between atoms: C_13  and  C_17
REMARK    6  A    between atoms: C_22  and  C_25
REMARK                            x       y       z     vdW  Elec       q    Type
REMARK                         _______ _______ _______ _____ _____    ______ ____
ROOT
ATOM      1  O   UNL     1     111.597 126.771 139.460  0.00  0.00    +0.000 OA
ATOM      2  C   UNL     1     112.682 127.075 138.582  0.00  0.00    +0.000 A 
ATOM      3  C   UNL     1     111.980 127.298 138.954  0.00  0.00    +0.000 A 
ATOM      4  C   UNL     1     113.065 127.603 138.076  0.00  0.00    +0.000 A 
ATOM      5  C   UNL     1     112.046 128.574 138.315  0.00  0.00    +0.000 A 
ATOM      6  C   UNL     1     111.661 128.047 138.821  0.00  0.00    +0.000 A 
ATOM      7  C   UNL     1     112.747 128.352 137.943  0.00  0.00    +0.000 A 
ENDROOT
BRANCH   5  11
ATOM      8  O   UNL     1     111.307 129.491 137.451  0.00  0.00    +0.000 OA
ATOM      9  O   UNL     1     110.826 132.209 138.317  0.00  0.00    +0.000 OA
ATOM     10  O   UNL     1     111.557 131.318 139.185  0.00  0.00    +0.000 OA
ATOM     11  C   UNL     1     111.727 129.323 138.181  0.00  0.00    +0.000 A 
ATOM     12  C   UNL     1     111.062 130.868 137.887  0.00  0.00    +0.000 A 
ATOM     13  C   UNL     1     110.979 130.274 137.320  0.00  0.00    +0.000 A 
ATOM     14  C   UNL     1     111.814 129.942 138.772  0.00  0.00    +0.000 A 
ATOM     15  C   UNL     1     111.479 130.719 138.624  0.00  0.00    +0.000 A 
ATOM     16  C   UNL     1     110.743 131.616 137.750  0.00  0.00    +0.000 A 
ATOM     17  C   UNL     1     110.577 130.430 136.617  0.00  0.00    +0.000 A 
ATOM     18  C   UNL     1     110.341 131.771 137.047  0.00  0.00    +0.000 A 
ATOM     19  C   UNL     1     110.258 131.178 136.480  0.00  0.00    +0.000 A 
BRANCH  18  20
ATOM     20  O   UNL     1     110.021 132.519 136.910  0.00  0.00    +0.000 OA
ATOM     21  C   UNL     1     110.510 133.139 136.668  0.00  0.00    +0.000 C 
ENDBRANCH  18  20
BRANCH  19  22
ATOM     22  O   UNL     1     109.856 131.332 135.776  0.00  0.00    +0.000 OA
ATOM     23  C   UNL     1     109.631 130.709 135.284  0.00  0.00    +0.000 C 
ENDBRANCH  19  22
ENDBRANCH   5  11
BRANCH   2  24
ATOM     24  O   UNL     1     113.000 126.326 138.716  0.00  0.00    +0.000 OA
BRANCH  24  33
ATOM     25  O   UNL     1     112.616 125.651 137.516  0.00  0.00    +0.000 OA
ATOM     26  O   UNL     1     113.762 124.378 136.163  0.00  0.00    +0.000 OA
ATOM     27  O   UNL     1     114.911 124.754 137.285  0.00  0.00    +0.000 OA
ATOM     28  O   UNL     1     114.531 125.728 138.562  0.00  0.00    +0.000 OA
ATOM     29  C   UNL     1     113.571 124.866 136.801  0.00  0.00    +0.000 C 
ATOM     30  C   UNL     1     112.806 125.165 136.878  0.00  0.00    +0.000 C 
ATOM     31  C   UNL     1     114.146 125.053 137.362  0.00  0.00    +0.000 C 
ATOM     32  C   UNL     1     113.955 125.540 138.000  0.00  0.00    +0.000 C 
ATOM     33  C   UNL     1     113.190 125.839 138.077  0.00  0.00    +0.000 C 
BRANCH  30  34
ATOM     34  C   UNL     1     112.232 124.976 136.317  0.00  0.00    +0.000 C 
ATOM     35  C   UNL     1     111.529 124.613 136.551  0.00  0.00    +0.000 C 
ENDBRANCH  30  34
ENDBRANCH  24  33
ENDBRANCH   2  24
TORSDOF 6
ENDMDL
