MODEL 1
REMARK VINA RESULT:     -10.3      0.000      0.000
REMARK  Name = 11968794
REMARK  7 active torsions:
REMARK  status: ('A' for Active; 'I' for Inactive)
REMARK    1  A    between atoms: O_1  and  C_19
REMARK    2  A    between atoms: O_1  and  C_20
REMARK    3  A    between atoms: O_8  and  C_28
REMARK    4  A    between atoms: O_8  and  C_31
REMARK    5  A    between atoms: C_25  and  C_30
REMARK    6  A    between atoms: C_27  and  C_29
REMARK    7  A    between atoms: C_32  and  C_35
REMARK                            x       y       z     vdW  Elec       q    Type
REMARK                         _______ _______ _______ _____ _____    ______ ____
ROOT
ATOM      1  O   UNL     1     110.934 127.889 138.438  0.00  0.00    +0.000 OA
ATOM      2  O   UNL     1     111.017 130.231 137.641  0.00  0.00    +0.000 OA
ATOM      3  O   UNL     1     112.366 129.284 137.560  0.00  0.00    +0.000 OA
ATOM      4  C   UNL     1     110.288 129.143 138.212  0.00  0.00    +0.000 C 
ATOM      5  C   UNL     1     110.989 129.451 137.907  0.00  0.00    +0.000 C 
ATOM      6  C   UNL     1     110.259 128.363 138.478  0.00  0.00    +0.000 C 
ATOM      7  C   UNL     1     111.663 128.977 137.866  0.00  0.00    +0.000 C 
ATOM      8  C   UNL     1     111.636 128.197 138.132  0.00  0.00    +0.000 C 
ENDROOT
BRANCH   6  11
ATOM      9  O   UNL     1     109.120 127.510 138.345  0.00  0.00    +0.000 OA
ATOM     10  O   UNL     1     109.293 128.294 139.528  0.00  0.00    +0.000 OA
ATOM     11  C   UNL     1     109.558 128.056 138.783  0.00  0.00    +0.000 C 
ENDBRANCH   6  11
BRANCH   4  12
ATOM     12  O   UNL     1     109.613 129.617 138.252  0.00  0.00    +0.000 OA
BRANCH  12  17
ATOM     13  O   UNL     1     109.311 129.424 136.869  0.00  0.00    +0.000 OA
ATOM     14  O   UNL     1     108.750 131.023 138.245  0.00  0.00    +0.000 OA
ATOM     15  O   UNL     1     108.017 131.534 136.858  0.00  0.00    +0.000 OA
ATOM     16  O   UNL     1     108.146 130.638 135.479  0.00  0.00    +0.000 OA
ATOM     17  C   UNL     1     109.246 129.873 137.559  0.00  0.00    +0.000 C 
ATOM     18  C   UNL     1     108.815 130.576 137.556  0.00  0.00    +0.000 C 
ATOM     19  C   UNL     1     108.448 130.831 136.862  0.00  0.00    +0.000 C 
ATOM     20  C   UNL     1     108.512 130.383 136.172  0.00  0.00    +0.000 C 
ATOM     21  C   UNL     1     108.944 129.680 136.176  0.00  0.00    +0.000 C 
BRANCH  21  23
ATOM     22  O   UNL     1     108.641 128.494 135.439  0.00  0.00    +0.000 OA
ATOM     23  C   UNL     1     109.009 129.232 135.487  0.00  0.00    +0.000 C 
ENDBRANCH  21  23
ENDBRANCH  12  17
ENDBRANCH   4  12
BRANCH   8  24
ATOM     24  O   UNL     1     112.311 127.723 138.091  0.00  0.00    +0.000 OA
BRANCH  24  29
ATOM     25  O   UNL     1     112.415 125.545 138.186  0.00  0.00    +0.000 OA
ATOM     26  O   UNL     1     111.707 127.317 136.610  0.00  0.00    +0.000 OA
ATOM     27  O   UNL     1     111.328 126.332 135.626  0.00  0.00    +0.000 OA
ATOM     28  O   UNL     1     111.672 123.499 136.250  0.00  0.00    +0.000 OA
ATOM     29  C   UNL     1     112.245 126.929 137.875  0.00  0.00    +0.000 A 
ATOM     30  C   UNL     1     112.481 126.339 138.401  0.00  0.00    +0.000 A 
ATOM     31  C   UNL     1     111.943 126.727 137.135  0.00  0.00    +0.000 A 
ATOM     32  C   UNL     1     111.877 125.933 136.919  0.00  0.00    +0.000 A 
ATOM     33  C   UNL     1     112.113 125.342 137.445  0.00  0.00    +0.000 A 
ATOM     34  C   UNL     1     111.562 125.735 136.146  0.00  0.00    +0.000 A 
ATOM     35  C   UNL     1     112.050 124.512 137.232  0.00  0.00    +0.000 A 
ATOM     36  C   UNL     1     111.491 124.909 135.915  0.00  0.00    +0.000 A 
ATOM     37  C   UNL     1     111.737 124.294 136.463  0.00  0.00    +0.000 A 
BRANCH  30  40
ATOM     38  O   UNL     1     112.168 126.517 141.236  0.00  0.00    +0.000 OA
ATOM     39  O   UNL     1     113.687 127.149 141.363  0.00  0.00    +0.000 OA
ATOM     40  C   UNL     1     112.783 126.541 139.142  0.00  0.00    +0.000 A 
ATOM     41  C   UNL     1     112.325 126.428 139.818  0.00  0.00    +0.000 A 
ATOM     42  C   UNL     1     113.542 126.858 139.206  0.00  0.00    +0.000 A 
ATOM     43  C   UNL     1     112.627 126.631 140.559  0.00  0.00    +0.000 A 
ATOM     44  C   UNL     1     113.843 127.060 139.946  0.00  0.00    +0.000 A 
ATOM     45  C   UNL     1     113.386 126.947 140.623  0.00  0.00    +0.000 A 
ENDBRANCH  30  40
ENDBRANCH  24  29
ENDBRANCH   8  24
TORSDOF 7
ENDMDL
MODEL 2
REMARK VINA RESULT:     -10.1      2.015      3.216
REMARK  Name = 11968794
REMARK  7 active torsions:
REMARK  status: ('A' for Active; 'I' for Inactive)
REMARK    1  A    between atoms: O_1  and  C_19
REMARK    2  A    between atoms: O_1  and  C_20
REMARK    3  A    between atoms: O_8  and  C_28
REMARK    4  A    between atoms: O_8  and  C_31
REMARK    5  A    between atoms: C_25  and  C_30
REMARK    6  A    between atoms: C_27  and  C_29
REMARK    7  A    between atoms: C_32  and  C_35
REMARK                            x       y       z     vdW  Elec       q    Type
REMARK                         _______ _______ _______ _____ _____    ______ ____
ROOT
ATOM      1  O   UNL     1     111.918 128.742 137.273  0.00  0.00    +0.000 OA
ATOM      2  O   UNL     1     109.668 129.459 136.529  0.00  0.00    +0.000 OA
ATOM      3  O   UNL     1     110.776 128.941 135.422  0.00  0.00    +0.000 OA
ATOM      4  C   UNL     1     110.614 129.240 137.578  0.00  0.00    +0.000 C 
ATOM      5  C   UNL     1     110.418 129.220 136.777  0.00  0.00    +0.000 C 
ATOM      6  C   UNL     1     111.363 129.002 137.826  0.00  0.00    +0.000 C 
ATOM      7  C   UNL     1     110.972 128.961 136.224  0.00  0.00    +0.000 C 
ATOM      8  C   UNL     1     111.722 128.722 136.471  0.00  0.00    +0.000 C 
ENDROOT
BRANCH   6  11
ATOM      9  O   UNL     1     112.087 129.589 138.909  0.00  0.00    +0.000 OA
ATOM     10  O   UNL     1     111.226 128.474 139.147  0.00  0.00    +0.000 OA
ATOM     11  C   UNL     1     111.559 129.022 138.627  0.00  0.00    +0.000 C 
ENDBRANCH   6  11
BRANCH   4  12
ATOM     12  O   UNL     1     110.059 129.500 138.132  0.00  0.00    +0.000 OA
BRANCH  12  17
ATOM     13  O   UNL     1     110.286 130.866 137.779  0.00  0.00    +0.000 OA
ATOM     14  O   UNL     1     108.633 129.921 138.846  0.00  0.00    +0.000 OA
ATOM     15  O   UNL     1     108.146 131.497 138.850  0.00  0.00    +0.000 OA
ATOM     16  O   UNL     1     109.086 132.652 138.140  0.00  0.00    +0.000 OA
ATOM     17  C   UNL     1     109.816 130.288 138.134  0.00  0.00    +0.000 C 
ATOM     18  C   UNL     1     109.102 130.498 138.491  0.00  0.00    +0.000 C 
ATOM     19  C   UNL     1     108.859 131.287 138.493  0.00  0.00    +0.000 C 
ATOM     20  C   UNL     1     109.329 131.864 138.138  0.00  0.00    +0.000 C 
ATOM     21  C   UNL     1     110.042 131.654 137.781  0.00  0.00    +0.000 C 
BRANCH  21  23
ATOM     22  O   UNL     1     111.260 132.399 137.732  0.00  0.00    +0.000 OA
ATOM     23  C   UNL     1     110.512 132.231 137.426  0.00  0.00    +0.000 C 
ENDBRANCH  21  23
ENDBRANCH  12  17
ENDBRANCH   4  12
BRANCH   8  24
ATOM     24  O   UNL     1     112.276 128.463 135.917  0.00  0.00    +0.000 OA
BRANCH  24  29
ATOM     25  O   UNL     1     114.133 127.370 136.267  0.00  0.00    +0.000 OA
ATOM     26  O   UNL     1     111.690 126.990 136.375  0.00  0.00    +0.000 OA
ATOM     27  O   UNL     1     111.891 125.626 136.802  0.00  0.00    +0.000 OA
ATOM     28  O   UNL     1     114.617 124.629 137.126  0.00  0.00    +0.000 OA
ATOM     29  C   UNL     1     112.797 127.853 136.111  0.00  0.00    +0.000 A 
ATOM     30  C   UNL     1     113.611 127.979 136.075  0.00  0.00    +0.000 A 
ATOM     31  C   UNL     1     112.504 127.117 136.339  0.00  0.00    +0.000 A 
ATOM     32  C   UNL     1     113.025 126.506 136.532  0.00  0.00    +0.000 A 
ATOM     33  C   UNL     1     113.839 126.633 136.496  0.00  0.00    +0.000 A 
ATOM     34  C   UNL     1     112.707 125.744 136.769  0.00  0.00    +0.000 A 
ATOM     35  C   UNL     1     114.392 126.006 136.695  0.00  0.00    +0.000 A 
ATOM     36  C   UNL     1     113.245 125.105 136.971  0.00  0.00    +0.000 A 
ATOM     37  C   UNL     1     114.094 125.237 136.934  0.00  0.00    +0.000 A 
BRANCH  30  40
ATOM     38  O   UNL     1     114.795 130.491 136.752  0.00  0.00    +0.000 OA
ATOM     39  O   UNL     1     114.785 130.925 135.160  0.00  0.00    +0.000 OA
ATOM     40  C   UNL     1     113.905 128.716 135.846  0.00  0.00    +0.000 A 
ATOM     41  C   UNL     1     114.203 129.235 136.413  0.00  0.00    +0.000 A 
ATOM     42  C   UNL     1     113.900 128.933 135.050  0.00  0.00    +0.000 A 
ATOM     43  C   UNL     1     114.497 129.972 136.184  0.00  0.00    +0.000 A 
ATOM     44  C   UNL     1     114.193 129.669 134.821  0.00  0.00    +0.000 A 
ATOM     45  C   UNL     1     114.492 130.189 135.388  0.00  0.00    +0.000 A 
ENDBRANCH  30  40
ENDBRANCH  24  29
ENDBRANCH   8  24
TORSDOF 7
ENDMDL
MODEL 3
REMARK VINA RESULT:     -10.1      1.102      3.081
REMARK  Name = 11968794
REMARK  7 active torsions:
REMARK  status: ('A' for Active; 'I' for Inactive)
REMARK    1  A    between atoms: O_1  and  C_19
REMARK    2  A    between atoms: O_1  and  C_20
REMARK    3  A    between atoms: O_8  and  C_28
REMARK    4  A    between atoms: O_8  and  C_31
REMARK    5  A    between atoms: C_25  and  C_30
REMARK    6  A    between atoms: C_27  and  C_29
REMARK    7  A    between atoms: C_32  and  C_35
REMARK                            x       y       z     vdW  Elec       q    Type
REMARK                         _______ _______ _______ _____ _____    ______ ____
ROOT
ATOM      1  O   UNL     1     111.060 127.141 137.384  0.00  0.00    +0.000 OA
ATOM      2  O   UNL     1     110.529 128.500 135.384  0.00  0.00    +0.000 OA
ATOM      3  O   UNL     1     112.050 127.896 135.590  0.00  0.00    +0.000 OA
ATOM      4  C   UNL     1     110.123 127.896 136.614  0.00  0.00    +0.000 C 
ATOM      5  C   UNL     1     110.706 128.047 136.051  0.00  0.00    +0.000 C 
ATOM      6  C   UNL     1     110.300 127.443 137.281  0.00  0.00    +0.000 C 
ATOM      7  C   UNL     1     111.466 127.745 136.154  0.00  0.00    +0.000 C 
ATOM      8  C   UNL     1     111.644 127.292 136.820  0.00  0.00    +0.000 C 
ENDROOT
BRANCH   6  11
ATOM      9  O   UNL     1     109.706 127.716 138.552  0.00  0.00    +0.000 OA
ATOM     10  O   UNL     1     109.143 126.717 137.700  0.00  0.00    +0.000 OA
ATOM     11  C   UNL     1     109.717 127.292 137.844  0.00  0.00    +0.000 C 
ENDBRANCH   6  11
BRANCH   4  12
ATOM     12  O   UNL     1     109.362 128.198 136.511  0.00  0.00    +0.000 OA
BRANCH  12  17
ATOM     13  O   UNL     1     109.751 129.507 136.931  0.00  0.00    +0.000 OA
ATOM     14  O   UNL     1     108.087 128.842 135.685  0.00  0.00    +0.000 OA
ATOM     15  O   UNL     1     107.839 130.473 135.692  0.00  0.00    +0.000 OA
ATOM     16  O   UNL     1     108.865 131.460 136.525  0.00  0.00    +0.000 OA
ATOM     17  C   UNL     1     109.237 129.013 136.514  0.00  0.00    +0.000 C 
ATOM     18  C   UNL     1     108.600 129.335 136.101  0.00  0.00    +0.000 C 
ATOM     19  C   UNL     1     108.476 130.151 136.105  0.00  0.00    +0.000 C 
ATOM     20  C   UNL     1     108.989 130.645 136.522  0.00  0.00    +0.000 C 
ATOM     21  C   UNL     1     109.626 130.323 136.935  0.00  0.00    +0.000 C 
BRANCH  21  23
ATOM     22  O   UNL     1     110.196 130.753 138.173  0.00  0.00    +0.000 OA
ATOM     23  C   UNL     1     110.140 130.816 137.351  0.00  0.00    +0.000 C 
ENDBRANCH  21  23
ENDBRANCH  12  17
ENDBRANCH   4  12
BRANCH   8  24
ATOM     24  O   UNL     1     112.405 126.990 136.923  0.00  0.00    +0.000 OA
BRANCH  24  29
ATOM     25  O   UNL     1     113.294 126.192 138.750  0.00  0.00    +0.000 OA
ATOM     26  O   UNL     1     112.612 128.373 137.800  0.00  0.00    +0.000 OA
ATOM     27  O   UNL     1     113.042 129.060 138.994  0.00  0.00    +0.000 OA
ATOM     28  O   UNL     1     114.184 127.510 141.190  0.00  0.00    +0.000 OA
ATOM     29  C   UNL     1     112.736 126.955 137.678  0.00  0.00    +0.000 A 
ATOM     30  C   UNL     1     112.963 126.228 137.995  0.00  0.00    +0.000 A 
ATOM     31  C   UNL     1     112.839 127.646 138.116  0.00  0.00    +0.000 A 
ATOM     32  C   UNL     1     113.170 127.611 138.872  0.00  0.00    +0.000 A 
ATOM     33  C   UNL     1     113.397 126.884 139.188  0.00  0.00    +0.000 A 
ATOM     34  C   UNL     1     113.272 128.338 139.318  0.00  0.00    +0.000 A 
ATOM     35  C   UNL     1     113.743 126.833 139.973  0.00  0.00    +0.000 A 
ATOM     36  C   UNL     1     113.616 128.307 140.105  0.00  0.00    +0.000 A 
ATOM     37  C   UNL     1     113.853 127.549 140.435  0.00  0.00    +0.000 A 
BRANCH  30  40
ATOM     38  O   UNL     1     111.527 123.810 137.489  0.00  0.00    +0.000 OA
ATOM     39  O   UNL     1     112.551 123.463 136.242  0.00  0.00    +0.000 OA
ATOM     40  C   UNL     1     112.860 125.536 137.556  0.00  0.00    +0.000 A 
ATOM     41  C   UNL     1     112.245 125.019 137.742  0.00  0.00    +0.000 A 
ATOM     42  C   UNL     1     113.372 125.363 136.933  0.00  0.00    +0.000 A 
ATOM     43  C   UNL     1     112.142 124.327 137.303  0.00  0.00    +0.000 A 
ATOM     44  C   UNL     1     113.269 124.672 136.495  0.00  0.00    +0.000 A 
ATOM     45  C   UNL     1     112.654 124.153 136.680  0.00  0.00    +0.000 A 
ENDBRANCH  30  40
ENDBRANCH  24  29
ENDBRANCH   8  24
TORSDOF 7
ENDMDL
MODEL 4
REMARK VINA RESULT:     -10.0      2.171      4.003
REMARK  Name = 11968794
REMARK  7 active torsions:
REMARK  status: ('A' for Active; 'I' for Inactive)
REMARK    1  A    between atoms: O_1  and  C_19
REMARK    2  A    between atoms: O_1  and  C_20
REMARK    3  A    between atoms: O_8  and  C_28
REMARK    4  A    between atoms: O_8  and  C_31
REMARK    5  A    between atoms: C_25  and  C_30
REMARK    6  A    between atoms: C_27  and  C_29
REMARK    7  A    between atoms: C_32  and  C_35
REMARK                            x       y       z     vdW  Elec       q    Type
REMARK                         _______ _______ _______ _____ _____    ______ ____
ROOT
ATOM      1  O   UNL     1     112.198 127.531 137.892  0.00  0.00    +0.000 OA
ATOM      2  O   UNL     1     113.297 129.742 138.058  0.00  0.00    +0.000 OA
ATOM      3  O   UNL     1     113.632 128.749 136.784  0.00  0.00    +0.000 OA
ATOM      4  C   UNL     1     112.398 128.765 138.584  0.00  0.00    +0.000 C 
ATOM      5  C   UNL     1     112.931 129.005 138.003  0.00  0.00    +0.000 C 
ATOM      6  C   UNL     1     112.031 128.027 138.529  0.00  0.00    +0.000 C 
ATOM      7  C   UNL     1     113.098 128.508 137.366  0.00  0.00    +0.000 C 
ATOM      8  C   UNL     1     112.732 127.771 137.310  0.00  0.00    +0.000 C 
ENDROOT
BRANCH   6  11
ATOM      9  O   UNL     1     111.703 127.185 139.635  0.00  0.00    +0.000 OA
ATOM     10  O   UNL     1     110.759 128.149 139.166  0.00  0.00    +0.000 OA
ATOM     11  C   UNL     1     111.498 127.787 139.110  0.00  0.00    +0.000 C 
ENDBRANCH   6  11
BRANCH   4  12
ATOM     12  O   UNL     1     112.230 129.261 139.221  0.00  0.00    +0.000 OA
BRANCH  12  17
ATOM     13  O   UNL     1     113.439 128.933 139.909  0.00  0.00    +0.000 OA
ATOM     14  O   UNL     1     112.198 130.728 139.977  0.00  0.00    +0.000 OA
ATOM     15  O   UNL     1     113.391 131.133 141.043  0.00  0.00    +0.000 OA
ATOM     16  O   UNL     1     114.615 130.072 141.352  0.00  0.00    +0.000 OA
ATOM     17  C   UNL     1     112.826 129.465 139.754  0.00  0.00    +0.000 C 
ATOM     18  C   UNL     1     112.810 130.198 140.132  0.00  0.00    +0.000 C 
ATOM     19  C   UNL     1     113.407 130.400 140.665  0.00  0.00    +0.000 C 
ATOM     20  C   UNL     1     114.019 129.870 140.820  0.00  0.00    +0.000 C 
ATOM     21  C   UNL     1     114.035 129.137 140.442  0.00  0.00    +0.000 C 
BRANCH  21  23
ATOM     22  O   UNL     1     114.485 127.885 140.966  0.00  0.00    +0.000 OA
ATOM     23  C   UNL     1     114.647 128.606 140.596  0.00  0.00    +0.000 C 
ENDBRANCH  21  23
ENDBRANCH  12  17
ENDBRANCH   4  12
BRANCH   8  24
ATOM     24  O   UNL     1     112.900 127.274 136.673  0.00  0.00    +0.000 OA
BRANCH  24  29
ATOM     25  O   UNL     1     111.757 125.564 135.943  0.00  0.00    +0.000 OA
ATOM     26  O   UNL     1     111.566 128.029 136.059  0.00  0.00    +0.000 OA
ATOM     27  O   UNL     1     110.282 127.990 135.402  0.00  0.00    +0.000 OA
ATOM     28  O   UNL     1     109.170 125.407 134.612  0.00  0.00    +0.000 OA
ATOM     29  C   UNL     1     112.296 126.830 136.327  0.00  0.00    +0.000 A 
ATOM     30  C   UNL     1     112.360 126.009 136.288  0.00  0.00    +0.000 A 
ATOM     31  C   UNL     1     111.630 127.207 136.020  0.00  0.00    +0.000 A 
ATOM     32  C   UNL     1     111.026 126.763 135.675  0.00  0.00    +0.000 A 
ATOM     33  C   UNL     1     111.090 125.942 135.636  0.00  0.00    +0.000 A 
ATOM     34  C   UNL     1     110.338 127.168 135.359  0.00  0.00    +0.000 A 
ATOM     35  C   UNL     1     110.469 125.468 135.278  0.00  0.00    +0.000 A 
ATOM     36  C   UNL     1     109.706 126.710 134.998  0.00  0.00    +0.000 A 
ATOM     37  C   UNL     1     109.772 125.854 134.957  0.00  0.00    +0.000 A 
BRANCH  30  40
ATOM     38  O   UNL     1     115.134 125.349 136.103  0.00  0.00    +0.000 OA
ATOM     39  O   UNL     1     115.026 124.500 137.514  0.00  0.00    +0.000 OA
ATOM     40  C   UNL     1     113.027 125.631 136.595  0.00  0.00    +0.000 A 
ATOM     41  C   UNL     1     113.747 125.679 136.196  0.00  0.00    +0.000 A 
ATOM     42  C   UNL     1     112.973 125.207 137.300  0.00  0.00    +0.000 A 
ATOM     43  C   UNL     1     114.414 125.301 136.502  0.00  0.00    +0.000 A 
ATOM     44  C   UNL     1     113.639 124.830 137.606  0.00  0.00    +0.000 A 
ATOM     45  C   UNL     1     114.360 124.877 137.208  0.00  0.00    +0.000 A 
ENDBRANCH  30  40
ENDBRANCH  24  29
ENDBRANCH   8  24
TORSDOF 7
ENDMDL
MODEL 5
REMARK VINA RESULT:     -10.0      1.289      2.222
REMARK  Name = 11968794
REMARK  7 active torsions:
REMARK  status: ('A' for Active; 'I' for Inactive)
REMARK    1  A    between atoms: O_1  and  C_19
REMARK    2  A    between atoms: O_1  and  C_20
REMARK    3  A    between atoms: O_8  and  C_28
REMARK    4  A    between atoms: O_8  and  C_31
REMARK    5  A    between atoms: C_25  and  C_30
REMARK    6  A    between atoms: C_27  and  C_29
REMARK    7  A    between atoms: C_32  and  C_35
REMARK                            x       y       z     vdW  Elec       q    Type
REMARK                         _______ _______ _______ _____ _____    ______ ____
ROOT
ATOM      1  O   UNL     1     111.576 127.757 137.493  0.00  0.00    +0.000 OA
ATOM      2  O   UNL     1     109.112 127.788 137.261  0.00  0.00    +0.000 OA
ATOM      3  O   UNL     1     109.821 126.823 138.396  0.00  0.00    +0.000 OA
ATOM      4  C   UNL     1     110.400 128.250 136.849  0.00  0.00    +0.000 C 
ATOM      5  C   UNL     1     109.933 127.778 137.338  0.00  0.00    +0.000 C 
ATOM      6  C   UNL     1     111.221 128.240 136.926  0.00  0.00    +0.000 C 
ATOM      7  C   UNL     1     110.288 127.296 137.905  0.00  0.00    +0.000 C 
ATOM      8  C   UNL     1     111.109 127.284 137.983  0.00  0.00    +0.000 C 
ENDROOT
BRANCH   6  11
ATOM      9  O   UNL     1     111.763 128.528 135.635  0.00  0.00    +0.000 OA
ATOM     10  O   UNL     1     112.080 129.367 136.747  0.00  0.00    +0.000 OA
ATOM     11  C   UNL     1     111.688 128.711 136.436  0.00  0.00    +0.000 C 
ENDBRANCH   6  11
BRANCH   4  12
ATOM     12  O   UNL     1     110.045 128.732 136.281  0.00  0.00    +0.000 OA
BRANCH  12  17
ATOM     13  O   UNL     1     109.704 129.735 137.240  0.00  0.00    +0.000 OA
ATOM     14  O   UNL     1     108.824 129.253 135.302  0.00  0.00    +0.000 OA
ATOM     15  O   UNL     1     107.872 130.517 135.771  0.00  0.00    +0.000 OA
ATOM     16  O   UNL     1     108.141 131.258 137.220  0.00  0.00    +0.000 OA
ATOM     17  C   UNL     1     109.569 129.364 136.515  0.00  0.00    +0.000 C 
ATOM     18  C   UNL     1     108.958 129.624 136.026  0.00  0.00    +0.000 C 
ATOM     19  C   UNL     1     108.482 130.256 136.261  0.00  0.00    +0.000 C 
ATOM     20  C   UNL     1     108.617 130.627 136.985  0.00  0.00    +0.000 C 
ATOM     21  C   UNL     1     109.227 130.366 137.475  0.00  0.00    +0.000 C 
BRANCH  21  23
ATOM     22  O   UNL     1     110.062 131.158 138.322  0.00  0.00    +0.000 OA
ATOM     23  C   UNL     1     109.363 130.737 138.199  0.00  0.00    +0.000 C 
ENDBRANCH  21  23
ENDBRANCH  12  17
ENDBRANCH   4  12
BRANCH   8  24
ATOM     24  O   UNL     1     111.463 126.802 138.551  0.00  0.00    +0.000 OA
BRANCH  24  29
ATOM     25  O   UNL     1     113.556 126.202 138.712  0.00  0.00    +0.000 OA
ATOM     26  O   UNL     1     111.600 125.797 137.249  0.00  0.00    +0.000 OA
ATOM     27  O   UNL     1     112.374 124.914 136.410  0.00  0.00    +0.000 OA
ATOM     28  O   UNL     1     115.180 124.432 137.064  0.00  0.00    +0.000 OA
ATOM     29  C   UNL     1     112.184 126.434 138.387  0.00  0.00    +0.000 A 
ATOM     30  C   UNL     1     112.835 126.569 138.874  0.00  0.00    +0.000 A 
ATOM     31  C   UNL     1     112.252 125.932 137.737  0.00  0.00    +0.000 A 
ATOM     32  C   UNL     1     112.972 125.564 137.573  0.00  0.00    +0.000 A 
ATOM     33  C   UNL     1     113.624 125.699 138.060  0.00  0.00    +0.000 A 
ATOM     34  C   UNL     1     113.031 125.043 136.892  0.00  0.00    +0.000 A 
ATOM     35  C   UNL     1     114.380 125.322 137.901  0.00  0.00    +0.000 A 
ATOM     36  C   UNL     1     113.779 124.657 136.717  0.00  0.00    +0.000 A 
ATOM     37  C   UNL     1     114.458 124.798 137.225  0.00  0.00    +0.000 A 
BRANCH  30  40
ATOM     38  O   UNL     1     113.360 129.085 140.124  0.00  0.00    +0.000 OA
ATOM     39  O   UNL     1     112.562 128.579 141.477  0.00  0.00    +0.000 OA
ATOM     40  C   UNL     1     112.767 127.072 139.526  0.00  0.00    +0.000 A 
ATOM     41  C   UNL     1     113.098 127.827 139.499  0.00  0.00    +0.000 A 
ATOM     42  C   UNL     1     112.368 126.819 140.202  0.00  0.00    +0.000 A 
ATOM     43  C   UNL     1     113.029 128.330 140.151  0.00  0.00    +0.000 A 
ATOM     44  C   UNL     1     112.300 127.321 140.852  0.00  0.00    +0.000 A 
ATOM     45  C   UNL     1     112.630 128.077 140.827  0.00  0.00    +0.000 A 
ENDBRANCH  30  40
ENDBRANCH  24  29
ENDBRANCH   8  24
TORSDOF 7
ENDMDL
MODEL 6
REMARK VINA RESULT:      -9.9      2.378      4.524
REMARK  Name = 11968794
REMARK  7 active torsions:
REMARK  status: ('A' for Active; 'I' for Inactive)
REMARK    1  A    between atoms: O_1  and  C_19
REMARK    2  A    between atoms: O_1  and  C_20
REMARK    3  A    between atoms: O_8  and  C_28
REMARK    4  A    between atoms: O_8  and  C_31
REMARK    5  A    between atoms: C_25  and  C_30
REMARK    6  A    between atoms: C_27  and  C_29
REMARK    7  A    between atoms: C_32  and  C_35
REMARK                            x       y       z     vdW  Elec       q    Type
REMARK                         _______ _______ _______ _____ _____    ______ ____
ROOT
ATOM      1  O   UNL     1     112.088 127.009 138.829  0.00  0.00    +0.000 OA
ATOM      2  O   UNL     1     113.074 126.901 141.097  0.00  0.00    +0.000 OA
ATOM      3  O   UNL     1     114.003 126.559 139.778  0.00  0.00    +0.000 OA
ATOM      4  C   UNL     1     111.952 127.144 140.245  0.00  0.00    +0.000 C 
ATOM      5  C   UNL     1     112.745 126.937 140.341  0.00  0.00    +0.000 C 
ATOM      6  C   UNL     1     111.624 127.180 139.489  0.00  0.00    +0.000 C 
ATOM      7  C   UNL     1     113.209 126.766 139.682  0.00  0.00    +0.000 C 
ATOM      8  C   UNL     1     112.882 126.801 138.925  0.00  0.00    +0.000 C 
ENDROOT
BRANCH   6  11
ATOM      9  O   UNL     1     110.630 128.151 139.155  0.00  0.00    +0.000 OA
ATOM     10  O   UNL     1     110.240 126.830 139.535  0.00  0.00    +0.000 OA
ATOM     11  C   UNL     1     110.831 127.387 139.393  0.00  0.00    +0.000 C 
ENDBRANCH   6  11
BRANCH   4  12
ATOM     12  O   UNL     1     111.488 127.316 140.905  0.00  0.00    +0.000 OA
BRANCH  12  17
ATOM     13  O   UNL     1     112.072 128.610 141.062  0.00  0.00    +0.000 OA
ATOM     14  O   UNL     1     111.051 127.320 142.496  0.00  0.00    +0.000 OA
ATOM     15  O   UNL     1     111.417 128.617 143.448  0.00  0.00    +0.000 OA
ATOM     16  O   UNL     1     112.219 129.909 142.809  0.00  0.00    +0.000 OA
ATOM     17  C   UNL     1     111.670 127.964 141.382  0.00  0.00    +0.000 C 
ATOM     18  C   UNL     1     111.452 127.966 142.177  0.00  0.00    +0.000 C 
ATOM     19  C   UNL     1     111.635 128.615 142.653  0.00  0.00    +0.000 C 
ATOM     20  C   UNL     1     112.036 129.261 142.334  0.00  0.00    +0.000 C 
ATOM     21  C   UNL     1     112.255 129.258 141.538  0.00  0.00    +0.000 C 
BRANCH  21  23
ATOM     22  O   UNL     1     112.281 130.389 140.665  0.00  0.00    +0.000 OA
ATOM     23  C   UNL     1     112.656 129.904 141.218  0.00  0.00    +0.000 C 
ENDBRANCH  21  23
ENDBRANCH  12  17
ENDBRANCH   4  12
BRANCH   8  24
ATOM     24  O   UNL     1     113.346 126.630 138.265  0.00  0.00    +0.000 OA
BRANCH  24  29
ATOM     25  O   UNL     1     112.910 127.046 136.167  0.00  0.00    +0.000 OA
ATOM     26  O   UNL     1     113.514 128.271 138.231  0.00  0.00    +0.000 OA
ATOM     27  O   UNL     1     113.487 129.530 137.526  0.00  0.00    +0.000 OA
ATOM     28  O   UNL     1     112.837 129.549 134.679  0.00  0.00    +0.000 OA
ATOM     29  C   UNL     1     113.229 127.043 137.561  0.00  0.00    +0.000 A 
ATOM     30  C   UNL     1     113.028 126.634 136.873  0.00  0.00    +0.000 A 
ATOM     31  C   UNL     1     113.313 127.863 137.543  0.00  0.00    +0.000 A 
ATOM     32  C   UNL     1     113.195 128.276 136.838  0.00  0.00    +0.000 A 
ATOM     33  C   UNL     1     112.994 127.867 136.151  0.00  0.00    +0.000 A 
ATOM     34  C   UNL     1     113.286 129.130 136.834  0.00  0.00    +0.000 A 
ATOM     35  C   UNL     1     112.869 128.284 135.410  0.00  0.00    +0.000 A 
ATOM     36  C   UNL     1     113.165 129.565 136.102  0.00  0.00    +0.000 A 
ATOM     37  C   UNL     1     112.955 129.139 135.385  0.00  0.00    +0.000 A 
BRANCH  30  40
ATOM     38  O   UNL     1     111.355 124.317 136.856  0.00  0.00    +0.000 OA
ATOM     39  O   UNL     1     112.691 123.352 136.940  0.00  0.00    +0.000 OA
ATOM     40  C   UNL     1     112.944 125.813 136.890  0.00  0.00    +0.000 A 
ATOM     41  C   UNL     1     112.191 125.476 136.864  0.00  0.00    +0.000 A 
ATOM     42  C   UNL     1     113.611 125.331 136.932  0.00  0.00    +0.000 A 
ATOM     43  C   UNL     1     112.107 124.654 136.881  0.00  0.00    +0.000 A 
ATOM     44  C   UNL     1     113.527 124.511 136.949  0.00  0.00    +0.000 A 
ATOM     45  C   UNL     1     112.775 124.172 136.923  0.00  0.00    +0.000 A 
ENDBRANCH  30  40
ENDBRANCH  24  29
ENDBRANCH   8  24
TORSDOF 7
ENDMDL
MODEL 7
REMARK VINA RESULT:      -9.8      2.457      4.343
REMARK  Name = 11968794
REMARK  7 active torsions:
REMARK  status: ('A' for Active; 'I' for Inactive)
REMARK    1  A    between atoms: O_1  and  C_19
REMARK    2  A    between atoms: O_1  and  C_20
REMARK    3  A    between atoms: O_8  and  C_28
REMARK    4  A    between atoms: O_8  and  C_31
REMARK    5  A    between atoms: C_25  and  C_30
REMARK    6  A    between atoms: C_27  and  C_29
REMARK    7  A    between atoms: C_32  and  C_35
REMARK                            x       y       z     vdW  Elec       q    Type
REMARK                         _______ _______ _______ _____ _____    ______ ____
ROOT
ATOM      1  O   UNL     1     112.805 127.431 139.520  0.00  0.00    +0.000 OA
ATOM      2  O   UNL     1     113.339 129.812 139.104  0.00  0.00    +0.000 OA
ATOM      3  O   UNL     1     112.162 129.065 138.223  0.00  0.00    +0.000 OA
ATOM      4  C   UNL     1     113.572 128.598 139.822  0.00  0.00    +0.000 C 
ATOM      5  C   UNL     1     113.162 129.018 139.243  0.00  0.00    +0.000 C 
ATOM      6  C   UNL     1     113.394 127.805 139.961  0.00  0.00    +0.000 C 
ATOM      7  C   UNL     1     112.573 128.645 138.802  0.00  0.00    +0.000 C 
ATOM      8  C   UNL     1     112.394 127.851 138.940  0.00  0.00    +0.000 C 
ENDROOT
BRANCH   6  11
ATOM      9  O   UNL     1     113.426 127.172 141.242  0.00  0.00    +0.000 OA
ATOM     10  O   UNL     1     114.593 127.177 140.417  0.00  0.00    +0.000 OA
ATOM     11  C   UNL     1     113.804 127.385 140.540  0.00  0.00    +0.000 C 
ENDBRANCH   6  11
BRANCH   4  12
ATOM     12  O   UNL     1     114.160 128.972 140.263  0.00  0.00    +0.000 OA
BRANCH  12  17
ATOM     13  O   UNL     1     113.251 129.632 141.146  0.00  0.00    +0.000 OA
ATOM     14  O   UNL     1     115.221 130.227 140.417  0.00  0.00    +0.000 OA
ATOM     15  O   UNL     1     114.842 131.514 141.377  0.00  0.00    +0.000 OA
ATOM     16  O   UNL     1     113.403 131.547 142.182  0.00  0.00    +0.000 OA
ATOM     17  C   UNL     1     113.971 129.616 140.743  0.00  0.00    +0.000 C 
ATOM     18  C   UNL     1     114.502 130.243 140.820  0.00  0.00    +0.000 C 
ATOM     19  C   UNL     1     114.311 130.887 141.300  0.00  0.00    +0.000 C 
ATOM     20  C   UNL     1     113.592 130.904 141.702  0.00  0.00    +0.000 C 
ATOM     21  C   UNL     1     113.062 130.276 141.625  0.00  0.00    +0.000 C 
BRANCH  21  23
ATOM     22  O   UNL     1     112.181 129.725 142.607  0.00  0.00    +0.000 OA
ATOM     23  C   UNL     1     112.342 130.292 142.028  0.00  0.00    +0.000 C 
ENDBRANCH  21  23
ENDBRANCH  12  17
ENDBRANCH   4  12
BRANCH   8  24
ATOM     24  O   UNL     1     111.805 127.478 138.499  0.00  0.00    +0.000 OA
BRANCH  24  29
ATOM     25  O   UNL     1     111.521 125.348 138.115  0.00  0.00    +0.000 OA
ATOM     26  O   UNL     1     113.109 127.157 137.540  0.00  0.00    +0.000 OA
ATOM     27  O   UNL     1     113.909 126.246 136.758  0.00  0.00    +0.000 OA
ATOM     28  O   UNL     1     113.086 123.451 136.554  0.00  0.00    +0.000 OA
ATOM     29  C   UNL     1     111.928 126.715 138.211  0.00  0.00    +0.000 A 
ATOM     30  C   UNL     1     111.399 126.112 138.402  0.00  0.00    +0.000 A 
ATOM     31  C   UNL     1     112.579 126.554 137.732  0.00  0.00    +0.000 A 
ATOM     32  C   UNL     1     112.702 125.791 137.443  0.00  0.00    +0.000 A 
ATOM     33  C   UNL     1     112.173 125.188 137.635  0.00  0.00    +0.000 A 
ATOM     34  C   UNL     1     113.385 125.637 136.945  0.00  0.00    +0.000 A 
ATOM     35  C   UNL     1     112.289 124.389 137.341  0.00  0.00    +0.000 A 
ATOM     36  C   UNL     1     113.518 124.843 136.641  0.00  0.00    +0.000 A 
ATOM     37  C   UNL     1     112.966 124.215 136.841  0.00  0.00    +0.000 A 
BRANCH  30  40
ATOM     38  O   UNL     1     110.066 125.893 140.921  0.00  0.00    +0.000 OA
ATOM     39  O   UNL     1     108.792 126.752 140.322  0.00  0.00    +0.000 OA
ATOM     40  C   UNL     1     110.746 126.272 138.883  0.00  0.00    +0.000 A 
ATOM     41  C   UNL     1     110.732 126.002 139.662  0.00  0.00    +0.000 A 
ATOM     42  C   UNL     1     110.109 126.702 138.583  0.00  0.00    +0.000 A 
ATOM     43  C   UNL     1     110.080 126.163 140.142  0.00  0.00    +0.000 A 
ATOM     44  C   UNL     1     109.458 126.861 139.062  0.00  0.00    +0.000 A 
ATOM     45  C   UNL     1     109.443 126.592 139.842  0.00  0.00    +0.000 A 
ENDBRANCH  30  40
ENDBRANCH  24  29
ENDBRANCH   8  24
TORSDOF 7
ENDMDL
MODEL 8
REMARK VINA RESULT:      -9.8      2.105      3.140
REMARK  Name = 11968794
REMARK  7 active torsions:
REMARK  status: ('A' for Active; 'I' for Inactive)
REMARK    1  A    between atoms: O_1  and  C_19
REMARK    2  A    between atoms: O_1  and  C_20
REMARK    3  A    between atoms: O_8  and  C_28
REMARK    4  A    between atoms: O_8  and  C_31
REMARK    5  A    between atoms: C_25  and  C_30
REMARK    6  A    between atoms: C_27  and  C_29
REMARK    7  A    between atoms: C_32  and  C_35
REMARK                            x       y       z     vdW  Elec       q    Type
REMARK                         _______ _______ _______ _____ _____    ______ ____
ROOT
ATOM      1  O   UNL     1     111.732 130.441 139.198  0.00  0.00    +0.000 OA
ATOM      2  O   UNL     1     111.743 131.231 136.852  0.00  0.00    +0.000 OA
ATOM      3  O   UNL     1     112.976 130.287 137.410  0.00  0.00    +0.000 OA
ATOM      4  C   UNL     1     111.120 131.176 138.137  0.00  0.00    +0.000 C 
ATOM      5  C   UNL     1     111.739 130.968 137.635  0.00  0.00    +0.000 C 
ATOM      6  C   UNL     1     111.116 130.913 138.919  0.00  0.00    +0.000 C 
ATOM      7  C   UNL     1     112.356 130.496 137.914  0.00  0.00    +0.000 C 
ATOM      8  C   UNL     1     112.353 130.232 138.695  0.00  0.00    +0.000 C 
ENDROOT
BRANCH   6  11
ATOM      9  O   UNL     1     109.913 130.569 139.609  0.00  0.00    +0.000 OA
ATOM     10  O   UNL     1     110.460 131.883 139.738  0.00  0.00    +0.000 OA
ATOM     11  C   UNL     1     110.496 131.122 139.422  0.00  0.00    +0.000 C 
ENDBRANCH   6  11
BRANCH   4  12
ATOM     12  O   UNL     1     110.504 131.649 137.858  0.00  0.00    +0.000 OA
BRANCH  12  17
ATOM     13  O   UNL     1     109.875 130.555 137.187  0.00  0.00    +0.000 OA
ATOM     14  O   UNL     1     109.756 132.706 136.836  0.00  0.00    +0.000 OA
ATOM     15  O   UNL     1     108.753 132.140 135.653  0.00  0.00    +0.000 OA
ATOM     16  O   UNL     1     108.500 130.519 135.493  0.00  0.00    +0.000 OA
ATOM     17  C   UNL     1     110.002 131.367 137.267  0.00  0.00    +0.000 C 
ATOM     18  C   UNL     1     109.629 131.895 136.755  0.00  0.00    +0.000 C 
ATOM     19  C   UNL     1     109.127 131.612 136.164  0.00  0.00    +0.000 C 
ATOM     20  C   UNL     1     109.000 130.801 136.084  0.00  0.00    +0.000 C 
ATOM     21  C   UNL     1     109.374 130.273 136.595  0.00  0.00    +0.000 C 
BRANCH  21  23
ATOM     22  O   UNL     1     108.883 129.040 137.125  0.00  0.00    +0.000 OA
ATOM     23  C   UNL     1     109.247 129.462 136.516  0.00  0.00    +0.000 C 
ENDBRANCH  21  23
ENDBRANCH  12  17
ENDBRANCH   4  12
BRANCH   8  24
ATOM     24  O   UNL     1     112.969 129.760 138.974  0.00  0.00    +0.000 OA
BRANCH  24  29
ATOM     25  O   UNL     1     112.998 128.498 140.754  0.00  0.00    +0.000 OA
ATOM     26  O   UNL     1     111.954 128.544 138.511  0.00  0.00    +0.000 OA
ATOM     27  O   UNL     1     111.269 127.301 138.772  0.00  0.00    +0.000 OA
ATOM     28  O   UNL     1     111.647 125.987 141.352  0.00  0.00    +0.000 OA
ATOM     29  C   UNL     1     112.809 129.136 139.490  0.00  0.00    +0.000 A 
ATOM     30  C   UNL     1     113.157 129.121 140.238  0.00  0.00    +0.000 A 
ATOM     31  C   UNL     1     112.302 128.529 139.259  0.00  0.00    +0.000 A 
ATOM     32  C   UNL     1     112.142 127.905 139.774  0.00  0.00    +0.000 A 
ATOM     33  C   UNL     1     112.490 127.889 140.522  0.00  0.00    +0.000 A 
ATOM     34  C   UNL     1     111.612 127.278 139.521  0.00  0.00    +0.000 A 
ATOM     35  C   UNL     1     112.332 127.246 141.069  0.00  0.00    +0.000 A 
ATOM     36  C   UNL     1     111.442 126.625 140.055  0.00  0.00    +0.000 A 
ATOM     37  C   UNL     1     111.805 126.609 140.834  0.00  0.00    +0.000 A 
BRANCH  30  40
ATOM     38  O   UNL     1     113.685 131.427 141.841  0.00  0.00    +0.000 OA
ATOM     39  O   UNL     1     115.186 131.552 141.166  0.00  0.00    +0.000 OA
ATOM     40  C   UNL     1     113.665 129.729 140.470  0.00  0.00    +0.000 A 
ATOM     41  C   UNL     1     113.421 130.274 141.039  0.00  0.00    +0.000 A 
ATOM     42  C   UNL     1     114.415 129.792 140.132  0.00  0.00    +0.000 A 
ATOM     43  C   UNL     1     113.929 130.882 141.272  0.00  0.00    +0.000 A 
ATOM     44  C   UNL     1     114.921 130.399 140.364  0.00  0.00    +0.000 A 
ATOM     45  C   UNL     1     114.679 130.945 140.934  0.00  0.00    +0.000 A 
ENDBRANCH  30  40
ENDBRANCH  24  29
ENDBRANCH   8  24
TORSDOF 7
ENDMDL
MODEL 9
REMARK VINA RESULT:      -9.8      1.582      2.627
REMARK  Name = 11968794
REMARK  7 active torsions:
REMARK  status: ('A' for Active; 'I' for Inactive)
REMARK    1  A    between atoms: O_1  and  C_19
REMARK    2  A    between atoms: O_1  and  C_20
REMARK    3  A    between atoms: O_8  and  C_28
REMARK    4  A    between atoms: O_8  and  C_31
REMARK    5  A    between atoms: C_25  and  C_30
REMARK    6  A    between atoms: C_27  and  C_29
REMARK    7  A    between atoms: C_32  and  C_35
REMARK                            x       y       z     vdW  Elec       q    Type
REMARK                         _______ _______ _______ _____ _____    ______ ____
ROOT
ATOM      1  O   UNL     1     111.055 128.021 138.083  0.00  0.00    +0.000 OA
ATOM      2  O   UNL     1     109.569 129.719 137.066  0.00  0.00    +0.000 OA
ATOM      3  O   UNL     1     108.957 128.257 137.526  0.00  0.00    +0.000 OA
ATOM      4  C   UNL     1     110.865 129.318 137.514  0.00  0.00    +0.000 C 
ATOM      5  C   UNL     1     110.065 129.153 137.405  0.00  0.00    +0.000 C 
ATOM      6  C   UNL     1     111.361 128.752 137.853  0.00  0.00    +0.000 C 
ATOM      7  C   UNL     1     109.759 128.422 137.635  0.00  0.00    +0.000 C 
ATOM      8  C   UNL     1     110.254 127.856 137.974  0.00  0.00    +0.000 C 
ENDROOT
BRANCH   6  11
ATOM      9  O   UNL     1     112.457 129.046 138.721  0.00  0.00    +0.000 OA
ATOM     10  O   UNL     1     112.667 128.953 137.311  0.00  0.00    +0.000 OA
ATOM     11  C   UNL     1     112.161 128.917 137.962  0.00  0.00    +0.000 C 
ENDBRANCH   6  11
BRANCH   4  12
ATOM     12  O   UNL     1     111.171 130.049 137.283  0.00  0.00    +0.000 OA
BRANCH  12  17
ATOM     13  O   UNL     1     110.666 130.720 138.440  0.00  0.00    +0.000 OA
ATOM     14  O   UNL     1     111.138 131.469 136.445  0.00  0.00    +0.000 OA
ATOM     15  O   UNL     1     110.617 132.851 137.182  0.00  0.00    +0.000 OA
ATOM     16  O   UNL     1     110.129 132.811 138.757  0.00  0.00    +0.000 OA
ATOM     17  C   UNL     1     110.910 130.740 137.651  0.00  0.00    +0.000 C 
ATOM     18  C   UNL     1     110.894 131.450 137.232  0.00  0.00    +0.000 C 
ATOM     19  C   UNL     1     110.634 132.140 137.601  0.00  0.00    +0.000 C 
ATOM     20  C   UNL     1     110.390 132.121 138.388  0.00  0.00    +0.000 C 
ATOM     21  C   UNL     1     110.406 131.411 138.808  0.00  0.00    +0.000 C 
BRANCH  21  23
ATOM     22  O   UNL     1     110.718 131.279 140.196  0.00  0.00    +0.000 OA
ATOM     23  C   UNL     1     110.162 131.391 139.595  0.00  0.00    +0.000 C 
ENDBRANCH  21  23
ENDBRANCH  12  17
ENDBRANCH   4  12
BRANCH   8  24
ATOM     24  O   UNL     1     109.948 127.125 138.204  0.00  0.00    +0.000 OA
BRANCH  24  29
ATOM     25  O   UNL     1     111.015 125.253 138.552  0.00  0.00    +0.000 OA
ATOM     26  O   UNL     1     110.398 126.732 136.666  0.00  0.00    +0.000 OA
ATOM     27  O   UNL     1     111.053 125.855 135.726  0.00  0.00    +0.000 OA
ATOM     28  O   UNL     1     112.356 123.435 136.714  0.00  0.00    +0.000 OA
ATOM     29  C   UNL     1     110.379 126.436 138.063  0.00  0.00    +0.000 A 
ATOM     30  C   UNL     1     110.584 125.942 138.692  0.00  0.00    +0.000 A 
ATOM     31  C   UNL     1     110.604 126.239 137.295  0.00  0.00    +0.000 A 
ATOM     32  C   UNL     1     111.034 125.549 137.154  0.00  0.00    +0.000 A 
ATOM     33  C   UNL     1     111.240 125.056 137.783  0.00  0.00    +0.000 A 
ATOM     34  C   UNL     1     111.263 125.356 136.349  0.00  0.00    +0.000 A 
ATOM     35  C   UNL     1     111.688 124.336 137.650  0.00  0.00    +0.000 A 
ATOM     36  C   UNL     1     111.712 124.639 136.196  0.00  0.00    +0.000 A 
ATOM     37  C   UNL     1     111.926 124.125 136.851  0.00  0.00    +0.000 A 
BRANCH  30  40
ATOM     38  O   UNL     1     111.264 126.867 141.310  0.00  0.00    +0.000 OA
ATOM     39  O   UNL     1     109.685 126.728 141.769  0.00  0.00    +0.000 OA
ATOM     40  C   UNL     1     110.359 126.139 139.462  0.00  0.00    +0.000 A 
ATOM     41  C   UNL     1     110.924 126.405 140.001  0.00  0.00    +0.000 A 
ATOM     42  C   UNL     1     109.570 126.070 139.691  0.00  0.00    +0.000 A 
ATOM     43  C   UNL     1     110.699 126.601 140.771  0.00  0.00    +0.000 A 
ATOM     44  C   UNL     1     109.346 126.266 140.460  0.00  0.00    +0.000 A 
ATOM     45  C   UNL     1     109.910 126.532 141.000  0.00  0.00    +0.000 A 
ENDBRANCH  30  40
ENDBRANCH  24  29
ENDBRANCH   8  24
TORSDOF 7
ENDMDL
MODEL 10
REMARK VINA RESULT:      -9.7      2.058      5.208
REMARK  Name = 11968794
REMARK  7 active torsions:
REMARK  status: ('A' for Active; 'I' for Inactive)
REMARK    1  A    between atoms: O_1  and  C_19
REMARK    2  A    between atoms: O_1  and  C_20
REMARK    3  A    between atoms: O_8  and  C_28
REMARK    4  A    between atoms: O_8  and  C_31
REMARK    5  A    between atoms: C_25  and  C_30
REMARK    6  A    between atoms: C_27  and  C_29
REMARK    7  A    between atoms: C_32  and  C_35
REMARK                            x       y       z     vdW  Elec       q    Type
REMARK                         _______ _______ _______ _____ _____    ______ ____
ROOT
ATOM      1  O   UNL     1     112.039 128.496 137.629  0.00  0.00    +0.000 OA
ATOM      2  O   UNL     1     110.643 126.618 136.821  0.00  0.00    +0.000 OA
ATOM      3  O   UNL     1     110.609 128.068 136.036  0.00  0.00    +0.000 OA
ATOM      4  C   UNL     1     111.591 127.145 137.752  0.00  0.00    +0.000 C 
ATOM      5  C   UNL     1     111.109 127.244 137.091  0.00  0.00    +0.000 C 
ATOM      6  C   UNL     1     112.056 127.770 138.022  0.00  0.00    +0.000 C 
ATOM      7  C   UNL     1     111.091 127.969 136.698  0.00  0.00    +0.000 C 
ATOM      8  C   UNL     1     111.556 128.595 136.966  0.00  0.00    +0.000 C 
ENDROOT
BRANCH   6  11
ATOM      9  O   UNL     1     112.206 127.657 139.438  0.00  0.00    +0.000 OA
ATOM     10  O   UNL     1     113.354 127.587 138.590  0.00  0.00    +0.000 OA
ATOM     11  C   UNL     1     112.538 127.672 138.683  0.00  0.00    +0.000 C 
ENDBRANCH   6  11
BRANCH   4  12
ATOM     12  O   UNL     1     111.608 126.419 138.145  0.00  0.00    +0.000 OA
BRANCH  12  17
ATOM     13  O   UNL     1     112.501 125.821 137.203  0.00  0.00    +0.000 OA
ATOM     14  O   UNL     1     110.980 124.934 138.493  0.00  0.00    +0.000 OA
ATOM     15  O   UNL     1     111.559 123.593 137.725  0.00  0.00    +0.000 OA
ATOM     16  O   UNL     1     112.765 123.738 136.609  0.00  0.00    +0.000 OA
ATOM     17  C   UNL     1     111.897 125.749 137.761  0.00  0.00    +0.000 C 
ATOM     18  C   UNL     1     111.583 125.006 137.935  0.00  0.00    +0.000 C 
ATOM     19  C   UNL     1     111.873 124.336 137.551  0.00  0.00    +0.000 C 
ATOM     20  C   UNL     1     112.476 124.408 136.993  0.00  0.00    +0.000 C 
ATOM     21  C   UNL     1     112.790 125.151 136.819  0.00  0.00    +0.000 C 
BRANCH  21  23
ATOM     22  O   UNL     1     114.147 125.461 136.499  0.00  0.00    +0.000 OA
ATOM     23  C   UNL     1     113.393 125.224 136.261  0.00  0.00    +0.000 C 
ENDBRANCH  21  23
ENDBRANCH  12  17
ENDBRANCH   4  12
BRANCH   8  24
ATOM     24  O   UNL     1     111.539 129.320 136.574  0.00  0.00    +0.000 OA
BRANCH  24  29
ATOM     25  O   UNL     1     113.020 130.923 136.626  0.00  0.00    +0.000 OA
ATOM     26  O   UNL     1     112.776 128.629 135.728  0.00  0.00    +0.000 OA
ATOM     27  O   UNL     1     114.104 128.676 135.167  0.00  0.00    +0.000 OA
ATOM     28  O   UNL     1     115.710 131.091 135.521  0.00  0.00    +0.000 OA
ATOM     29  C   UNL     1     112.239 129.739 136.450  0.00  0.00    +0.000 A 
ATOM     30  C   UNL     1     112.320 130.503 136.749  0.00  0.00    +0.000 A 
ATOM     31  C   UNL     1     112.857 129.394 136.028  0.00  0.00    +0.000 A 
ATOM     32  C   UNL     1     113.558 129.812 135.904  0.00  0.00    +0.000 A 
ATOM     33  C   UNL     1     113.639 130.577 136.203  0.00  0.00    +0.000 A 
ATOM     34  C   UNL     1     114.194 129.441 135.463  0.00  0.00    +0.000 A 
ATOM     35  C   UNL     1     114.363 131.023 136.082  0.00  0.00    +0.000 A 
ATOM     36  C   UNL     1     114.926 129.873 135.331  0.00  0.00    +0.000 A 
ATOM     37  C   UNL     1     115.011 130.669 135.643  0.00  0.00    +0.000 A 
BRANCH  30  40
ATOM     38  O   UNL     1     111.186 131.340 139.235  0.00  0.00    +0.000 OA
ATOM     39  O   UNL     1     109.847 131.886 138.440  0.00  0.00    +0.000 OA
ATOM     40  C   UNL     1     111.701 130.849 137.172  0.00  0.00    +0.000 A 
ATOM     41  C   UNL     1     111.753 130.922 137.992  0.00  0.00    +0.000 A 
ATOM     42  C   UNL     1     111.032 131.122 136.775  0.00  0.00    +0.000 A 
ATOM     43  C   UNL     1     111.134 131.268 138.415  0.00  0.00    +0.000 A 
ATOM     44  C   UNL     1     110.414 131.468 137.197  0.00  0.00    +0.000 A 
ATOM     45  C   UNL     1     110.465 131.541 138.018  0.00  0.00    +0.000 A 
ENDBRANCH  30  40
ENDBRANCH  24  29
ENDBRANCH   8  24
TORSDOF 7
ENDMDL
