MODEL 1
REMARK VINA RESULT:     -10.2      0.000      0.000
REMARK  Name = 73810292
REMARK  12 active torsions:
REMARK  status: ('A' for Active; 'I' for Inactive)
REMARK    1  A    between atoms: O_1  and  C_20
REMARK    2  A    between atoms: O_1  and  C_22
REMARK    3  A    between atoms: O_5  and  C_26
REMARK    4  A    between atoms: O_5  and  C_32
REMARK    5  A    between atoms: O_10  and  C_31
REMARK    6  A    between atoms: O_10  and  C_35
REMARK    7  A    between atoms: O_16  and  C_46
REMARK    8  A    between atoms: C_27  and  C_30
REMARK    9  A    between atoms: C_29  and  C_31
REMARK   10  A    between atoms: C_33  and  C_37
REMARK   11  A    between atoms: C_35  and  C_40
REMARK   12  A    between atoms: C_48  and  C_50
REMARK                            x       y       z     vdW  Elec       q    Type
REMARK                         _______ _______ _______ _____ _____    ______ ____
ROOT
ATOM      1  O   UNL     1     110.745 127.754 137.877  0.00  0.00    +0.000 OA
ATOM      2  O   UNL     1     111.053 128.496 140.218  0.00  0.00    +0.000 OA
ATOM      3  O   UNL     1     109.536 128.400 139.576  0.00  0.00    +0.000 OA
ATOM      4  C   UNL     1     111.606 128.050 138.979  0.00  0.00    +0.000 C 
ATOM      5  C   UNL     1     110.950 128.249 139.438  0.00  0.00    +0.000 C 
ATOM      6  C   UNL     1     110.191 128.201 139.118  0.00  0.00    +0.000 C 
ATOM      7  C   UNL     1     111.503 127.803 138.199  0.00  0.00    +0.000 C 
ATOM      8  C   UNL     1     110.089 127.953 138.337  0.00  0.00    +0.000 C 
ENDROOT
BRANCH   8  10
ATOM      9  O   UNL     1     109.211 128.077 137.218  0.00  0.00    +0.000 OA
ATOM     10  C   UNL     1     109.331 127.905 138.016  0.00  0.00    +0.000 C 
ENDBRANCH   8  10
BRANCH   4  11
ATOM     11  O   UNL     1     112.365 128.099 139.300  0.00  0.00    +0.000 OA
BRANCH  11  16
ATOM     12  O   UNL     1     112.428 129.487 138.963  0.00  0.00    +0.000 OA
ATOM     13  O   UNL     1     113.761 128.245 140.167  0.00  0.00    +0.000 OA
ATOM     14  O   UNL     1     114.523 129.705 140.263  0.00  0.00    +0.000 OA
ATOM     15  O   UNL     1     113.889 131.019 139.493  0.00  0.00    +0.000 OA
ATOM     16  C   UNL     1     112.746 128.829 139.348  0.00  0.00    +0.000 C 
ATOM     17  C   UNL     1     113.444 128.902 139.781  0.00  0.00    +0.000 C 
ATOM     18  C   UNL     1     113.825 129.633 139.830  0.00  0.00    +0.000 C 
ATOM     19  C   UNL     1     113.508 130.289 139.445  0.00  0.00    +0.000 C 
ATOM     20  C   UNL     1     112.809 130.217 139.011  0.00  0.00    +0.000 C 
BRANCH  20  21
ATOM     21  C   UNL     1     112.492 130.873 138.626  0.00  0.00    +0.000 C 
BRANCH  21  22
ATOM     22  O   UNL     1     112.161 130.791 137.875  0.00  0.00    +0.000 OA
BRANCH  22  24
ATOM     23  O   UNL     1     112.114 132.118 137.349  0.00  0.00    +0.000 OA
ATOM     24  C   UNL     1     111.733 131.413 137.542  0.00  0.00    +0.000 C 
BRANCH  24  25
ATOM     25  C   UNL     1     110.924 131.329 137.403  0.00  0.00    +0.000 C 
ATOM     26  C   UNL     1     110.578 131.696 136.751  0.00  0.00    +0.000 C 
BRANCH  26  29
ATOM     27  O   UNL     1     108.429 130.930 135.029  0.00  0.00    +0.000 OA
ATOM     28  O   UNL     1     107.342 131.360 136.194  0.00  0.00    +0.000 OA
ATOM     29  C   UNL     1     109.769 131.612 136.612  0.00  0.00    +0.000 A 
ATOM     30  C   UNL     1     109.503 131.313 135.890  0.00  0.00    +0.000 A 
ATOM     31  C   UNL     1     109.225 131.827 137.194  0.00  0.00    +0.000 A 
ATOM     32  C   UNL     1     108.694 131.229 135.751  0.00  0.00    +0.000 A 
ATOM     33  C   UNL     1     108.416 131.743 137.055  0.00  0.00    +0.000 A 
ATOM     34  C   UNL     1     108.151 131.444 136.333  0.00  0.00    +0.000 A 
ENDBRANCH  26  29
ENDBRANCH  24  25
ENDBRANCH  22  24
ENDBRANCH  21  22
ENDBRANCH  20  21
ENDBRANCH  11  16
ENDBRANCH   4  11
BRANCH   7  35
ATOM     35  O   UNL     1     112.159 127.604 137.739  0.00  0.00    +0.000 OA
BRANCH  35  39
ATOM     36  O   UNL     1     112.549 126.082 136.224  0.00  0.00    +0.000 OA
ATOM     37  O   UNL     1     111.283 124.844 138.507  0.00  0.00    +0.000 OA
ATOM     38  O   UNL     1     112.013 123.219 136.193  0.00  0.00    +0.000 OA
ATOM     39  C   UNL     1     112.190 126.872 137.359  0.00  0.00    +0.000 A 
ATOM     40  C   UNL     1     112.518 126.814 136.605  0.00  0.00    +0.000 A 
ATOM     41  C   UNL     1     111.892 126.200 137.733  0.00  0.00    +0.000 A 
ATOM     42  C   UNL     1     111.923 125.469 137.353  0.00  0.00    +0.000 A 
ATOM     43  C   UNL     1     112.251 125.410 136.598  0.00  0.00    +0.000 A 
ATOM     44  C   UNL     1     111.610 124.776 137.752  0.00  0.00    +0.000 A 
ATOM     45  C   UNL     1     112.289 124.654 136.191  0.00  0.00    +0.000 A 
ATOM     46  C   UNL     1     111.639 124.011 137.362  0.00  0.00    +0.000 A 
ATOM     47  C   UNL     1     111.981 123.950 136.576  0.00  0.00    +0.000 A 
BRANCH  40  49
ATOM     48  O   UNL     1     113.712 129.501 135.107  0.00  0.00    +0.000 OA
ATOM     49  C   UNL     1     112.816 127.486 136.230  0.00  0.00    +0.000 A 
ATOM     50  C   UNL     1     112.327 127.939 135.745  0.00  0.00    +0.000 A 
ATOM     51  C   UNL     1     113.604 127.705 136.341  0.00  0.00    +0.000 A 
ATOM     52  C   UNL     1     112.625 128.611 135.370  0.00  0.00    +0.000 A 
ATOM     53  C   UNL     1     113.903 128.376 135.967  0.00  0.00    +0.000 A 
ATOM     54  C   UNL     1     113.413 128.830 135.481  0.00  0.00    +0.000 A 
BRANCH  52  55
ATOM     55  O   UNL     1     112.136 129.064 134.885  0.00  0.00    +0.000 OA
ATOM     56  C   UNL     1     111.423 128.752 134.612  0.00  0.00    +0.000 C 
ENDBRANCH  52  55
ENDBRANCH  40  49
ENDBRANCH  35  39
ENDBRANCH   7  35
TORSDOF 12
ENDMDL
MODEL 2
REMARK VINA RESULT:     -10.1      1.454      5.867
REMARK  Name = 73810292
REMARK  12 active torsions:
REMARK  status: ('A' for Active; 'I' for Inactive)
REMARK    1  A    between atoms: O_1  and  C_20
REMARK    2  A    between atoms: O_1  and  C_22
REMARK    3  A    between atoms: O_5  and  C_26
REMARK    4  A    between atoms: O_5  and  C_32
REMARK    5  A    between atoms: O_10  and  C_31
REMARK    6  A    between atoms: O_10  and  C_35
REMARK    7  A    between atoms: O_16  and  C_46
REMARK    8  A    between atoms: C_27  and  C_30
REMARK    9  A    between atoms: C_29  and  C_31
REMARK   10  A    between atoms: C_33  and  C_37
REMARK   11  A    between atoms: C_35  and  C_40
REMARK   12  A    between atoms: C_48  and  C_50
REMARK                            x       y       z     vdW  Elec       q    Type
REMARK                         _______ _______ _______ _____ _____    ______ ____
ROOT
ATOM      1  O   UNL     1     112.866 128.432 136.738  0.00  0.00    +0.000 OA
ATOM      2  O   UNL     1     111.458 129.722 135.163  0.00  0.00    +0.000 OA
ATOM      3  O   UNL     1     112.871 129.046 134.643  0.00  0.00    +0.000 OA
ATOM      4  C   UNL     1     111.690 129.200 136.472  0.00  0.00    +0.000 C 
ATOM      5  C   UNL     1     111.927 129.292 135.688  0.00  0.00    +0.000 C 
ATOM      6  C   UNL     1     112.634 128.954 135.427  0.00  0.00    +0.000 C 
ATOM      7  C   UNL     1     112.159 128.770 136.997  0.00  0.00    +0.000 C 
ATOM      8  C   UNL     1     113.103 128.524 135.952  0.00  0.00    +0.000 C 
ENDROOT
BRANCH   8  10
ATOM      9  O   UNL     1     114.469 128.183 136.187  0.00  0.00    +0.000 OA
ATOM     10  C   UNL     1     113.809 128.186 135.693  0.00  0.00    +0.000 C 
ENDBRANCH   8  10
BRANCH   4  11
ATOM     11  O   UNL     1     110.984 129.538 136.733  0.00  0.00    +0.000 OA
BRANCH  11  16
ATOM     12  O   UNL     1     110.235 128.435 136.218  0.00  0.00    +0.000 OA
ATOM     13  O   UNL     1     109.595 130.418 136.871  0.00  0.00    +0.000 OA
ATOM     14  O   UNL     1     108.151 129.754 136.426  0.00  0.00    +0.000 OA
ATOM     15  O   UNL     1     108.096 128.212 135.842  0.00  0.00    +0.000 OA
ATOM     16  C   UNL     1     110.262 129.207 136.510  0.00  0.00    +0.000 C 
ATOM     17  C   UNL     1     109.567 129.646 136.579  0.00  0.00    +0.000 C 
ATOM     18  C   UNL     1     108.845 129.314 136.356  0.00  0.00    +0.000 C 
ATOM     19  C   UNL     1     108.818 128.543 136.065  0.00  0.00    +0.000 C 
ATOM     20  C   UNL     1     109.513 128.103 135.996  0.00  0.00    +0.000 C 
BRANCH  20  21
ATOM     21  C   UNL     1     109.486 127.333 135.704  0.00  0.00    +0.000 C 
BRANCH  21  22
ATOM     22  O   UNL     1     109.794 126.712 136.151  0.00  0.00    +0.000 OA
BRANCH  22  24
ATOM     23  O   UNL     1     109.740 125.821 135.035  0.00  0.00    +0.000 OA
ATOM     24  C   UNL     1     110.038 126.016 135.779  0.00  0.00    +0.000 C 
BRANCH  24  25
ATOM     25  C   UNL     1     110.580 125.518 136.151  0.00  0.00    +0.000 C 
ATOM     26  C   UNL     1     111.277 125.306 135.766  0.00  0.00    +0.000 C 
BRANCH  26  29
ATOM     27  O   UNL     1     111.839 122.931 137.253  0.00  0.00    +0.000 OA
ATOM     28  O   UNL     1     113.445 123.311 137.254  0.00  0.00    +0.000 OA
ATOM     29  C   UNL     1     111.819 124.807 136.138  0.00  0.00    +0.000 A 
ATOM     30  C   UNL     1     111.559 124.118 136.509  0.00  0.00    +0.000 A 
ATOM     31  C   UNL     1     112.622 124.997 136.138  0.00  0.00    +0.000 A 
ATOM     32  C   UNL     1     112.101 123.620 136.881  0.00  0.00    +0.000 A 
ATOM     33  C   UNL     1     113.164 124.498 136.510  0.00  0.00    +0.000 A 
ATOM     34  C   UNL     1     112.903 123.810 136.882  0.00  0.00    +0.000 A 
ENDBRANCH  26  29
ENDBRANCH  24  25
ENDBRANCH  22  24
ENDBRANCH  21  22
ENDBRANCH  20  21
ENDBRANCH  11  16
ENDBRANCH   4  11
BRANCH   7  35
ATOM     35  O   UNL     1     111.922 128.678 137.783  0.00  0.00    +0.000 OA
BRANCH  35  39
ATOM     36  O   UNL     1     112.914 128.780 139.724  0.00  0.00    +0.000 OA
ATOM     37  O   UNL     1     113.871 130.937 138.057  0.00  0.00    +0.000 OA
ATOM     38  O   UNL     1     114.900 130.635 140.773  0.00  0.00    +0.000 OA
ATOM     39  C   UNL     1     112.414 128.932 138.395  0.00  0.00    +0.000 A 
ATOM     40  C   UNL     1     112.422 128.526 139.112  0.00  0.00    +0.000 A 
ATOM     41  C   UNL     1     112.896 129.593 138.288  0.00  0.00    +0.000 A 
ATOM     42  C   UNL     1     113.388 129.847 138.900  0.00  0.00    +0.000 A 
ATOM     43  C   UNL     1     113.396 129.440 139.619  0.00  0.00    +0.000 A 
ATOM     44  C   UNL     1     113.886 130.536 138.779  0.00  0.00    +0.000 A 
ATOM     45  C   UNL     1     113.904 129.695 140.263  0.00  0.00    +0.000 A 
ATOM     46  C   UNL     1     114.400 130.806 139.412  0.00  0.00    +0.000 A 
ATOM     47  C   UNL     1     114.409 130.383 140.159  0.00  0.00    +0.000 A 
BRANCH  40  49
ATOM     48  O   UNL     1     110.494 125.881 139.537  0.00  0.00    +0.000 OA
ATOM     49  C   UNL     1     111.940 127.865 139.218  0.00  0.00    +0.000 A 
ATOM     50  C   UNL     1     111.139 127.962 139.390  0.00  0.00    +0.000 A 
ATOM     51  C   UNL     1     112.259 127.107 139.153  0.00  0.00    +0.000 A 
ATOM     52  C   UNL     1     110.657 127.301 139.497  0.00  0.00    +0.000 A 
ATOM     53  C   UNL     1     111.777 126.446 139.259  0.00  0.00    +0.000 A 
ATOM     54  C   UNL     1     110.976 126.543 139.431  0.00  0.00    +0.000 A 
BRANCH  52  55
ATOM     55  O   UNL     1     109.856 127.397 139.669  0.00  0.00    +0.000 OA
ATOM     56  C   UNL     1     109.614 127.997 140.181  0.00  0.00    +0.000 C 
ENDBRANCH  52  55
ENDBRANCH  40  49
ENDBRANCH  35  39
ENDBRANCH   7  35
TORSDOF 12
ENDMDL
MODEL 3
REMARK VINA RESULT:     -10.1      1.407      5.480
REMARK  Name = 73810292
REMARK  12 active torsions:
REMARK  status: ('A' for Active; 'I' for Inactive)
REMARK    1  A    between atoms: O_1  and  C_20
REMARK    2  A    between atoms: O_1  and  C_22
REMARK    3  A    between atoms: O_5  and  C_26
REMARK    4  A    between atoms: O_5  and  C_32
REMARK    5  A    between atoms: O_10  and  C_31
REMARK    6  A    between atoms: O_10  and  C_35
REMARK    7  A    between atoms: O_16  and  C_46
REMARK    8  A    between atoms: C_27  and  C_30
REMARK    9  A    between atoms: C_29  and  C_31
REMARK   10  A    between atoms: C_33  and  C_37
REMARK   11  A    between atoms: C_35  and  C_40
REMARK   12  A    between atoms: C_48  and  C_50
REMARK                            x       y       z     vdW  Elec       q    Type
REMARK                         _______ _______ _______ _____ _____    ______ ____
ROOT
ATOM      1  O   UNL     1     112.276 129.660 137.163  0.00  0.00    +0.000 OA
ATOM      2  O   UNL     1     113.758 128.139 135.892  0.00  0.00    +0.000 OA
ATOM      3  O   UNL     1     114.270 129.660 136.274  0.00  0.00    +0.000 OA
ATOM      4  C   UNL     1     112.515 128.392 136.548  0.00  0.00    +0.000 C 
ATOM      5  C   UNL     1     113.264 128.646 136.316  0.00  0.00    +0.000 C 
ATOM      6  C   UNL     1     113.520 129.407 136.506  0.00  0.00    +0.000 C 
ATOM      7  C   UNL     1     112.021 128.899 136.972  0.00  0.00    +0.000 C 
ATOM      8  C   UNL     1     113.026 129.914 136.930  0.00  0.00    +0.000 C 
ENDROOT
BRANCH   8  10
ATOM      9  O   UNL     1     113.021 131.033 137.817  0.00  0.00    +0.000 OA
ATOM     10  C   UNL     1     113.281 130.674 137.121  0.00  0.00    +0.000 C 
ENDBRANCH   8  10
BRANCH   4  11
ATOM     11  O   UNL     1     112.259 127.631 136.357  0.00  0.00    +0.000 OA
BRANCH  11  16
ATOM     12  O   UNL     1     112.888 127.104 137.528  0.00  0.00    +0.000 OA
ATOM     13  O   UNL     1     112.063 126.100 135.773  0.00  0.00    +0.000 OA
ATOM     14  O   UNL     1     112.593 124.808 136.651  0.00  0.00    +0.000 OA
ATOM     15  O   UNL     1     113.320 125.047 138.114  0.00  0.00    +0.000 OA
ATOM     16  C   UNL     1     112.524 126.985 136.796  0.00  0.00    +0.000 C 
ATOM     17  C   UNL     1     112.426 126.219 136.505  0.00  0.00    +0.000 C 
ATOM     18  C   UNL     1     112.692 125.573 136.944  0.00  0.00    +0.000 C 
ATOM     19  C   UNL     1     113.055 125.693 137.674  0.00  0.00    +0.000 C 
ATOM     20  C   UNL     1     113.153 126.458 137.967  0.00  0.00    +0.000 C 
BRANCH  20  21
ATOM     21  C   UNL     1     113.516 126.577 138.697  0.00  0.00    +0.000 C 
BRANCH  21  22
ATOM     22  O   UNL     1     113.196 127.117 139.234  0.00  0.00    +0.000 OA
BRANCH  22  24
ATOM     23  O   UNL     1     113.748 126.753 140.501  0.00  0.00    +0.000 OA
ATOM     24  C   UNL     1     113.616 127.319 139.915  0.00  0.00    +0.000 C 
BRANCH  24  25
ATOM     25  C   UNL     1     113.902 128.087 140.011  0.00  0.00    +0.000 C 
ATOM     26  C   UNL     1     113.711 128.516 140.688  0.00  0.00    +0.000 C 
BRANCH  26  29
ATOM     27  O   UNL     1     113.367 131.183 141.657  0.00  0.00    +0.000 OA
ATOM     28  O   UNL     1     114.856 131.588 141.072  0.00  0.00    +0.000 OA
ATOM     29  C   UNL     1     113.997 129.284 140.784  0.00  0.00    +0.000 A 
ATOM     30  C   UNL     1     113.540 129.850 141.172  0.00  0.00    +0.000 A 
ATOM     31  C   UNL     1     114.741 129.487 140.492  0.00  0.00    +0.000 A 
ATOM     32  C   UNL     1     113.826 130.618 141.268  0.00  0.00    +0.000 A 
ATOM     33  C   UNL     1     115.028 130.255 140.588  0.00  0.00    +0.000 A 
ATOM     34  C   UNL     1     114.570 130.820 140.976  0.00  0.00    +0.000 A 
ENDBRANCH  26  29
ENDBRANCH  24  25
ENDBRANCH  22  24
ENDBRANCH  21  22
ENDBRANCH  20  21
ENDBRANCH  11  16
ENDBRANCH   4  11
BRANCH   7  35
ATOM     35  O   UNL     1     111.271 128.645 137.205  0.00  0.00    +0.000 OA
BRANCH  35  39
ATOM     36  O   UNL     1     109.297 129.573 137.260  0.00  0.00    +0.000 OA
ATOM     37  O   UNL     1     110.518 130.099 134.696  0.00  0.00    +0.000 OA
ATOM     38  O   UNL     1     107.850 131.136 135.273  0.00  0.00    +0.000 OA
ATOM     39  C   UNL     1     110.601 129.069 136.973  0.00  0.00    +0.000 A 
ATOM     40  C   UNL     1     109.966 129.150 137.492  0.00  0.00    +0.000 A 
ATOM     41  C   UNL     1     110.569 129.410 136.223  0.00  0.00    +0.000 A 
ATOM     42  C   UNL     1     109.900 129.834 135.992  0.00  0.00    +0.000 A 
ATOM     43  C   UNL     1     109.263 129.916 136.511  0.00  0.00    +0.000 A 
ATOM     44  C   UNL     1     109.877 130.185 135.208  0.00  0.00    +0.000 A 
ATOM     45  C   UNL     1     108.561 130.354 136.281  0.00  0.00    +0.000 A 
ATOM     46  C   UNL     1     109.183 130.628 134.961  0.00  0.00    +0.000 A 
ATOM     47  C   UNL     1     108.521 130.712 135.501  0.00  0.00    +0.000 A 
BRANCH  40  49
ATOM     48  O   UNL     1     110.096 127.786 140.494  0.00  0.00    +0.000 OA
ATOM     49  C   UNL     1     109.998 128.808 138.242  0.00  0.00    +0.000 A 
ATOM     50  C   UNL     1     109.755 128.028 138.351  0.00  0.00    +0.000 A 
ATOM     51  C   UNL     1     110.273 129.248 138.884  0.00  0.00    +0.000 A 
ATOM     52  C   UNL     1     109.788 127.686 139.102  0.00  0.00    +0.000 A 
ATOM     53  C   UNL     1     110.306 128.908 139.634  0.00  0.00    +0.000 A 
ATOM     54  C   UNL     1     110.063 128.126 139.743  0.00  0.00    +0.000 A 
BRANCH  52  55
ATOM     55  O   UNL     1     109.545 126.906 139.211  0.00  0.00    +0.000 OA
ATOM     56  C   UNL     1     109.399 126.424 138.557  0.00  0.00    +0.000 C 
ENDBRANCH  52  55
ENDBRANCH  40  49
ENDBRANCH  35  39
ENDBRANCH   7  35
TORSDOF 12
ENDMDL
MODEL 4
REMARK VINA RESULT:     -10.1      1.458      5.232
REMARK  Name = 73810292
REMARK  12 active torsions:
REMARK  status: ('A' for Active; 'I' for Inactive)
REMARK    1  A    between atoms: O_1  and  C_20
REMARK    2  A    between atoms: O_1  and  C_22
REMARK    3  A    between atoms: O_5  and  C_26
REMARK    4  A    between atoms: O_5  and  C_32
REMARK    5  A    between atoms: O_10  and  C_31
REMARK    6  A    between atoms: O_10  and  C_35
REMARK    7  A    between atoms: O_16  and  C_46
REMARK    8  A    between atoms: C_27  and  C_30
REMARK    9  A    between atoms: C_29  and  C_31
REMARK   10  A    between atoms: C_33  and  C_37
REMARK   11  A    between atoms: C_35  and  C_40
REMARK   12  A    between atoms: C_48  and  C_50
REMARK                            x       y       z     vdW  Elec       q    Type
REMARK                         _______ _______ _______ _____ _____    ______ ____
ROOT
ATOM      1  O   UNL     1     111.886 127.938 138.972  0.00  0.00    +0.000 OA
ATOM      2  O   UNL     1     109.436 128.056 139.299  0.00  0.00    +0.000 OA
ATOM      3  O   UNL     1     110.283 126.763 139.876  0.00  0.00    +0.000 OA
ATOM      4  C   UNL     1     110.645 128.623 138.793  0.00  0.00    +0.000 C 
ATOM      5  C   UNL     1     110.253 128.017 139.190  0.00  0.00    +0.000 C 
ATOM      6  C   UNL     1     110.676 127.370 139.479  0.00  0.00    +0.000 C 
ATOM      7  C   UNL     1     111.462 128.584 138.684  0.00  0.00    +0.000 C 
ATOM      8  C   UNL     1     111.493 127.330 139.370  0.00  0.00    +0.000 C 
ENDROOT
BRANCH   8  10
ATOM      9  O   UNL     1     112.601 126.435 139.270  0.00  0.00    +0.000 OA
ATOM     10  C   UNL     1     111.917 126.684 139.658  0.00  0.00    +0.000 C 
ENDBRANCH   8  10
BRANCH   4  11
ATOM     11  O   UNL     1     110.222 129.270 138.504  0.00  0.00    +0.000 OA
BRANCH  11  16
ATOM     12  O   UNL     1     109.876 128.526 137.333  0.00  0.00    +0.000 OA
ATOM     13  O   UNL     1     109.227 130.494 138.020  0.00  0.00    +0.000 OA
ATOM     14  O   UNL     1     108.384 130.362 136.608  0.00  0.00    +0.000 OA
ATOM     15  O   UNL     1     108.536 129.007 135.679  0.00  0.00    +0.000 OA
ATOM     16  C   UNL     1     109.800 129.204 137.798  0.00  0.00    +0.000 C 
ATOM     17  C   UNL     1     109.303 129.816 137.555  0.00  0.00    +0.000 C 
ATOM     18  C   UNL     1     108.881 129.750 136.849  0.00  0.00    +0.000 C 
ATOM     19  C   UNL     1     108.958 129.073 136.385  0.00  0.00    +0.000 C 
ATOM     20  C   UNL     1     109.455 128.460 136.627  0.00  0.00    +0.000 C 
BRANCH  20  21
ATOM     21  C   UNL     1     109.531 127.783 136.163  0.00  0.00    +0.000 C 
BRANCH  21  22
ATOM     22  O   UNL     1     110.281 127.503 135.962  0.00  0.00    +0.000 OA
BRANCH  22  24
ATOM     23  O   UNL     1     109.991 126.522 134.965  0.00  0.00    +0.000 OA
ATOM     24  C   UNL     1     110.370 126.738 135.664  0.00  0.00    +0.000 C 
BRANCH  24  25
ATOM     25  C   UNL     1     110.838 126.191 136.066  0.00  0.00    +0.000 C 
ATOM     26  C   UNL     1     111.205 125.580 135.652  0.00  0.00    +0.000 C 
BRANCH  26  29
ATOM     27  O   UNL     1     113.784 124.635 136.442  0.00  0.00    +0.000 OA
ATOM     28  O   UNL     1     113.078 123.390 137.261  0.00  0.00    +0.000 OA
ATOM     29  C   UNL     1     111.673 125.032 136.055  0.00  0.00    +0.000 A 
ATOM     30  C   UNL     1     112.495 125.107 136.047  0.00  0.00    +0.000 A 
ATOM     31  C   UNL     1     111.321 124.409 136.464  0.00  0.00    +0.000 A 
ATOM     32  C   UNL     1     112.963 124.559 136.450  0.00  0.00    +0.000 A 
ATOM     33  C   UNL     1     111.789 123.862 136.867  0.00  0.00    +0.000 A 
ATOM     34  C   UNL     1     112.610 123.937 136.859  0.00  0.00    +0.000 A 
ENDBRANCH  26  29
ENDBRANCH  24  25
ENDBRANCH  22  24
ENDBRANCH  21  22
ENDBRANCH  20  21
ENDBRANCH  11  16
ENDBRANCH   4  11
BRANCH   7  35
ATOM     35  O   UNL     1     111.855 129.191 138.287  0.00  0.00    +0.000 OA
BRANCH  35  39
ATOM     36  O   UNL     1     113.818 130.127 138.470  0.00  0.00    +0.000 OA
ATOM     37  O   UNL     1     112.663 129.825 141.101  0.00  0.00    +0.000 OA
ATOM     38  O   UNL     1     115.304 131.035 140.805  0.00  0.00    +0.000 OA
ATOM     39  C   UNL     1     112.527 129.536 138.620  0.00  0.00    +0.000 A 
ATOM     40  C   UNL     1     113.147 129.782 138.137  0.00  0.00    +0.000 A 
ATOM     41  C   UNL     1     112.576 129.633 139.438  0.00  0.00    +0.000 A 
ATOM     42  C   UNL     1     113.248 129.978 139.772  0.00  0.00    +0.000 A 
ATOM     43  C   UNL     1     113.869 130.225 139.288  0.00  0.00    +0.000 A 
ATOM     44  C   UNL     1     113.289 130.075 140.624  0.00  0.00    +0.000 A 
ATOM     45  C   UNL     1     114.573 130.585 139.623  0.00  0.00    +0.000 A 
ATOM     46  C   UNL     1     113.985 130.433 140.978  0.00  0.00    +0.000 A 
ATOM     47  C   UNL     1     114.631 130.689 140.474  0.00  0.00    +0.000 A 
BRANCH  40  49
ATOM     48  O   UNL     1     112.947 129.394 134.865  0.00  0.00    +0.000 OA
ATOM     49  C   UNL     1     113.097 129.684 137.319  0.00  0.00    +0.000 A 
ATOM     50  C   UNL     1     113.413 129.011 136.963  0.00  0.00    +0.000 A 
ATOM     51  C   UNL     1     112.731 130.261 136.856  0.00  0.00    +0.000 A 
ATOM     52  C   UNL     1     113.364 128.914 136.145  0.00  0.00    +0.000 A 
ATOM     53  C   UNL     1     112.681 130.165 136.039  0.00  0.00    +0.000 A 
ATOM     54  C   UNL     1     112.997 129.491 135.683  0.00  0.00    +0.000 A 
BRANCH  52  55
ATOM     55  O   UNL     1     113.680 128.240 135.790  0.00  0.00    +0.000 OA
ATOM     56  C   UNL     1     114.435 127.981 135.996  0.00  0.00    +0.000 C 
ENDBRANCH  52  55
ENDBRANCH  40  49
ENDBRANCH  35  39
ENDBRANCH   7  35
TORSDOF 12
ENDMDL
MODEL 5
REMARK VINA RESULT:     -10.0      1.464      4.867
REMARK  Name = 73810292
REMARK  12 active torsions:
REMARK  status: ('A' for Active; 'I' for Inactive)
REMARK    1  A    between atoms: O_1  and  C_20
REMARK    2  A    between atoms: O_1  and  C_22
REMARK    3  A    between atoms: O_5  and  C_26
REMARK    4  A    between atoms: O_5  and  C_32
REMARK    5  A    between atoms: O_10  and  C_31
REMARK    6  A    between atoms: O_10  and  C_35
REMARK    7  A    between atoms: O_16  and  C_46
REMARK    8  A    between atoms: C_27  and  C_30
REMARK    9  A    between atoms: C_29  and  C_31
REMARK   10  A    between atoms: C_33  and  C_37
REMARK   11  A    between atoms: C_35  and  C_40
REMARK   12  A    between atoms: C_48  and  C_50
REMARK                            x       y       z     vdW  Elec       q    Type
REMARK                         _______ _______ _______ _____ _____    ______ ____
ROOT
ATOM      1  O   UNL     1     110.331 128.709 138.401  0.00  0.00    +0.000 OA
ATOM      2  O   UNL     1     110.114 126.244 138.344  0.00  0.00    +0.000 OA
ATOM      3  O   UNL     1     109.429 127.105 139.574  0.00  0.00    +0.000 OA
ATOM      4  C   UNL     1     110.601 127.457 137.768  0.00  0.00    +0.000 C 
ATOM      5  C   UNL     1     110.187 127.066 138.363  0.00  0.00    +0.000 C 
ATOM      6  C   UNL     1     109.843 127.496 138.978  0.00  0.00    +0.000 C 
ATOM      7  C   UNL     1     110.674 128.279 137.787  0.00  0.00    +0.000 C 
ATOM      8  C   UNL     1     109.916 128.317 138.998  0.00  0.00    +0.000 C 
ENDROOT
BRANCH   8  10
ATOM      9  O   UNL     1     109.976 129.388 139.940  0.00  0.00    +0.000 OA
ATOM     10  C   UNL     1     109.573 128.748 139.612  0.00  0.00    +0.000 C 
ENDBRANCH   8  10
BRANCH   4  11
ATOM     11  O   UNL     1     110.944 127.027 137.152  0.00  0.00    +0.000 OA
BRANCH  11  16
ATOM     12  O   UNL     1     112.085 126.756 137.970  0.00  0.00    +0.000 OA
ATOM     13  O   UNL     1     111.525 125.997 136.001  0.00  0.00    +0.000 OA
ATOM     14  O   UNL     1     112.955 125.212 136.243  0.00  0.00    +0.000 OA
ATOM     15  O   UNL     1     113.806 125.456 137.635  0.00  0.00    +0.000 OA
ATOM     16  C   UNL     1     111.660 126.634 137.273  0.00  0.00    +0.000 C 
ATOM     17  C   UNL     1     111.950 126.119 136.698  0.00  0.00    +0.000 C 
ATOM     18  C   UNL     1     112.666 125.726 136.819  0.00  0.00    +0.000 C 
ATOM     19  C   UNL     1     113.090 125.849 137.515  0.00  0.00    +0.000 C 
ATOM     20  C   UNL     1     112.801 126.363 138.091  0.00  0.00    +0.000 C 
BRANCH  20  21
ATOM     21  C   UNL     1     113.225 126.485 138.787  0.00  0.00    +0.000 C 
BRANCH  21  22
ATOM     22  O   UNL     1     113.470 127.246 138.992  0.00  0.00    +0.000 OA
BRANCH  22  24
ATOM     23  O   UNL     1     114.132 126.849 140.195  0.00  0.00    +0.000 OA
ATOM     24  C   UNL     1     113.704 127.409 139.767  0.00  0.00    +0.000 C 
BRANCH  24  25
ATOM     25  C   UNL     1     113.508 128.132 140.113  0.00  0.00    +0.000 C 
ATOM     26  C   UNL     1     114.077 128.555 140.534  0.00  0.00    +0.000 C 
BRANCH  26  29
ATOM     27  O   UNL     1     114.685 131.301 141.043  0.00  0.00    +0.000 OA
ATOM     28  O   UNL     1     113.293 131.447 141.918  0.00  0.00    +0.000 OA
ATOM     29  C   UNL     1     113.881 129.278 140.880  0.00  0.00    +0.000 A 
ATOM     30  C   UNL     1     114.380 129.928 140.789  0.00  0.00    +0.000 A 
ATOM     31  C   UNL     1     113.185 129.352 141.317  0.00  0.00    +0.000 A 
ATOM     32  C   UNL     1     114.184 130.651 141.135  0.00  0.00    +0.000 A 
ATOM     33  C   UNL     1     112.989 130.075 141.663  0.00  0.00    +0.000 A 
ATOM     34  C   UNL     1     113.489 130.724 141.572  0.00  0.00    +0.000 A 
ENDBRANCH  26  29
ENDBRANCH  24  25
ENDBRANCH  22  24
ENDBRANCH  21  22
ENDBRANCH  20  21
ENDBRANCH  11  16
ENDBRANCH   4  11
BRANCH   7  35
ATOM     35  O   UNL     1     111.089 128.671 137.190  0.00  0.00    +0.000 OA
BRANCH  35  39
ATOM     36  O   UNL     1     110.783 130.518 136.070  0.00  0.00    +0.000 OA
ATOM     37  O   UNL     1     108.294 129.056 136.183  0.00  0.00    +0.000 OA
ATOM     38  O   UNL     1     108.412 131.616 134.783  0.00  0.00    +0.000 OA
ATOM     39  C   UNL     1     110.721 129.265 136.753  0.00  0.00    +0.000 A 
ATOM     40  C   UNL     1     111.152 129.923 136.507  0.00  0.00    +0.000 A 
ATOM     41  C   UNL     1     109.920 129.201 136.562  0.00  0.00    +0.000 A 
ATOM     42  C   UNL     1     109.552 129.795 136.125  0.00  0.00    +0.000 A 
ATOM     43  C   UNL     1     109.983 130.455 135.879  0.00  0.00    +0.000 A 
ATOM     44  C   UNL     1     108.718 129.718 135.932  0.00  0.00    +0.000 A 
ATOM     45  C   UNL     1     109.611 131.080 135.423  0.00  0.00    +0.000 A 
ATOM     46  C   UNL     1     108.328 130.334 135.477  0.00  0.00    +0.000 A 
ATOM     47  C   UNL     1     108.778 131.019 135.221  0.00  0.00    +0.000 A 
BRANCH  40  49
ATOM     48  O   UNL     1     114.352 130.183 137.272  0.00  0.00    +0.000 OA
ATOM     49  C   UNL     1     111.952 129.988 136.698  0.00  0.00    +0.000 A 
ATOM     50  C   UNL     1     112.520 129.628 136.222  0.00  0.00    +0.000 A 
ATOM     51  C   UNL     1     112.183 130.413 137.366  0.00  0.00    +0.000 A 
ATOM     52  C   UNL     1     113.321 129.692 136.413  0.00  0.00    +0.000 A 
ATOM     53  C   UNL     1     112.983 130.479 137.558  0.00  0.00    +0.000 A 
ATOM     54  C   UNL     1     113.552 130.118 137.080  0.00  0.00    +0.000 A 
BRANCH  52  55
ATOM     55  O   UNL     1     113.889 129.332 135.936  0.00  0.00    +0.000 OA
ATOM     56  C   UNL     1     113.693 129.089 135.173  0.00  0.00    +0.000 C 
ENDBRANCH  52  55
ENDBRANCH  40  49
ENDBRANCH  35  39
ENDBRANCH   7  35
TORSDOF 12
ENDMDL
MODEL 6
REMARK VINA RESULT:      -9.9      1.399      4.040
REMARK  Name = 73810292
REMARK  12 active torsions:
REMARK  status: ('A' for Active; 'I' for Inactive)
REMARK    1  A    between atoms: O_1  and  C_20
REMARK    2  A    between atoms: O_1  and  C_22
REMARK    3  A    between atoms: O_5  and  C_26
REMARK    4  A    between atoms: O_5  and  C_32
REMARK    5  A    between atoms: O_10  and  C_31
REMARK    6  A    between atoms: O_10  and  C_35
REMARK    7  A    between atoms: O_16  and  C_46
REMARK    8  A    between atoms: C_27  and  C_30
REMARK    9  A    between atoms: C_29  and  C_31
REMARK   10  A    between atoms: C_33  and  C_37
REMARK   11  A    between atoms: C_35  and  C_40
REMARK   12  A    between atoms: C_48  and  C_50
REMARK                            x       y       z     vdW  Elec       q    Type
REMARK                         _______ _______ _______ _____ _____    ______ ____
ROOT
ATOM      1  O   UNL     1     110.890 129.474 139.210  0.00  0.00    +0.000 OA
ATOM      2  O   UNL     1     109.890 127.375 140.059  0.00  0.00    +0.000 OA
ATOM      3  O   UNL     1     109.114 128.812 140.292  0.00  0.00    +0.000 OA
ATOM      4  C   UNL     1     110.945 128.056 139.377  0.00  0.00    +0.000 C 
ATOM      5  C   UNL     1     110.224 128.075 139.776  0.00  0.00    +0.000 C 
ATOM      6  C   UNL     1     109.835 128.793 139.893  0.00  0.00    +0.000 C 
ATOM      7  C   UNL     1     111.278 128.755 139.094  0.00  0.00    +0.000 C 
ATOM      8  C   UNL     1     110.168 129.493 139.610  0.00  0.00    +0.000 C 
ENDROOT
BRANCH   8  10
ATOM      9  O   UNL     1     109.841 130.808 139.159  0.00  0.00    +0.000 OA
ATOM     10  C   UNL     1     109.780 130.212 139.726  0.00  0.00    +0.000 C 
ENDBRANCH   8  10
BRANCH   4  11
ATOM     11  O   UNL     1     111.334 127.337 139.261  0.00  0.00    +0.000 OA
BRANCH  11  16
ATOM     12  O   UNL     1     110.523 127.084 138.110  0.00  0.00    +0.000 OA
ATOM     13  O   UNL     1     112.014 125.841 139.112  0.00  0.00    +0.000 OA
ATOM     14  O   UNL     1     111.544 124.840 137.888  0.00  0.00    +0.000 OA
ATOM     15  O   UNL     1     110.394 125.334 136.812  0.00  0.00    +0.000 OA
ATOM     16  C   UNL     1     111.099 126.836 138.649  0.00  0.00    +0.000 C 
ATOM     17  C   UNL     1     111.438 126.088 138.574  0.00  0.00    +0.000 C 
ATOM     18  C   UNL     1     111.204 125.588 137.961  0.00  0.00    +0.000 C 
ATOM     19  C   UNL     1     110.629 125.835 137.424  0.00  0.00    +0.000 C 
ATOM     20  C   UNL     1     110.289 126.583 137.498  0.00  0.00    +0.000 C 
BRANCH  20  21
ATOM     21  C   UNL     1     109.714 126.830 136.961  0.00  0.00    +0.000 C 
BRANCH  21  22
ATOM     22  O   UNL     1     109.832 127.517 136.519  0.00  0.00    +0.000 OA
BRANCH  22  24
ATOM     23  O   UNL     1     108.500 127.529 136.001  0.00  0.00    +0.000 OA
ATOM     24  C   UNL     1     109.183 127.934 136.225  0.00  0.00    +0.000 C 
BRANCH  24  25
ATOM     25  C   UNL     1     109.218 128.755 136.155  0.00  0.00    +0.000 C 
ATOM     26  C   UNL     1     108.630 129.159 135.741  0.00  0.00    +0.000 C 
BRANCH  26  29
ATOM     27  O   UNL     1     107.780 131.754 136.587  0.00  0.00    +0.000 OA
ATOM     28  O   UNL     1     108.770 132.444 135.462  0.00  0.00    +0.000 OA
ATOM     29  C   UNL     1     108.665 129.980 135.671  0.00  0.00    +0.000 A 
ATOM     30  C   UNL     1     108.206 130.457 136.163  0.00  0.00    +0.000 A 
ATOM     31  C   UNL     1     109.160 130.326 135.109  0.00  0.00    +0.000 A 
ATOM     32  C   UNL     1     108.241 131.278 136.094  0.00  0.00    +0.000 A 
ATOM     33  C   UNL     1     109.195 131.148 135.039  0.00  0.00    +0.000 A 
ATOM     34  C   UNL     1     108.735 131.623 135.532  0.00  0.00    +0.000 A 
ENDBRANCH  26  29
ENDBRANCH  24  25
ENDBRANCH  22  24
ENDBRANCH  21  22
ENDBRANCH  20  21
ENDBRANCH  11  16
ENDBRANCH   4  11
BRANCH   7  35
ATOM     35  O   UNL     1     112.000 128.736 138.695  0.00  0.00    +0.000 OA
BRANCH  35  39
ATOM     36  O   UNL     1     113.750 130.040 138.662  0.00  0.00    +0.000 OA
ATOM     37  O   UNL     1     113.010 129.516 141.405  0.00  0.00    +0.000 OA
ATOM     38  O   UNL     1     115.307 131.222 140.822  0.00  0.00    +0.000 OA
ATOM     39  C   UNL     1     112.627 129.206 138.953  0.00  0.00    +0.000 A 
ATOM     40  C   UNL     1     113.123 129.570 138.404  0.00  0.00    +0.000 A 
ATOM     41  C   UNL     1     112.758 129.311 139.761  0.00  0.00    +0.000 A 
ATOM     42  C   UNL     1     113.385 129.781 140.019  0.00  0.00    +0.000 A 
ATOM     43  C   UNL     1     113.881 130.146 139.469  0.00  0.00    +0.000 A 
ATOM     44  C   UNL     1     113.511 129.884 140.863  0.00  0.00    +0.000 A 
ATOM     45  C   UNL     1     114.537 130.638 139.726  0.00  0.00    +0.000 A 
ATOM     46  C   UNL     1     114.162 130.372 141.138  0.00  0.00    +0.000 A 
ATOM     47  C   UNL     1     114.679 130.751 140.566  0.00  0.00    +0.000 A 
BRANCH  40  49
ATOM     48  O   UNL     1     112.600 129.152 135.172  0.00  0.00    +0.000 OA
ATOM     49  C   UNL     1     112.992 129.465 137.596  0.00  0.00    +0.000 A 
ATOM     50  C   UNL     1     113.281 128.793 137.215  0.00  0.00    +0.000 A 
ATOM     51  C   UNL     1     112.573 130.033 137.169  0.00  0.00    +0.000 A 
ATOM     52  C   UNL     1     113.150 128.688 136.407  0.00  0.00    +0.000 A 
ATOM     53  C   UNL     1     112.442 129.929 136.361  0.00  0.00    +0.000 A 
ATOM     54  C   UNL     1     112.731 129.256 135.980  0.00  0.00    +0.000 A 
BRANCH  52  55
ATOM     55  O   UNL     1     113.439 128.016 136.026  0.00  0.00    +0.000 OA
ATOM     56  C   UNL     1     114.019 127.555 136.387  0.00  0.00    +0.000 C 
ENDBRANCH  52  55
ENDBRANCH  40  49
ENDBRANCH  35  39
ENDBRANCH   7  35
TORSDOF 12
ENDMDL
MODEL 7
REMARK VINA RESULT:      -9.9      1.559      2.768
REMARK  Name = 73810292
REMARK  12 active torsions:
REMARK  status: ('A' for Active; 'I' for Inactive)
REMARK    1  A    between atoms: O_1  and  C_20
REMARK    2  A    between atoms: O_1  and  C_22
REMARK    3  A    between atoms: O_5  and  C_26
REMARK    4  A    between atoms: O_5  and  C_32
REMARK    5  A    between atoms: O_10  and  C_31
REMARK    6  A    between atoms: O_10  and  C_35
REMARK    7  A    between atoms: O_16  and  C_46
REMARK    8  A    between atoms: C_27  and  C_30
REMARK    9  A    between atoms: C_29  and  C_31
REMARK   10  A    between atoms: C_33  and  C_37
REMARK   11  A    between atoms: C_35  and  C_40
REMARK   12  A    between atoms: C_48  and  C_50
REMARK                            x       y       z     vdW  Elec       q    Type
REMARK                         _______ _______ _______ _____ _____    ______ ____
ROOT
ATOM      1  O   UNL     1     110.631 127.270 137.278  0.00  0.00    +0.000 OA
ATOM      2  O   UNL     1     109.054 126.253 138.893  0.00  0.00    +0.000 OA
ATOM      3  O   UNL     1     108.584 126.513 137.333  0.00  0.00    +0.000 OA
ATOM      4  C   UNL     1     110.339 126.801 138.597  0.00  0.00    +0.000 C 
ATOM      5  C   UNL     1     109.579 126.592 138.355  0.00  0.00    +0.000 C 
ATOM      6  C   UNL     1     109.344 126.721 137.575  0.00  0.00    +0.000 C 
ATOM      7  C   UNL     1     110.865 127.140 138.059  0.00  0.00    +0.000 C 
ATOM      8  C   UNL     1     109.869 127.060 137.036  0.00  0.00    +0.000 C 
ENDROOT
BRANCH   8  10
ATOM      9  O   UNL     1     109.940 127.832 135.837  0.00  0.00    +0.000 OA
ATOM     10  C   UNL     1     109.635 127.190 136.256  0.00  0.00    +0.000 C 
ENDBRANCH   8  10
BRANCH   4  11
ATOM     11  O   UNL     1     110.575 126.671 139.377  0.00  0.00    +0.000 OA
BRANCH  11  16
ATOM     12  O   UNL     1     109.959 127.900 139.770  0.00  0.00    +0.000 OA
ATOM     13  O   UNL     1     110.897 126.327 140.958  0.00  0.00    +0.000 OA
ATOM     14  O   UNL     1     110.443 127.382 142.142  0.00  0.00    +0.000 OA
ATOM     15  O   UNL     1     109.667 128.783 141.744  0.00  0.00    +0.000 OA
ATOM     16  C   UNL     1     110.348 127.199 139.969  0.00  0.00    +0.000 C 
ATOM     17  C   UNL     1     110.508 127.028 140.759  0.00  0.00    +0.000 C 
ATOM     18  C   UNL     1     110.281 127.556 141.351  0.00  0.00    +0.000 C 
ATOM     19  C   UNL     1     109.894 128.255 141.152  0.00  0.00    +0.000 C 
ATOM     20  C   UNL     1     109.732 128.428 140.362  0.00  0.00    +0.000 C 
BRANCH  20  21
ATOM     21  C   UNL     1     109.345 129.128 140.163  0.00  0.00    +0.000 C 
BRANCH  21  22
ATOM     22  O   UNL     1     109.627 129.595 139.544  0.00  0.00    +0.000 OA
BRANCH  22  24
ATOM     23  O   UNL     1     108.357 130.229 139.385  0.00  0.00    +0.000 OA
ATOM     24  C   UNL     1     109.172 130.221 139.257  0.00  0.00    +0.000 C 
BRANCH  24  25
ATOM     25  C   UNL     1     109.531 130.838 138.844  0.00  0.00    +0.000 C 
ATOM     26  C   UNL     1     109.136 131.200 138.218  0.00  0.00    +0.000 C 
BRANCH  26  29
ATOM     27  O   UNL     1     109.635 132.574 135.763  0.00  0.00    +0.000 OA
ATOM     28  O   UNL     1     110.574 133.667 136.565  0.00  0.00    +0.000 OA
ATOM     29  C   UNL     1     109.495 131.817 137.805  0.00  0.00    +0.000 A 
ATOM     30  C   UNL     1     109.386 131.888 136.991  0.00  0.00    +0.000 A 
ATOM     31  C   UNL     1     109.965 132.364 138.206  0.00  0.00    +0.000 A 
ATOM     32  C   UNL     1     109.745 132.504 136.577  0.00  0.00    +0.000 A 
ATOM     33  C   UNL     1     110.325 132.980 137.793  0.00  0.00    +0.000 A 
ATOM     34  C   UNL     1     110.215 133.050 136.979  0.00  0.00    +0.000 A 
ENDBRANCH  26  29
ENDBRANCH  24  25
ENDBRANCH  22  24
ENDBRANCH  21  22
ENDBRANCH  20  21
ENDBRANCH  11  16
ENDBRANCH   4  11
BRANCH   7  35
ATOM     35  O   UNL     1     111.626 127.349 138.301  0.00  0.00    +0.000 OA
BRANCH  35  39
ATOM     36  O   UNL     1     113.603 127.188 137.391  0.00  0.00    +0.000 OA
ATOM     37  O   UNL     1     112.249 124.645 137.171  0.00  0.00    +0.000 OA
ATOM     38  O   UNL     1     114.947 124.951 136.096  0.00  0.00    +0.000 OA
ATOM     39  C   UNL     1     112.283 127.033 137.915  0.00  0.00    +0.000 A 
ATOM     40  C   UNL     1     112.946 127.504 137.777  0.00  0.00    +0.000 A 
ATOM     41  C   UNL     1     112.277 126.246 137.667  0.00  0.00    +0.000 A 
ATOM     42  C   UNL     1     112.934 125.930 137.282  0.00  0.00    +0.000 A 
ATOM     43  C   UNL     1     113.598 126.401 137.143  0.00  0.00    +0.000 A 
ATOM     44  C   UNL     1     112.917 125.109 137.028  0.00  0.00    +0.000 A 
ATOM     45  C   UNL     1     114.288 126.083 136.742  0.00  0.00    +0.000 A 
ATOM     46  C   UNL     1     113.598 124.774 136.626  0.00  0.00    +0.000 A 
ATOM     47  C   UNL     1     114.288 125.264 136.482  0.00  0.00    +0.000 A 
BRANCH  40  49
ATOM     48  O   UNL     1     112.973 130.651 138.768  0.00  0.00    +0.000 OA
ATOM     49  C   UNL     1     112.952 128.291 138.024  0.00  0.00    +0.000 A 
ATOM     50  C   UNL     1     112.734 128.890 137.501  0.00  0.00    +0.000 A 
ATOM     51  C   UNL     1     113.178 128.479 138.795  0.00  0.00    +0.000 A 
ATOM     52  C   UNL     1     112.740 129.677 137.749  0.00  0.00    +0.000 A 
ATOM     53  C   UNL     1     113.185 129.265 139.044  0.00  0.00    +0.000 A 
ATOM     54  C   UNL     1     112.966 129.865 138.520  0.00  0.00    +0.000 A 
BRANCH  52  55
ATOM     55  O   UNL     1     112.522 130.276 137.226  0.00  0.00    +0.000 OA
ATOM     56  C   UNL     1     112.698 130.207 136.423  0.00  0.00    +0.000 C 
ENDBRANCH  52  55
ENDBRANCH  40  49
ENDBRANCH  35  39
ENDBRANCH   7  35
TORSDOF 12
ENDMDL
MODEL 8
REMARK VINA RESULT:      -9.9      1.749      5.156
REMARK  Name = 73810292
REMARK  12 active torsions:
REMARK  status: ('A' for Active; 'I' for Inactive)
REMARK    1  A    between atoms: O_1  and  C_20
REMARK    2  A    between atoms: O_1  and  C_22
REMARK    3  A    between atoms: O_5  and  C_26
REMARK    4  A    between atoms: O_5  and  C_32
REMARK    5  A    between atoms: O_10  and  C_31
REMARK    6  A    between atoms: O_10  and  C_35
REMARK    7  A    between atoms: O_16  and  C_46
REMARK    8  A    between atoms: C_27  and  C_30
REMARK    9  A    between atoms: C_29  and  C_31
REMARK   10  A    between atoms: C_33  and  C_37
REMARK   11  A    between atoms: C_35  and  C_40
REMARK   12  A    between atoms: C_48  and  C_50
REMARK                            x       y       z     vdW  Elec       q    Type
REMARK                         _______ _______ _______ _____ _____    ______ ____
ROOT
ATOM      1  O   UNL     1     110.332 127.753 138.362  0.00  0.00    +0.000 OA
ATOM      2  O   UNL     1     110.369 129.691 136.822  0.00  0.00    +0.000 OA
ATOM      3  O   UNL     1     109.498 128.345 136.433  0.00  0.00    +0.000 OA
ATOM      4  C   UNL     1     110.780 129.072 138.042  0.00  0.00    +0.000 C 
ATOM      5  C   UNL     1     110.357 129.045 137.335  0.00  0.00    +0.000 C 
ATOM      6  C   UNL     1     109.921 128.372 137.140  0.00  0.00    +0.000 C 
ATOM      7  C   UNL     1     110.768 128.427 138.555  0.00  0.00    +0.000 C 
ATOM      8  C   UNL     1     109.909 127.726 137.654  0.00  0.00    +0.000 C 
ENDROOT
BRANCH   8  10
ATOM      9  O   UNL     1     109.671 126.325 137.794  0.00  0.00    +0.000 OA
ATOM     10  C   UNL     1     109.473 127.053 137.460  0.00  0.00    +0.000 C 
ENDBRANCH   8  10
BRANCH   4  11
ATOM     11  O   UNL     1     111.216 129.745 138.237  0.00  0.00    +0.000 OA
BRANCH  11  16
ATOM     12  O   UNL     1     112.314 129.265 137.458  0.00  0.00    +0.000 OA
ATOM     13  O   UNL     1     112.011 131.171 138.478  0.00  0.00    +0.000 OA
ATOM     14  O   UNL     1     113.506 131.404 137.819  0.00  0.00    +0.000 OA
ATOM     15  O   UNL     1     114.206 130.210 136.920  0.00  0.00    +0.000 OA
ATOM     16  C   UNL     1     111.963 129.862 137.908  0.00  0.00    +0.000 C 
ATOM     17  C   UNL     1     112.361 130.574 138.028  0.00  0.00    +0.000 C 
ATOM     18  C   UNL     1     113.109 130.690 137.699  0.00  0.00    +0.000 C 
ATOM     19  C   UNL     1     113.458 130.094 137.249  0.00  0.00    +0.000 C 
ATOM     20  C   UNL     1     113.061 129.381 137.129  0.00  0.00    +0.000 C 
BRANCH  20  21
ATOM     21  C   UNL     1     113.411 128.785 136.679  0.00  0.00    +0.000 C 
BRANCH  21  22
ATOM     22  O   UNL     1     113.501 128.028 136.997  0.00  0.00    +0.000 OA
BRANCH  22  24
ATOM     23  O   UNL     1     114.205 127.466 135.888  0.00  0.00    +0.000 OA
ATOM     24  C   UNL     1     113.657 127.388 136.500  0.00  0.00    +0.000 C 
BRANCH  24  25
ATOM     25  C   UNL     1     113.266 126.671 136.615  0.00  0.00    +0.000 C 
ATOM     26  C   UNL     1     113.672 125.960 136.520  0.00  0.00    +0.000 C 
BRANCH  26  29
ATOM     27  O   UNL     1     111.416 124.269 136.051  0.00  0.00    +0.000 OA
ATOM     28  O   UNL     1     112.105 123.092 136.981  0.00  0.00    +0.000 OA
ATOM     29  C   UNL     1     113.280 125.243 136.635  0.00  0.00    +0.000 A 
ATOM     30  C   UNL     1     112.544 125.114 136.286  0.00  0.00    +0.000 A 
ATOM     31  C   UNL     1     113.624 124.654 137.100  0.00  0.00    +0.000 A 
ATOM     32  C   UNL     1     112.152 124.397 136.401  0.00  0.00    +0.000 A 
ATOM     33  C   UNL     1     113.232 123.937 137.215  0.00  0.00    +0.000 A 
ATOM     34  C   UNL     1     112.497 123.809 136.866  0.00  0.00    +0.000 A 
ENDBRANCH  26  29
ENDBRANCH  24  25
ENDBRANCH  22  24
ENDBRANCH  21  22
ENDBRANCH  20  21
ENDBRANCH  11  16
ENDBRANCH   4  11
BRANCH   7  35
ATOM     35  O   UNL     1     111.191 128.454 139.264  0.00  0.00    +0.000 OA
BRANCH  35  39
ATOM     36  O   UNL     1     110.803 127.784 141.304  0.00  0.00    +0.000 OA
ATOM     37  O   UNL     1     108.472 129.164 140.300  0.00  0.00    +0.000 OA
ATOM     38  O   UNL     1     108.456 128.067 143.006  0.00  0.00    +0.000 OA
ATOM     39  C   UNL     1     110.805 128.322 139.981  0.00  0.00    +0.000 A 
ATOM     40  C   UNL     1     111.189 127.915 140.587  0.00  0.00    +0.000 A 
ATOM     41  C   UNL     1     110.035 128.598 140.091  0.00  0.00    +0.000 A 
ATOM     42  C   UNL     1     109.649 128.466 140.808  0.00  0.00    +0.000 A 
ATOM     43  C   UNL     1     110.033 128.059 141.415  0.00  0.00    +0.000 A 
ATOM     44  C   UNL     1     108.848 128.758 140.912  0.00  0.00    +0.000 A 
ATOM     45  C   UNL     1     109.642 127.916 142.166  0.00  0.00    +0.000 A 
ATOM     46  C   UNL     1     108.440 128.624 141.656  0.00  0.00    +0.000 A 
ATOM     47  C   UNL     1     108.840 128.200 142.287  0.00  0.00    +0.000 A 
BRANCH  40  49
ATOM     48  O   UNL     1     114.267 126.810 140.145  0.00  0.00    +0.000 OA
ATOM     49  C   UNL     1     111.959 127.640 140.477  0.00  0.00    +0.000 A 
ATOM     50  C   UNL     1     112.601 128.124 140.659  0.00  0.00    +0.000 A 
ATOM     51  C   UNL     1     112.086 126.879 140.184  0.00  0.00    +0.000 A 
ATOM     52  C   UNL     1     113.371 127.848 140.549  0.00  0.00    +0.000 A 
ATOM     53  C   UNL     1     112.855 126.602 140.073  0.00  0.00    +0.000 A 
ATOM     54  C   UNL     1     113.498 127.087 140.256  0.00  0.00    +0.000 A 
BRANCH  52  55
ATOM     55  O   UNL     1     114.013 128.332 140.731  0.00  0.00    +0.000 OA
ATOM     56  C   UNL     1     113.888 129.120 140.942  0.00  0.00    +0.000 C 
ENDBRANCH  52  55
ENDBRANCH  40  49
ENDBRANCH  35  39
ENDBRANCH   7  35
TORSDOF 12
ENDMDL
MODEL 9
REMARK VINA RESULT:      -9.8      1.424      4.747
REMARK  Name = 73810292
REMARK  12 active torsions:
REMARK  status: ('A' for Active; 'I' for Inactive)
REMARK    1  A    between atoms: O_1  and  C_20
REMARK    2  A    between atoms: O_1  and  C_22
REMARK    3  A    between atoms: O_5  and  C_26
REMARK    4  A    between atoms: O_5  and  C_32
REMARK    5  A    between atoms: O_10  and  C_31
REMARK    6  A    between atoms: O_10  and  C_35
REMARK    7  A    between atoms: O_16  and  C_46
REMARK    8  A    between atoms: C_27  and  C_30
REMARK    9  A    between atoms: C_29  and  C_31
REMARK   10  A    between atoms: C_33  and  C_37
REMARK   11  A    between atoms: C_35  and  C_40
REMARK   12  A    between atoms: C_48  and  C_50
REMARK                            x       y       z     vdW  Elec       q    Type
REMARK                         _______ _______ _______ _____ _____    ______ ____
ROOT
ATOM      1  O   UNL     1     110.414 128.186 138.016  0.00  0.00    +0.000 OA
ATOM      2  O   UNL     1     110.361 128.773 140.420  0.00  0.00    +0.000 OA
ATOM      3  O   UNL     1     109.608 127.404 139.888  0.00  0.00    +0.000 OA
ATOM      4  C   UNL     1     110.773 129.066 139.084  0.00  0.00    +0.000 C 
ATOM      5  C   UNL     1     110.379 128.577 139.619  0.00  0.00    +0.000 C 
ATOM      6  C   UNL     1     110.002 127.893 139.353  0.00  0.00    +0.000 C 
ATOM      7  C   UNL     1     110.790 128.870 138.283  0.00  0.00    +0.000 C 
ATOM      8  C   UNL     1     110.020 127.697 138.552  0.00  0.00    +0.000 C 
ENDROOT
BRANCH   8  10
ATOM      9  O   UNL     1     109.978 126.572 137.674  0.00  0.00    +0.000 OA
ATOM     10  C   UNL     1     109.644 127.013 138.285  0.00  0.00    +0.000 C 
ENDBRANCH   8  10
BRANCH   4  11
ATOM     11  O   UNL     1     111.149 129.750 139.350  0.00  0.00    +0.000 OA
BRANCH  11  16
ATOM     12  O   UNL     1     112.370 129.047 139.593  0.00  0.00    +0.000 OA
ATOM     13  O   UNL     1     111.632 130.946 140.379  0.00  0.00    +0.000 OA
ATOM     14  O   UNL     1     113.094 130.841 141.138  0.00  0.00    +0.000 OA
ATOM     15  O   UNL     1     114.073 129.540 140.866  0.00  0.00    +0.000 OA
ATOM     16  C   UNL     1     111.880 129.698 139.729  0.00  0.00    +0.000 C 
ATOM     17  C   UNL     1     112.122 130.295 140.244  0.00  0.00    +0.000 C 
ATOM     18  C   UNL     1     112.853 130.243 140.623  0.00  0.00    +0.000 C 
ATOM     19  C   UNL     1     113.342 129.593 140.487  0.00  0.00    +0.000 C 
ATOM     20  C   UNL     1     113.101 128.994 139.972  0.00  0.00    +0.000 C 
BRANCH  20  21
ATOM     21  C   UNL     1     113.589 128.345 139.837  0.00  0.00    +0.000 C 
BRANCH  21  22
ATOM     22  O   UNL     1     113.258 127.607 139.673  0.00  0.00    +0.000 OA
BRANCH  22  24
ATOM     23  O   UNL     1     114.180 126.636 140.173  0.00  0.00    +0.000 OA
ATOM     24  C   UNL     1     113.747 126.954 139.547  0.00  0.00    +0.000 C 
BRANCH  24  25
ATOM     25  C   UNL     1     113.803 126.619 138.795  0.00  0.00    +0.000 C 
ATOM     26  C   UNL     1     113.728 125.804 138.700  0.00  0.00    +0.000 C 
BRANCH  26  29
ATOM     27  O   UNL     1     112.471 124.734 136.367  0.00  0.00    +0.000 OA
ATOM     28  O   UNL     1     113.952 124.467 135.691  0.00  0.00    +0.000 OA
ATOM     29  C   UNL     1     113.784 125.470 137.947  0.00  0.00    +0.000 A 
ATOM     30  C   UNL     1     113.100 125.269 137.533  0.00  0.00    +0.000 A 
ATOM     31  C   UNL     1     114.524 125.336 137.609  0.00  0.00    +0.000 A 
ATOM     32  C   UNL     1     113.156 124.935 136.780  0.00  0.00    +0.000 A 
ATOM     33  C   UNL     1     114.580 125.002 136.857  0.00  0.00    +0.000 A 
ATOM     34  C   UNL     1     113.896 124.801 136.443  0.00  0.00    +0.000 A 
ENDBRANCH  26  29
ENDBRANCH  24  25
ENDBRANCH  22  24
ENDBRANCH  21  22
ENDBRANCH  20  21
ENDBRANCH  11  16
ENDBRANCH   4  11
BRANCH   7  35
ATOM     35  O   UNL     1     111.185 129.359 137.747  0.00  0.00    +0.000 OA
BRANCH  35  39
ATOM     36  O   UNL     1     110.736 130.072 135.734  0.00  0.00    +0.000 OA
ATOM     37  O   UNL     1     108.428 130.486 137.422  0.00  0.00    +0.000 OA
ATOM     38  O   UNL     1     108.333 131.279 134.613  0.00  0.00    +0.000 OA
ATOM     39  C   UNL     1     110.777 129.685 137.109  0.00  0.00    +0.000 A 
ATOM     40  C   UNL     1     111.144 129.746 136.373  0.00  0.00    +0.000 A 
ATOM     41  C   UNL     1     110.002 129.951 137.207  0.00  0.00    +0.000 A 
ATOM     42  C   UNL     1     109.594 130.277 136.568  0.00  0.00    +0.000 A 
ATOM     43  C   UNL     1     109.961 130.338 135.831  0.00  0.00    +0.000 A 
ATOM     44  C   UNL     1     108.787 130.550 136.682  0.00  0.00    +0.000 A 
ATOM     45  C   UNL     1     109.546 130.675 135.159  0.00  0.00    +0.000 A 
ATOM     46  C   UNL     1     108.357 130.891 136.021  0.00  0.00    +0.000 A 
ATOM     47  C   UNL     1     108.739 130.953 135.254  0.00  0.00    +0.000 A 
BRANCH  40  49
ATOM     48  O   UNL     1     114.243 128.682 135.978  0.00  0.00    +0.000 OA
ATOM     49  C   UNL     1     111.919 129.480 136.274  0.00  0.00    +0.000 A 
ATOM     50  C   UNL     1     112.551 129.956 136.507  0.00  0.00    +0.000 A 
ATOM     51  C   UNL     1     112.061 128.739 135.942  0.00  0.00    +0.000 A 
ATOM     52  C   UNL     1     113.326 129.690 136.409  0.00  0.00    +0.000 A 
ATOM     53  C   UNL     1     112.835 128.472 135.843  0.00  0.00    +0.000 A 
ATOM     54  C   UNL     1     113.468 128.948 136.077  0.00  0.00    +0.000 A 
BRANCH  52  55
ATOM     55  O   UNL     1     113.958 130.165 136.642  0.00  0.00    +0.000 OA
ATOM     56  C   UNL     1     113.960 130.969 136.456  0.00  0.00    +0.000 C 
ENDBRANCH  52  55
ENDBRANCH  40  49
ENDBRANCH  35  39
ENDBRANCH   7  35
TORSDOF 12
ENDMDL
MODEL 10
REMARK VINA RESULT:      -9.7      1.518      5.355
REMARK  Name = 73810292
REMARK  12 active torsions:
REMARK  status: ('A' for Active; 'I' for Inactive)
REMARK    1  A    between atoms: O_1  and  C_20
REMARK    2  A    between atoms: O_1  and  C_22
REMARK    3  A    between atoms: O_5  and  C_26
REMARK    4  A    between atoms: O_5  and  C_32
REMARK    5  A    between atoms: O_10  and  C_31
REMARK    6  A    between atoms: O_10  and  C_35
REMARK    7  A    between atoms: O_16  and  C_46
REMARK    8  A    between atoms: C_27  and  C_30
REMARK    9  A    between atoms: C_29  and  C_31
REMARK   10  A    between atoms: C_33  and  C_37
REMARK   11  A    between atoms: C_35  and  C_40
REMARK   12  A    between atoms: C_48  and  C_50
REMARK                            x       y       z     vdW  Elec       q    Type
REMARK                         _______ _______ _______ _____ _____    ______ ____
ROOT
ATOM      1  O   UNL     1     112.373 129.616 136.946  0.00  0.00    +0.000 OA
ATOM      2  O   UNL     1     113.528 130.919 138.705  0.00  0.00    +0.000 OA
ATOM      3  O   UNL     1     114.286 130.617 137.271  0.00  0.00    +0.000 OA
ATOM      4  C   UNL     1     112.380 130.202 138.250  0.00  0.00    +0.000 C 
ATOM      5  C   UNL     1     113.143 130.485 138.119  0.00  0.00    +0.000 C 
ATOM      6  C   UNL     1     113.523 130.334 137.402  0.00  0.00    +0.000 C 
ATOM      7  C   UNL     1     111.995 129.768 137.663  0.00  0.00    +0.000 C 
ATOM      8  C   UNL     1     113.138 129.900 136.815  0.00  0.00    +0.000 C 
ENDROOT
BRANCH   8  10
ATOM      9  O   UNL     1     113.506 128.987 135.780  0.00  0.00    +0.000 OA
ATOM     10  C   UNL     1     113.516 129.748 136.098  0.00  0.00    +0.000 C 
ENDBRANCH   8  10
BRANCH   4  11
ATOM     11  O   UNL     1     112.001 130.353 138.967  0.00  0.00    +0.000 OA
BRANCH  11  16
ATOM     12  O   UNL     1     112.650 129.229 139.566  0.00  0.00    +0.000 OA
ATOM     13  O   UNL     1     111.514 130.867 140.457  0.00  0.00    +0.000 OA
ATOM     14  O   UNL     1     111.920 130.001 141.802  0.00  0.00    +0.000 OA
ATOM     15  O   UNL     1     112.812 128.621 141.656  0.00  0.00    +0.000 OA
ATOM     16  C   UNL     1     112.204 129.920 139.639  0.00  0.00    +0.000 C 
ATOM     17  C   UNL     1     111.961 130.176 140.384  0.00  0.00    +0.000 C 
ATOM     18  C   UNL     1     112.164 129.744 141.057  0.00  0.00    +0.000 C 
ATOM     19  C   UNL     1     112.609 129.054 140.984  0.00  0.00    +0.000 C 
ATOM     20  C   UNL     1     112.853 128.796 140.239  0.00  0.00    +0.000 C 
BRANCH  20  21
ATOM     21  C   UNL     1     113.299 128.107 140.166  0.00  0.00    +0.000 C 
BRANCH  21  22
ATOM     22  O   UNL     1     113.099 127.544 139.596  0.00  0.00    +0.000 OA
BRANCH  22  24
ATOM     23  O   UNL     1     114.217 126.733 139.961  0.00  0.00    +0.000 OA
ATOM     24  C   UNL     1     113.617 126.924 139.428  0.00  0.00    +0.000 C 
BRANCH  24  25
ATOM     25  C   UNL     1     113.534 126.495 138.728  0.00  0.00    +0.000 C 
ATOM     26  C   UNL     1     114.093 125.924 138.526  0.00  0.00    +0.000 C 
BRANCH  26  29
ATOM     27  O   UNL     1     112.981 123.715 137.094  0.00  0.00    +0.000 OA
ATOM     28  O   UNL     1     113.761 124.208 135.727  0.00  0.00    +0.000 OA
ATOM     29  C   UNL     1     114.010 125.495 137.826  0.00  0.00    +0.000 A 
ATOM     30  C   UNL     1     113.537 124.820 137.810  0.00  0.00    +0.000 A 
ATOM     31  C   UNL     1     114.400 125.741 137.142  0.00  0.00    +0.000 A 
ATOM     32  C   UNL     1     113.454 124.391 137.110  0.00  0.00    +0.000 A 
ATOM     33  C   UNL     1     114.317 125.312 136.443  0.00  0.00    +0.000 A 
ATOM     34  C   UNL     1     113.844 124.637 136.427  0.00  0.00    +0.000 A 
ENDBRANCH  26  29
ENDBRANCH  24  25
ENDBRANCH  22  24
ENDBRANCH  21  22
ENDBRANCH  20  21
ENDBRANCH  11  16
ENDBRANCH   4  11
BRANCH   7  35
ATOM     35  O   UNL     1     111.231 129.484 137.794  0.00  0.00    +0.000 OA
BRANCH  35  39
ATOM     36  O   UNL     1     109.426 129.391 136.571  0.00  0.00    +0.000 OA
ATOM     37  O   UNL     1     110.505 132.069 136.464  0.00  0.00    +0.000 OA
ATOM     38  O   UNL     1     108.073 131.423 134.982  0.00  0.00    +0.000 OA
ATOM     39  C   UNL     1     110.615 129.712 137.294  0.00  0.00    +0.000 A 
ATOM     40  C   UNL     1     110.041 129.163 137.071  0.00  0.00    +0.000 A 
ATOM     41  C   UNL     1     110.575 130.488 137.017  0.00  0.00    +0.000 A 
ATOM     42  C   UNL     1     109.959 130.716 136.517  0.00  0.00    +0.000 A 
ATOM     43  C   UNL     1     109.384 130.167 136.294  0.00  0.00    +0.000 A 
ATOM     44  C   UNL     1     109.926 131.526 136.235  0.00  0.00    +0.000 A 
ATOM     45  C   UNL     1     108.738 130.391 135.774  0.00  0.00    +0.000 A 
ATOM     46  C   UNL     1     109.288 131.770 135.714  0.00  0.00    +0.000 A 
ATOM     47  C   UNL     1     108.690 131.198 135.482  0.00  0.00    +0.000 A 
BRANCH  40  49
ATOM     48  O   UNL     1     110.203 126.059 138.179  0.00  0.00    +0.000 OA
ATOM     49  C   UNL     1     110.082 128.387 137.347  0.00  0.00    +0.000 A 
ATOM     50  C   UNL     1     110.390 127.793 136.866  0.00  0.00    +0.000 A 
ATOM     51  C   UNL     1     109.815 128.206 138.106  0.00  0.00    +0.000 A 
ATOM     52  C   UNL     1     110.430 127.016 137.142  0.00  0.00    +0.000 A 
ATOM     53  C   UNL     1     109.855 127.430 138.384  0.00  0.00    +0.000 A 
ATOM     54  C   UNL     1     110.163 126.835 137.902  0.00  0.00    +0.000 A 
BRANCH  52  55
ATOM     55  O   UNL     1     110.738 126.422 136.661  0.00  0.00    +0.000 OA
ATOM     56  C   UNL     1     110.785 126.535 135.845  0.00  0.00    +0.000 C 
ENDBRANCH  52  55
ENDBRANCH  40  49
ENDBRANCH  35  39
ENDBRANCH   7  35
TORSDOF 12
ENDMDL
