MODEL 1
REMARK VINA RESULT:     -10.4      0.000      0.000
REMARK  Name = 44257684
REMARK  8 active torsions:
REMARK  status: ('A' for Active; 'I' for Inactive)
REMARK    1  A    between atoms: O_2  and  C_14
REMARK    2  A    between atoms: O_2  and  C_26
REMARK    3  A    between atoms: O_12  and  C_41
REMARK    4  A    between atoms: C_16  and  C_19
REMARK    5  A    between atoms: C_18  and  C_20
REMARK    6  A    between atoms: C_26  and  C_28
REMARK    7  A    between atoms: C_30  and  C_31
REMARK    8  A    between atoms: C_32  and  C_33
REMARK                            x       y       z     vdW  Elec       q    Type
REMARK                         _______ _______ _______ _____ _____    ______ ____
ROOT
ATOM      1  O   UNL     1     107.314 125.274 147.717  0.00  0.00    +0.000 OA
ATOM      2  O   UNL     1     105.351 124.359 148.915  0.00  0.00    +0.000 OA
ATOM      3  O   UNL     1     106.874 124.028 149.453  0.00  0.00    +0.000 OA
ATOM      4  C   UNL     1     105.898 125.135 147.846  0.00  0.00    +0.000 C 
ATOM      5  C   UNL     1     106.006 124.664 148.516  0.00  0.00    +0.000 C 
ATOM      6  C   UNL     1     106.552 125.440 147.447  0.00  0.00    +0.000 C 
ATOM      7  C   UNL     1     106.768 124.499 148.784  0.00  0.00    +0.000 C 
ATOM      8  C   UNL     1     107.422 124.804 148.385  0.00  0.00    +0.000 C 
ENDROOT
BRANCH   6  13
ATOM      9  O   UNL     1     106.481 124.746 145.951  0.00  0.00    +0.000 OA
ATOM     10  O   UNL     1     106.408 127.076 147.604  0.00  0.00    +0.000 OA
ATOM     11  O   UNL     1     106.116 127.353 144.751  0.00  0.00    +0.000 OA
ATOM     12  O   UNL     1     106.339 124.842 144.519  0.00  0.00    +0.000 OA
ATOM     13  C   UNL     1     106.444 125.911 146.778  0.00  0.00    +0.000 A 
ATOM     14  C   UNL     1     106.409 125.564 146.030  0.00  0.00    +0.000 A 
ATOM     15  C   UNL     1     106.372 126.729 146.857  0.00  0.00    +0.000 A 
ATOM     16  C   UNL     1     106.301 126.034 145.362  0.00  0.00    +0.000 A 
ATOM     17  C   UNL     1     106.264 127.200 146.188  0.00  0.00    +0.000 A 
ATOM     18  C   UNL     1     106.229 126.852 145.440  0.00  0.00    +0.000 A 
ATOM     19  C   UNL     1     106.266 125.661 144.588  0.00  0.00    +0.000 A 
ATOM     20  C   UNL     1     106.154 126.146 143.888  0.00  0.00    +0.000 A 
ATOM     21  C   UNL     1     106.078 126.999 143.970  0.00  0.00    +0.000 A 
BRANCH  21  23
ATOM     22  O   UNL     1     105.646 128.891 141.301  0.00  0.00    +0.000 OA
ATOM     23  C   UNL     1     105.970 127.472 143.303  0.00  0.00    +0.000 A 
ATOM     24  C   UNL     1     106.612 127.873 142.974  0.00  0.00    +0.000 A 
ATOM     25  C   UNL     1     105.221 127.543 142.965  0.00  0.00    +0.000 A 
ATOM     26  C   UNL     1     106.504 128.347 142.307  0.00  0.00    +0.000 A 
ATOM     27  C   UNL     1     105.113 128.017 142.298  0.00  0.00    +0.000 A 
ATOM     28  C   UNL     1     105.755 128.418 141.969  0.00  0.00    +0.000 A 
ENDBRANCH  21  23
ENDBRANCH   6  13
BRANCH   8  30
ATOM     29  O   UNL     1     108.828 124.721 148.147  0.00  0.00    +0.000 OA
ATOM     30  C   UNL     1     108.183 124.638 148.654  0.00  0.00    +0.000 C 
ENDBRANCH   8  30
BRANCH   4  31
ATOM     31  O   UNL     1     105.136 125.301 147.577  0.00  0.00    +0.000 OA
BRANCH  31  33
ATOM     32  O   UNL     1     104.381 125.358 148.788  0.00  0.00    +0.000 OA
ATOM     33  C   UNL     1     104.481 125.069 148.022  0.00  0.00    +0.000 C 
BRANCH  33  34
ATOM     34  C   UNL     1     103.928 124.548 147.701  0.00  0.00    +0.000 C 
ATOM     35  C   UNL     1     103.178 124.822 147.491  0.00  0.00    +0.000 C 
BRANCH  35  37
ATOM     36  O   UNL     1     100.959 122.744 146.208  0.00  0.00    +0.000 OA
ATOM     37  C   UNL     1     102.624 124.303 147.170  0.00  0.00    +0.000 A 
ATOM     38  C   UNL     1     101.946 124.107 147.598  0.00  0.00    +0.000 A 
ATOM     39  C   UNL     1     102.747 123.979 146.421  0.00  0.00    +0.000 A 
ATOM     40  C   UNL     1     101.391 123.588 147.277  0.00  0.00    +0.000 A 
ATOM     41  C   UNL     1     102.191 123.459 146.101  0.00  0.00    +0.000 A 
ATOM     42  C   UNL     1     101.514 123.264 146.528  0.00  0.00    +0.000 A 
BRANCH  40  43
ATOM     43  O   UNL     1     100.713 123.392 147.705  0.00  0.00    +0.000 OA
ATOM     44  C   UNL     1     100.710 123.465 148.527  0.00  0.00    +0.000 C 
ENDBRANCH  40  43
ENDBRANCH  35  37
ENDBRANCH  33  34
ENDBRANCH  31  33
ENDBRANCH   4  31
TORSDOF 8
ENDMDL
MODEL 2
REMARK VINA RESULT:     -10.3      2.025      6.453
REMARK  Name = 44257684
REMARK  8 active torsions:
REMARK  status: ('A' for Active; 'I' for Inactive)
REMARK    1  A    between atoms: O_2  and  C_14
REMARK    2  A    between atoms: O_2  and  C_26
REMARK    3  A    between atoms: O_12  and  C_41
REMARK    4  A    between atoms: C_16  and  C_19
REMARK    5  A    between atoms: C_18  and  C_20
REMARK    6  A    between atoms: C_26  and  C_28
REMARK    7  A    between atoms: C_30  and  C_31
REMARK    8  A    between atoms: C_32  and  C_33
REMARK                            x       y       z     vdW  Elec       q    Type
REMARK                         _______ _______ _______ _____ _____    ______ ____
ROOT
ATOM      1  O   UNL     1     108.039 127.627 142.913  0.00  0.00    +0.000 OA
ATOM      2  O   UNL     1     106.695 128.800 141.197  0.00  0.00    +0.000 OA
ATOM      3  O   UNL     1     108.325 128.646 141.004  0.00  0.00    +0.000 OA
ATOM      4  C   UNL     1     106.775 128.094 142.438  0.00  0.00    +0.000 C 
ATOM      5  C   UNL     1     107.143 128.409 141.769  0.00  0.00    +0.000 C 
ATOM      6  C   UNL     1     107.223 127.703 143.010  0.00  0.00    +0.000 C 
ATOM      7  C   UNL     1     107.958 128.332 141.673  0.00  0.00    +0.000 C 
ATOM      8  C   UNL     1     108.406 127.941 142.245  0.00  0.00    +0.000 C 
ENDROOT
BRANCH   6  13
ATOM      9  O   UNL     1     106.810 126.106 143.051  0.00  0.00    +0.000 OA
ATOM     10  O   UNL     1     106.900 128.673 144.305  0.00  0.00    +0.000 OA
ATOM     11  O   UNL     1     105.737 126.446 145.717  0.00  0.00    +0.000 OA
ATOM     12  O   UNL     1     106.236 124.967 143.724  0.00  0.00    +0.000 OA
ATOM     13  C   UNL     1     106.855 127.390 143.678  0.00  0.00    +0.000 A 
ATOM     14  C   UNL     1     106.649 126.591 143.699  0.00  0.00    +0.000 A 
ATOM     15  C   UNL     1     106.694 127.874 144.325  0.00  0.00    +0.000 A 
ATOM     16  C   UNL     1     106.281 126.277 144.367  0.00  0.00    +0.000 A 
ATOM     17  C   UNL     1     106.326 127.560 144.995  0.00  0.00    +0.000 A 
ATOM     18  C   UNL     1     106.120 126.762 145.015  0.00  0.00    +0.000 A 
ATOM     19  C   UNL     1     106.071 125.444 144.376  0.00  0.00    +0.000 A 
ATOM     20  C   UNL     1     105.688 125.111 145.069  0.00  0.00    +0.000 A 
ATOM     21  C   UNL     1     105.519 125.616 145.745  0.00  0.00    +0.000 A 
BRANCH  21  23
ATOM     22  O   UNL     1     104.049 124.371 148.424  0.00  0.00    +0.000 OA
ATOM     23  C   UNL     1     105.152 125.305 146.414  0.00  0.00    +0.000 A 
ATOM     24  C   UNL     1     104.328 125.267 146.453  0.00  0.00    +0.000 A 
ATOM     25  C   UNL     1     105.607 125.032 147.046  0.00  0.00    +0.000 A 
ATOM     26  C   UNL     1     103.960 124.956 147.122  0.00  0.00    +0.000 A 
ATOM     27  C   UNL     1     105.239 124.721 147.715  0.00  0.00    +0.000 A 
ATOM     28  C   UNL     1     104.416 124.683 147.754  0.00  0.00    +0.000 A 
ENDBRANCH  21  23
ENDBRANCH   6  13
BRANCH   8  30
ATOM     29  O   UNL     1     109.727 127.993 142.787  0.00  0.00    +0.000 OA
ATOM     30  C   UNL     1     109.221 127.864 142.148  0.00  0.00    +0.000 C 
ENDBRANCH   8  30
BRANCH   4  31
ATOM     31  O   UNL     1     105.959 128.171 142.534  0.00  0.00    +0.000 OA
BRANCH  31  33
ATOM     32  O   UNL     1     105.515 127.565 141.320  0.00  0.00    +0.000 OA
ATOM     33  C   UNL     1     105.464 128.173 141.874  0.00  0.00    +0.000 C 
BRANCH  33  34
ATOM     34  C   UNL     1     104.918 128.783 141.770  0.00  0.00    +0.000 C 
ATOM     35  C   UNL     1     104.110 128.618 141.779  0.00  0.00    +0.000 C 
BRANCH  35  37
ATOM     36  O   UNL     1     101.923 131.054 141.360  0.00  0.00    +0.000 OA
ATOM     37  C   UNL     1     103.563 129.227 141.675  0.00  0.00    +0.000 A 
ATOM     38  C   UNL     1     103.159 129.300 140.959  0.00  0.00    +0.000 A 
ATOM     39  C   UNL     1     103.421 129.763 142.286  0.00  0.00    +0.000 A 
ATOM     40  C   UNL     1     102.612 129.909 140.855  0.00  0.00    +0.000 A 
ATOM     41  C   UNL     1     102.874 130.372 142.180  0.00  0.00    +0.000 A 
ATOM     42  C   UNL     1     102.470 130.445 141.465  0.00  0.00    +0.000 A 
BRANCH  40  43
ATOM     43  O   UNL     1     102.208 129.982 140.139  0.00  0.00    +0.000 OA
ATOM     44  C   UNL     1     102.195 129.351 139.607  0.00  0.00    +0.000 C 
ENDBRANCH  40  43
ENDBRANCH  35  37
ENDBRANCH  33  34
ENDBRANCH  31  33
ENDBRANCH   4  31
TORSDOF 8
ENDMDL
MODEL 3
REMARK VINA RESULT:      -9.8     10.377     12.046
REMARK  Name = 44257684
REMARK  8 active torsions:
REMARK  status: ('A' for Active; 'I' for Inactive)
REMARK    1  A    between atoms: O_2  and  C_14
REMARK    2  A    between atoms: O_2  and  C_26
REMARK    3  A    between atoms: O_12  and  C_41
REMARK    4  A    between atoms: C_16  and  C_19
REMARK    5  A    between atoms: C_18  and  C_20
REMARK    6  A    between atoms: C_26  and  C_28
REMARK    7  A    between atoms: C_30  and  C_31
REMARK    8  A    between atoms: C_32  and  C_33
REMARK                            x       y       z     vdW  Elec       q    Type
REMARK                         _______ _______ _______ _____ _____    ______ ____
ROOT
ATOM      1  O   UNL     1     109.747 131.020 136.713  0.00  0.00    +0.000 OA
ATOM      2  O   UNL     1     108.003 129.618 135.656  0.00  0.00    +0.000 OA
ATOM      3  O   UNL     1     108.138 131.211 135.252  0.00  0.00    +0.000 OA
ATOM      4  C   UNL     1     109.099 129.755 136.563  0.00  0.00    +0.000 C 
ATOM      5  C   UNL     1     108.584 130.085 136.008  0.00  0.00    +0.000 C 
ATOM      6  C   UNL     1     109.681 130.222 136.916  0.00  0.00    +0.000 C 
ATOM      7  C   UNL     1     108.652 130.882 135.806  0.00  0.00    +0.000 C 
ATOM      8  C   UNL     1     109.234 131.349 136.159  0.00  0.00    +0.000 C 
ENDROOT
BRANCH   6  13
ATOM      9  O   UNL     1     111.197 129.756 136.461  0.00  0.00    +0.000 OA
ATOM     10  O   UNL     1     109.192 130.029 138.480  0.00  0.00    +0.000 OA
ATOM     11  O   UNL     1     111.748 128.890 139.166  0.00  0.00    +0.000 OA
ATOM     12  O   UNL     1     112.489 129.191 136.764  0.00  0.00    +0.000 OA
ATOM     13  C   UNL     1     110.194 129.893 137.470  0.00  0.00    +0.000 A 
ATOM     14  C   UNL     1     110.952 129.659 137.243  0.00  0.00    +0.000 A 
ATOM     15  C   UNL     1     109.950 129.796 138.252  0.00  0.00    +0.000 A 
ATOM     16  C   UNL     1     111.466 129.330 137.797  0.00  0.00    +0.000 A 
ATOM     17  C   UNL     1     110.464 129.465 138.807  0.00  0.00    +0.000 A 
ATOM     18  C   UNL     1     111.222 129.233 138.579  0.00  0.00    +0.000 A 
ATOM     19  C   UNL     1     112.253 129.091 137.548  0.00  0.00    +0.000 A 
ATOM     20  C   UNL     1     112.793 128.746 138.121  0.00  0.00    +0.000 A 
ATOM     21  C   UNL     1     112.538 128.645 138.936  0.00  0.00    +0.000 A 
BRANCH  21  23
ATOM     22  O   UNL     1     114.586 127.325 141.163  0.00  0.00    +0.000 OA
ATOM     23  C   UNL     1     113.050 128.316 139.493  0.00  0.00    +0.000 A 
ATOM     24  C   UNL     1     113.503 128.806 139.979  0.00  0.00    +0.000 A 
ATOM     25  C   UNL     1     113.109 127.496 139.564  0.00  0.00    +0.000 A 
ATOM     26  C   UNL     1     114.014 128.476 140.535  0.00  0.00    +0.000 A 
ATOM     27  C   UNL     1     113.621 127.166 140.121  0.00  0.00    +0.000 A 
ATOM     28  C   UNL     1     114.074 127.656 140.607  0.00  0.00    +0.000 A 
ENDBRANCH  21  23
ENDBRANCH   6  13
BRANCH   8  30
ATOM     29  O   UNL     1     109.436 132.711 136.543  0.00  0.00    +0.000 OA
ATOM     30  C   UNL     1     109.301 132.146 135.957  0.00  0.00    +0.000 C 
ENDBRANCH   8  30
BRANCH   4  31
ATOM     31  O   UNL     1     109.031 128.958 136.765  0.00  0.00    +0.000 OA
BRANCH  31  33
ATOM     32  O   UNL     1     108.050 128.456 135.856  0.00  0.00    +0.000 OA
ATOM     33  C   UNL     1     108.799 128.407 136.197  0.00  0.00    +0.000 C 
BRANCH  33  34
ATOM     34  C   UNL     1     109.318 127.806 135.970  0.00  0.00    +0.000 C 
ATOM     35  C   UNL     1     109.182 127.031 136.217  0.00  0.00    +0.000 C 
BRANCH  35  37
ATOM     36  O   UNL     1     111.253 124.624 135.315  0.00  0.00    +0.000 OA
ATOM     37  C   UNL     1     109.700 126.429 135.991  0.00  0.00    +0.000 A 
ATOM     38  C   UNL     1     110.203 126.087 136.549  0.00  0.00    +0.000 A 
ATOM     39  C   UNL     1     109.715 126.170 135.208  0.00  0.00    +0.000 A 
ATOM     40  C   UNL     1     110.720 125.485 136.323  0.00  0.00    +0.000 A 
ATOM     41  C   UNL     1     110.233 125.568 134.983  0.00  0.00    +0.000 A 
ATOM     42  C   UNL     1     110.735 125.226 135.540  0.00  0.00    +0.000 A 
BRANCH  40  43
ATOM     43  O   UNL     1     111.223 125.143 136.881  0.00  0.00    +0.000 OA
ATOM     44  C   UNL     1     111.077 125.249 137.686  0.00  0.00    +0.000 C 
ENDBRANCH  40  43
ENDBRANCH  35  37
ENDBRANCH  33  34
ENDBRANCH  31  33
ENDBRANCH   4  31
TORSDOF 8
ENDMDL
MODEL 4
REMARK VINA RESULT:      -9.8      7.285     10.566
REMARK  Name = 44257684
REMARK  8 active torsions:
REMARK  status: ('A' for Active; 'I' for Inactive)
REMARK    1  A    between atoms: O_2  and  C_14
REMARK    2  A    between atoms: O_2  and  C_26
REMARK    3  A    between atoms: O_12  and  C_41
REMARK    4  A    between atoms: C_16  and  C_19
REMARK    5  A    between atoms: C_18  and  C_20
REMARK    6  A    between atoms: C_26  and  C_28
REMARK    7  A    between atoms: C_30  and  C_31
REMARK    8  A    between atoms: C_32  and  C_33
REMARK                            x       y       z     vdW  Elec       q    Type
REMARK                         _______ _______ _______ _____ _____    ______ ____
ROOT
ATOM      1  O   UNL     1     113.233 125.474 137.625  0.00  0.00    +0.000 OA
ATOM      2  O   UNL     1     110.833 124.911 137.401  0.00  0.00    +0.000 OA
ATOM      3  O   UNL     1     111.981 123.875 136.827  0.00  0.00    +0.000 OA
ATOM      4  C   UNL     1     111.859 125.805 137.838  0.00  0.00    +0.000 C 
ATOM      5  C   UNL     1     111.633 125.098 137.476  0.00  0.00    +0.000 C 
ATOM      6  C   UNL     1     112.659 125.993 137.913  0.00  0.00    +0.000 C 
ATOM      7  C   UNL     1     112.207 124.581 137.189  0.00  0.00    +0.000 C 
ATOM      8  C   UNL     1     113.007 124.769 137.263  0.00  0.00    +0.000 C 
ENDROOT
BRANCH   6  13
ATOM      9  O   UNL     1     112.996 126.021 139.528  0.00  0.00    +0.000 OA
ATOM     10  O   UNL     1     112.773 127.377 137.022  0.00  0.00    +0.000 OA
ATOM     11  O   UNL     1     113.570 128.853 139.365  0.00  0.00    +0.000 OA
ATOM     12  O   UNL     1     113.392 126.724 140.724  0.00  0.00    +0.000 OA
ATOM     13  C   UNL     1     112.885 126.698 138.275  0.00  0.00    +0.000 A 
ATOM     14  C   UNL     1     113.053 126.713 139.082  0.00  0.00    +0.000 A 
ATOM     15  C   UNL     1     112.942 127.390 137.829  0.00  0.00    +0.000 A 
ATOM     16  C   UNL     1     113.279 127.419 139.444  0.00  0.00    +0.000 A 
ATOM     17  C   UNL     1     113.167 128.097 138.192  0.00  0.00    +0.000 A 
ATOM     18  C   UNL     1     113.336 128.111 138.999  0.00  0.00    +0.000 A 
ATOM     19  C   UNL     1     113.452 127.421 140.286  0.00  0.00    +0.000 A 
ATOM     20  C   UNL     1     113.687 128.153 140.669  0.00  0.00    +0.000 A 
ATOM     21  C   UNL     1     113.747 128.874 140.204  0.00  0.00    +0.000 A 
BRANCH  21  23
ATOM     22  O   UNL     1     114.649 131.705 141.642  0.00  0.00    +0.000 OA
ATOM     23  C   UNL     1     113.972 129.582 140.564  0.00  0.00    +0.000 A 
ATOM     24  C   UNL     1     113.456 129.964 141.082  0.00  0.00    +0.000 A 
ATOM     25  C   UNL     1     114.714 129.907 140.405  0.00  0.00    +0.000 A 
ATOM     26  C   UNL     1     113.682 130.672 141.441  0.00  0.00    +0.000 A 
ATOM     27  C   UNL     1     114.939 130.615 140.765  0.00  0.00    +0.000 A 
ATOM     28  C   UNL     1     114.423 130.997 141.283  0.00  0.00    +0.000 A 
ENDBRANCH  21  23
ENDBRANCH   6  13
BRANCH   8  30
ATOM     29  O   UNL     1     114.338 124.250 137.303  0.00  0.00    +0.000 OA
ATOM     30  C   UNL     1     113.581 124.251 136.976  0.00  0.00    +0.000 C 
ENDBRANCH   8  30
BRANCH   4  31
ATOM     31  O   UNL     1     111.285 126.323 138.125  0.00  0.00    +0.000 OA
BRANCH  31  33
ATOM     32  O   UNL     1     110.065 125.921 137.500  0.00  0.00    +0.000 OA
ATOM     33  C   UNL     1     110.499 126.077 138.183  0.00  0.00    +0.000 C 
BRANCH  33  34
ATOM     34  C   UNL     1     110.149 125.988 138.925  0.00  0.00    +0.000 C 
ATOM     35  C   UNL     1     109.634 126.566 139.209  0.00  0.00    +0.000 C 
BRANCH  35  37
ATOM     36  O   UNL     1     108.232 126.218 142.176  0.00  0.00    +0.000 OA
ATOM     37  C   UNL     1     109.283 126.479 139.951  0.00  0.00    +0.000 A 
ATOM     38  C   UNL     1     109.534 126.946 140.583  0.00  0.00    +0.000 A 
ATOM     39  C   UNL     1     108.682 125.924 140.060  0.00  0.00    +0.000 A 
ATOM     40  C   UNL     1     109.183 126.859 141.324  0.00  0.00    +0.000 A 
ATOM     41  C   UNL     1     108.332 125.838 140.802  0.00  0.00    +0.000 A 
ATOM     42  C   UNL     1     108.582 126.304 141.434  0.00  0.00    +0.000 A 
BRANCH  40  43
ATOM     43  O   UNL     1     109.434 127.326 141.957  0.00  0.00    +0.000 OA
ATOM     44  C   UNL     1     110.084 127.826 141.867  0.00  0.00    +0.000 C 
ENDBRANCH  40  43
ENDBRANCH  35  37
ENDBRANCH  33  34
ENDBRANCH  31  33
ENDBRANCH   4  31
TORSDOF 8
ENDMDL
MODEL 5
REMARK VINA RESULT:      -9.8     10.282     11.954
REMARK  Name = 44257684
REMARK  8 active torsions:
REMARK  status: ('A' for Active; 'I' for Inactive)
REMARK    1  A    between atoms: O_2  and  C_14
REMARK    2  A    between atoms: O_2  and  C_26
REMARK    3  A    between atoms: O_12  and  C_41
REMARK    4  A    between atoms: C_16  and  C_19
REMARK    5  A    between atoms: C_18  and  C_20
REMARK    6  A    between atoms: C_26  and  C_28
REMARK    7  A    between atoms: C_30  and  C_31
REMARK    8  A    between atoms: C_32  and  C_33
REMARK                            x       y       z     vdW  Elec       q    Type
REMARK                         _______ _______ _______ _____ _____    ______ ____
ROOT
ATOM      1  O   UNL     1     109.542 129.341 136.625  0.00  0.00    +0.000 OA
ATOM      2  O   UNL     1     108.734 127.002 136.617  0.00  0.00    +0.000 OA
ATOM      3  O   UNL     1     108.058 128.111 135.601  0.00  0.00    +0.000 OA
ATOM      4  C   UNL     1     109.611 128.007 137.131  0.00  0.00    +0.000 C 
ATOM      5  C   UNL     1     109.003 127.782 136.620  0.00  0.00    +0.000 C 
ATOM      6  C   UNL     1     109.880 128.787 137.133  0.00  0.00    +0.000 C 
ATOM      7  C   UNL     1     108.665 128.337 136.112  0.00  0.00    +0.000 C 
ATOM      8  C   UNL     1     108.935 129.117 136.114  0.00  0.00    +0.000 C 
ENDROOT
BRANCH   6  13
ATOM      9  O   UNL     1     111.442 128.802 136.602  0.00  0.00    +0.000 OA
ATOM     10  O   UNL     1     109.533 129.221 138.687  0.00  0.00    +0.000 OA
ATOM     11  O   UNL     1     112.326 129.697 139.208  0.00  0.00    +0.000 OA
ATOM     12  O   UNL     1     112.850 129.029 136.822  0.00  0.00    +0.000 OA
ATOM     13  C   UNL     1     110.487 129.011 137.644  0.00  0.00    +0.000 A 
ATOM     14  C   UNL     1     111.269 129.019 137.379  0.00  0.00    +0.000 A 
ATOM     15  C   UNL     1     110.314 129.229 138.421  0.00  0.00    +0.000 A 
ATOM     16  C   UNL     1     111.876 129.244 137.889  0.00  0.00    +0.000 A 
ATOM     17  C   UNL     1     110.922 129.454 138.932  0.00  0.00    +0.000 A 
ATOM     18  C   UNL     1     111.702 129.461 138.666  0.00  0.00    +0.000 A 
ATOM     19  C   UNL     1     112.686 129.248 137.601  0.00  0.00    +0.000 A 
ATOM     20  C   UNL     1     113.322 129.481 138.128  0.00  0.00    +0.000 A 
ATOM     21  C   UNL     1     113.141 129.707 138.938  0.00  0.00    +0.000 A 
BRANCH  21  23
ATOM     22  O   UNL     1     115.563 130.608 140.991  0.00  0.00    +0.000 OA
ATOM     23  C   UNL     1     113.747 129.933 139.451  0.00  0.00    +0.000 A 
ATOM     24  C   UNL     1     114.154 130.639 139.323  0.00  0.00    +0.000 A 
ATOM     25  C   UNL     1     113.945 129.452 140.092  0.00  0.00    +0.000 A 
ATOM     26  C   UNL     1     114.760 130.864 139.837  0.00  0.00    +0.000 A 
ATOM     27  C   UNL     1     114.550 129.677 140.605  0.00  0.00    +0.000 A 
ATOM     28  C   UNL     1     114.958 130.383 140.477  0.00  0.00    +0.000 A 
ENDBRANCH  21  23
ENDBRANCH   6  13
BRANCH   8  30
ATOM     29  O   UNL     1     108.180 130.314 135.913  0.00  0.00    +0.000 OA
ATOM     30  C   UNL     1     108.597 129.671 135.606  0.00  0.00    +0.000 C 
ENDBRANCH   8  30
BRANCH   4  31
ATOM     31  O   UNL     1     109.949 127.452 137.639  0.00  0.00    +0.000 OA
BRANCH  31  33
ATOM     32  O   UNL     1     109.116 126.292 137.661  0.00  0.00    +0.000 OA
ATOM     33  C   UNL     1     109.843 126.646 137.499  0.00  0.00    +0.000 C 
BRANCH  33  34
ATOM     34  C   UNL     1     110.464 126.195 137.197  0.00  0.00    +0.000 C 
ATOM     35  C   UNL     1     110.858 125.658 137.684  0.00  0.00    +0.000 C 
BRANCH  35  37
ATOM     36  O   UNL     1     113.347 123.854 136.484  0.00  0.00    +0.000 OA
ATOM     37  C   UNL     1     111.480 125.207 137.384  0.00  0.00    +0.000 A 
ATOM     38  C   UNL     1     112.250 125.337 137.651  0.00  0.00    +0.000 A 
ATOM     39  C   UNL     1     111.332 124.626 136.817  0.00  0.00    +0.000 A 
ATOM     40  C   UNL     1     112.872 124.885 137.351  0.00  0.00    +0.000 A 
ATOM     41  C   UNL     1     111.955 124.175 136.517  0.00  0.00    +0.000 A 
ATOM     42  C   UNL     1     112.724 124.305 136.784  0.00  0.00    +0.000 A 
BRANCH  40  43
ATOM     43  O   UNL     1     113.642 125.016 137.618  0.00  0.00    +0.000 OA
ATOM     44  C   UNL     1     113.835 125.727 137.987  0.00  0.00    +0.000 C 
ENDBRANCH  40  43
ENDBRANCH  35  37
ENDBRANCH  33  34
ENDBRANCH  31  33
ENDBRANCH   4  31
TORSDOF 8
ENDMDL
MODEL 6
REMARK VINA RESULT:      -9.7     10.775     13.471
REMARK  Name = 44257684
REMARK  8 active torsions:
REMARK  status: ('A' for Active; 'I' for Inactive)
REMARK    1  A    between atoms: O_2  and  C_14
REMARK    2  A    between atoms: O_2  and  C_26
REMARK    3  A    between atoms: O_12  and  C_41
REMARK    4  A    between atoms: C_16  and  C_19
REMARK    5  A    between atoms: C_18  and  C_20
REMARK    6  A    between atoms: C_26  and  C_28
REMARK    7  A    between atoms: C_30  and  C_31
REMARK    8  A    between atoms: C_32  and  C_33
REMARK                            x       y       z     vdW  Elec       q    Type
REMARK                         _______ _______ _______ _____ _____    ______ ____
ROOT
ATOM      1  O   UNL     1     109.004 130.149 136.370  0.00  0.00    +0.000 OA
ATOM      2  O   UNL     1     110.411 132.003 137.212  0.00  0.00    +0.000 OA
ATOM      3  O   UNL     1     108.942 132.324 136.535  0.00  0.00    +0.000 OA
ATOM      4  C   UNL     1     110.208 130.606 136.989  0.00  0.00    +0.000 C 
ATOM      5  C   UNL     1     109.942 131.385 136.931  0.00  0.00    +0.000 C 
ATOM      6  C   UNL     1     109.739 129.987 136.709  0.00  0.00    +0.000 C 
ATOM      7  C   UNL     1     109.207 131.545 136.592  0.00  0.00    +0.000 C 
ATOM      8  C   UNL     1     108.738 130.927 136.312  0.00  0.00    +0.000 C 
ENDROOT
BRANCH   6  13
ATOM      9  O   UNL     1     110.520 129.285 135.436  0.00  0.00    +0.000 OA
ATOM     10  O   UNL     1     109.491 129.133 138.098  0.00  0.00    +0.000 OA
ATOM     11  O   UNL     1     110.810 126.840 136.956  0.00  0.00    +0.000 OA
ATOM     12  O   UNL     1     111.187 128.160 134.829  0.00  0.00    +0.000 OA
ATOM     13  C   UNL     1     110.005 129.209 136.767  0.00  0.00    +0.000 A 
ATOM     14  C   UNL     1     110.396 128.857 136.131  0.00  0.00    +0.000 A 
ATOM     15  C   UNL     1     109.881 128.782 137.461  0.00  0.00    +0.000 A 
ATOM     16  C   UNL     1     110.662 128.079 136.189  0.00  0.00    +0.000 A 
ATOM     17  C   UNL     1     110.147 128.003 137.520  0.00  0.00    +0.000 A 
ATOM     18  C   UNL     1     110.538 127.652 136.883  0.00  0.00    +0.000 A 
ATOM     19  C   UNL     1     111.068 127.724 135.519  0.00  0.00    +0.000 A 
ATOM     20  C   UNL     1     111.347 126.914 135.574  0.00  0.00    +0.000 A 
ATOM     21  C   UNL     1     111.217 126.468 136.298  0.00  0.00    +0.000 A 
BRANCH  21  23
ATOM     22  O   UNL     1     112.277 123.352 136.542  0.00  0.00    +0.000 OA
ATOM     23  C   UNL     1     111.482 125.689 136.359  0.00  0.00    +0.000 A 
ATOM     24  C   UNL     1     112.185 125.523 136.758  0.00  0.00    +0.000 A 
ATOM     25  C   UNL     1     111.045 125.077 136.021  0.00  0.00    +0.000 A 
ATOM     26  C   UNL     1     112.450 124.744 136.819  0.00  0.00    +0.000 A 
ATOM     27  C   UNL     1     111.310 124.298 136.083  0.00  0.00    +0.000 A 
ATOM     28  C   UNL     1     112.013 124.132 136.481  0.00  0.00    +0.000 A 
ENDBRANCH  21  23
ENDBRANCH   6  13
BRANCH   8  30
ATOM     29  O   UNL     1     107.430 130.496 135.930  0.00  0.00    +0.000 OA
ATOM     30  C   UNL     1     108.004 131.088 135.973  0.00  0.00    +0.000 C 
ENDBRANCH   8  30
BRANCH   4  31
ATOM     31  O   UNL     1     110.943 130.446 137.328  0.00  0.00    +0.000 OA
BRANCH  31  33
ATOM     32  O   UNL     1     111.384 131.621 138.010  0.00  0.00    +0.000 OA
ATOM     33  C   UNL     1     111.494 131.052 137.424  0.00  0.00    +0.000 C 
BRANCH  33  34
ATOM     34  C   UNL     1     112.156 131.088 136.932  0.00  0.00    +0.000 C 
ATOM     35  C   UNL     1     112.900 130.887 137.228  0.00  0.00    +0.000 C 
BRANCH  35  37
ATOM     36  O   UNL     1     115.550 131.026 135.266  0.00  0.00    +0.000 OA
ATOM     37  C   UNL     1     113.562 130.922 136.737  0.00  0.00    +0.000 A 
ATOM     38  C   UNL     1     113.908 130.225 136.461  0.00  0.00    +0.000 A 
ATOM     39  C   UNL     1     113.879 131.653 136.523  0.00  0.00    +0.000 A 
ATOM     40  C   UNL     1     114.571 130.261 135.971  0.00  0.00    +0.000 A 
ATOM     41  C   UNL     1     114.542 131.688 136.033  0.00  0.00    +0.000 A 
ATOM     42  C   UNL     1     114.888 130.992 135.757  0.00  0.00    +0.000 A 
BRANCH  40  43
ATOM     43  O   UNL     1     114.917 129.564 135.694  0.00  0.00    +0.000 OA
ATOM     44  C   UNL     1     114.441 128.950 135.417  0.00  0.00    +0.000 C 
ENDBRANCH  40  43
ENDBRANCH  35  37
ENDBRANCH  33  34
ENDBRANCH  31  33
ENDBRANCH   4  31
TORSDOF 8
ENDMDL
MODEL 7
REMARK VINA RESULT:      -9.7     11.380     12.996
REMARK  Name = 44257684
REMARK  8 active torsions:
REMARK  status: ('A' for Active; 'I' for Inactive)
REMARK    1  A    between atoms: O_2  and  C_14
REMARK    2  A    between atoms: O_2  and  C_26
REMARK    3  A    between atoms: O_12  and  C_41
REMARK    4  A    between atoms: C_16  and  C_19
REMARK    5  A    between atoms: C_18  and  C_20
REMARK    6  A    between atoms: C_26  and  C_28
REMARK    7  A    between atoms: C_30  and  C_31
REMARK    8  A    between atoms: C_32  and  C_33
REMARK                            x       y       z     vdW  Elec       q    Type
REMARK                         _______ _______ _______ _____ _____    ______ ____
ROOT
ATOM      1  O   UNL     1     114.131 129.925 136.162  0.00  0.00    +0.000 OA
ATOM      2  O   UNL     1     112.579 131.599 137.119  0.00  0.00    +0.000 OA
ATOM      3  O   UNL     1     114.020 132.082 136.479  0.00  0.00    +0.000 OA
ATOM      4  C   UNL     1     112.893 130.241 136.801  0.00  0.00    +0.000 C 
ATOM      5  C   UNL     1     113.096 131.041 136.800  0.00  0.00    +0.000 C 
ATOM      6  C   UNL     1     113.410 129.683 136.482  0.00  0.00    +0.000 C 
ATOM      7  C   UNL     1     113.817 131.282 136.480  0.00  0.00    +0.000 C 
ATOM      8  C   UNL     1     114.335 130.724 136.161  0.00  0.00    +0.000 C 
ENDROOT
BRANCH   6  13
ATOM      9  O   UNL     1     113.709 128.757 137.814  0.00  0.00    +0.000 OA
ATOM     10  O   UNL     1     112.703 129.010 135.151  0.00  0.00    +0.000 OA
ATOM     11  O   UNL     1     112.582 126.454 136.474  0.00  0.00    +0.000 OA
ATOM     12  O   UNL     1     113.667 127.495 138.511  0.00  0.00    +0.000 OA
ATOM     13  C   UNL     1     113.206 128.884 136.483  0.00  0.00    +0.000 A 
ATOM     14  C   UNL     1     113.356 128.420 137.149  0.00  0.00    +0.000 A 
ATOM     15  C   UNL     1     112.853 128.548 135.818  0.00  0.00    +0.000 A 
ATOM     16  C   UNL     1     113.152 127.622 137.150  0.00  0.00    +0.000 A 
ATOM     17  C   UNL     1     112.649 127.748 135.818  0.00  0.00    +0.000 A 
ATOM     18  C   UNL     1     112.799 127.285 136.485  0.00  0.00    +0.000 A 
ATOM     19  C   UNL     1     113.313 127.149 137.850  0.00  0.00    +0.000 A 
ATOM     20  C   UNL     1     113.103 126.317 137.857  0.00  0.00    +0.000 A 
ATOM     21  C   UNL     1     112.735 125.966 137.163  0.00  0.00    +0.000 A 
BRANCH  21  23
ATOM     22  O   UNL     1     111.914 122.769 137.156  0.00  0.00    +0.000 OA
ATOM     23  C   UNL     1     112.530 125.167 137.162  0.00  0.00    +0.000 A 
ATOM     24  C   UNL     1     113.069 124.603 136.893  0.00  0.00    +0.000 A 
ATOM     25  C   UNL     1     111.785 124.931 137.428  0.00  0.00    +0.000 A 
ATOM     26  C   UNL     1     112.864 123.804 136.891  0.00  0.00    +0.000 A 
ATOM     27  C   UNL     1     111.580 124.132 137.426  0.00  0.00    +0.000 A 
ATOM     28  C   UNL     1     112.120 123.569 137.158  0.00  0.00    +0.000 A 
ENDBRANCH  21  23
ENDBRANCH   6  13
BRANCH   8  30
ATOM     29  O   UNL     1     115.616 130.405 135.614  0.00  0.00    +0.000 OA
ATOM     30  C   UNL     1     115.055 130.966 135.841  0.00  0.00    +0.000 C 
ENDBRANCH   8  30
BRANCH   4  31
ATOM     31  O   UNL     1     112.172 130.000 137.121  0.00  0.00    +0.000 OA
BRANCH  31  33
ATOM     32  O   UNL     1     111.780 131.047 138.010  0.00  0.00    +0.000 OA
ATOM     33  C   UNL     1     111.619 130.562 137.363  0.00  0.00    +0.000 C 
BRANCH  33  34
ATOM     34  C   UNL     1     110.904 130.639 136.957  0.00  0.00    +0.000 C 
ATOM     35  C   UNL     1     110.199 130.407 137.316  0.00  0.00    +0.000 C 
BRANCH  35  37
ATOM     36  O   UNL     1     107.340 130.710 135.695  0.00  0.00    +0.000 OA
ATOM     37  C   UNL     1     109.485 130.483 136.911  0.00  0.00    +0.000 A 
ATOM     38  C   UNL     1     109.120 129.816 136.590  0.00  0.00    +0.000 A 
ATOM     39  C   UNL     1     109.135 131.226 136.827  0.00  0.00    +0.000 A 
ATOM     40  C   UNL     1     108.405 129.892 136.185  0.00  0.00    +0.000 A 
ATOM     41  C   UNL     1     108.420 131.301 136.421  0.00  0.00    +0.000 A 
ATOM     42  C   UNL     1     108.055 130.635 136.100  0.00  0.00    +0.000 A 
BRANCH  40  43
ATOM     43  O   UNL     1     108.040 129.225 135.863  0.00  0.00    +0.000 OA
ATOM     44  C   UNL     1     108.485 128.549 135.704  0.00  0.00    +0.000 C 
ENDBRANCH  40  43
ENDBRANCH  35  37
ENDBRANCH  33  34
ENDBRANCH  31  33
ENDBRANCH   4  31
TORSDOF 8
ENDMDL
MODEL 8
REMARK VINA RESULT:      -9.6     10.839     11.953
REMARK  Name = 44257684
REMARK  8 active torsions:
REMARK  status: ('A' for Active; 'I' for Inactive)
REMARK    1  A    between atoms: O_2  and  C_14
REMARK    2  A    between atoms: O_2  and  C_26
REMARK    3  A    between atoms: O_12  and  C_41
REMARK    4  A    between atoms: C_16  and  C_19
REMARK    5  A    between atoms: C_18  and  C_20
REMARK    6  A    between atoms: C_26  and  C_28
REMARK    7  A    between atoms: C_30  and  C_31
REMARK    8  A    between atoms: C_32  and  C_33
REMARK                            x       y       z     vdW  Elec       q    Type
REMARK                         _______ _______ _______ _____ _____    ______ ____
ROOT
ATOM      1  O   UNL     1     113.780 130.509 139.832  0.00  0.00    +0.000 OA
ATOM      2  O   UNL     1     114.262 128.162 140.451  0.00  0.00    +0.000 OA
ATOM      3  O   UNL     1     115.230 129.376 141.004  0.00  0.00    +0.000 OA
ATOM      4  C   UNL     1     113.455 129.120 139.761  0.00  0.00    +0.000 C 
ATOM      5  C   UNL     1     114.101 128.944 140.244  0.00  0.00    +0.000 C 
ATOM      6  C   UNL     1     113.295 129.902 139.555  0.00  0.00    +0.000 C 
ATOM      7  C   UNL     1     114.585 129.552 140.521  0.00  0.00    +0.000 C 
ATOM      8  C   UNL     1     114.425 130.334 140.315  0.00  0.00    +0.000 C 
ENDROOT
BRANCH   6  13
ATOM      9  O   UNL     1     113.496 130.029 137.922  0.00  0.00    +0.000 OA
ATOM     10  O   UNL     1     111.802 130.125 140.221  0.00  0.00    +0.000 OA
ATOM     11  O   UNL     1     110.678 130.610 137.613  0.00  0.00    +0.000 OA
ATOM     12  O   UNL     1     112.973 130.266 136.599  0.00  0.00    +0.000 OA
ATOM     13  C   UNL     1     112.650 130.077 139.072  0.00  0.00    +0.000 A 
ATOM     14  C   UNL     1     112.750 130.141 138.255  0.00  0.00    +0.000 A 
ATOM     15  C   UNL     1     111.903 130.189 139.405  0.00  0.00    +0.000 A 
ATOM     16  C   UNL     1     112.105 130.316 137.773  0.00  0.00    +0.000 A 
ATOM     17  C   UNL     1     111.257 130.364 138.922  0.00  0.00    +0.000 A 
ATOM     18  C   UNL     1     111.359 130.427 138.106  0.00  0.00    +0.000 A 
ATOM     19  C   UNL     1     112.223 130.379 136.923  0.00  0.00    +0.000 A 
ATOM     20  C   UNL     1     111.554 130.561 136.415  0.00  0.00    +0.000 A 
ATOM     21  C   UNL     1     110.776 130.677 136.763  0.00  0.00    +0.000 A 
BRANCH  21  23
ATOM     22  O   UNL     1     108.187 131.377 134.840  0.00  0.00    +0.000 OA
ATOM     23  C   UNL     1     110.129 130.852 136.282  0.00  0.00    +0.000 A 
ATOM     24  C   UNL     1     109.886 131.635 136.186  0.00  0.00    +0.000 A 
ATOM     25  C   UNL     1     109.725 130.245 135.898  0.00  0.00    +0.000 A 
ATOM     26  C   UNL     1     109.239 131.810 135.705  0.00  0.00    +0.000 A 
ATOM     27  C   UNL     1     109.078 130.420 135.417  0.00  0.00    +0.000 A 
ATOM     28  C   UNL     1     108.835 131.203 135.321  0.00  0.00    +0.000 A 
ENDBRANCH  21  23
ENDBRANCH   6  13
BRANCH   8  30
ATOM     29  O   UNL     1     114.575 131.616 140.930  0.00  0.00    +0.000 OA
ATOM     30  C   UNL     1     114.909 130.941 140.592  0.00  0.00    +0.000 C 
ENDBRANCH   8  30
BRANCH   4  31
ATOM     31  O   UNL     1     112.971 128.512 139.484  0.00  0.00    +0.000 OA
BRANCH  31  33
ATOM     32  O   UNL     1     113.115 127.410 140.382  0.00  0.00    +0.000 OA
ATOM     33  C   UNL     1     113.176 127.725 139.622  0.00  0.00    +0.000 C 
BRANCH  33  34
ATOM     34  C   UNL     1     113.443 127.253 139.000  0.00  0.00    +0.000 C 
ATOM     35  C   UNL     1     113.025 126.574 138.790  0.00  0.00    +0.000 C 
BRANCH  35  37
ATOM     36  O   UNL     1     114.084 124.685 136.300  0.00  0.00    +0.000 OA
ATOM     37  C   UNL     1     113.290 126.102 138.168  0.00  0.00    +0.000 A 
ATOM     38  C   UNL     1     112.823 126.008 137.493  0.00  0.00    +0.000 A 
ATOM     39  C   UNL     1     114.021 125.723 138.219  0.00  0.00    +0.000 A 
ATOM     40  C   UNL     1     113.089 125.535 136.871  0.00  0.00    +0.000 A 
ATOM     41  C   UNL     1     114.286 125.251 137.596  0.00  0.00    +0.000 A 
ATOM     42  C   UNL     1     113.820 125.157 136.923  0.00  0.00    +0.000 A 
BRANCH  40  43
ATOM     43  O   UNL     1     112.622 125.441 136.197  0.00  0.00    +0.000 OA
ATOM     44  C   UNL     1     111.800 125.476 136.257  0.00  0.00    +0.000 C 
ENDBRANCH  40  43
ENDBRANCH  35  37
ENDBRANCH  33  34
ENDBRANCH  31  33
ENDBRANCH   4  31
TORSDOF 8
ENDMDL
MODEL 9
REMARK VINA RESULT:      -9.6      8.695     12.247
REMARK  Name = 44257684
REMARK  8 active torsions:
REMARK  status: ('A' for Active; 'I' for Inactive)
REMARK    1  A    between atoms: O_2  and  C_14
REMARK    2  A    between atoms: O_2  and  C_26
REMARK    3  A    between atoms: O_12  and  C_41
REMARK    4  A    between atoms: C_16  and  C_19
REMARK    5  A    between atoms: C_18  and  C_20
REMARK    6  A    between atoms: C_26  and  C_28
REMARK    7  A    between atoms: C_30  and  C_31
REMARK    8  A    between atoms: C_32  and  C_33
REMARK                            x       y       z     vdW  Elec       q    Type
REMARK                         _______ _______ _______ _____ _____    ______ ____
ROOT
ATOM      1  O   UNL     1     111.795 124.645 137.825  0.00  0.00    +0.000 OA
ATOM      2  O   UNL     1     111.621 125.631 135.562  0.00  0.00    +0.000 OA
ATOM      3  O   UNL     1     111.838 124.006 135.739  0.00  0.00    +0.000 OA
ATOM      4  C   UNL     1     111.629 125.787 136.983  0.00  0.00    +0.000 C 
ATOM      5  C   UNL     1     111.679 125.302 136.316  0.00  0.00    +0.000 C 
ATOM      6  C   UNL     1     111.687 125.458 137.737  0.00  0.00    +0.000 C 
ATOM      7  C   UNL     1     111.788 124.489 136.405  0.00  0.00    +0.000 C 
ATOM      8  C   UNL     1     111.846 124.161 137.160  0.00  0.00    +0.000 C 
ENDROOT
BRANCH   6  13
ATOM      9  O   UNL     1     113.063 125.978 138.486  0.00  0.00    +0.000 OA
ATOM     10  O   UNL     1     110.210 125.908 138.320  0.00  0.00    +0.000 OA
ATOM     11  O   UNL     1     111.470 127.416 140.427  0.00  0.00    +0.000 OA
ATOM     12  O   UNL     1     113.732 126.721 139.525  0.00  0.00    +0.000 OA
ATOM     13  C   UNL     1     111.637 125.942 138.403  0.00  0.00    +0.000 A 
ATOM     14  C   UNL     1     112.324 126.202 138.778  0.00  0.00    +0.000 A 
ATOM     15  C   UNL     1     110.898 126.167 138.694  0.00  0.00    +0.000 A 
ATOM     16  C   UNL     1     112.274 126.686 139.443  0.00  0.00    +0.000 A 
ATOM     17  C   UNL     1     110.848 126.652 139.361  0.00  0.00    +0.000 A 
ATOM     18  C   UNL     1     111.536 126.911 139.734  0.00  0.00    +0.000 A 
ATOM     19  C   UNL     1     112.998 126.951 139.824  0.00  0.00    +0.000 A 
ATOM     20  C   UNL     1     112.952 127.455 140.518  0.00  0.00    +0.000 A 
ATOM     21  C   UNL     1     112.182 127.690 140.822  0.00  0.00    +0.000 A 
BRANCH  21  23
ATOM     22  O   UNL     1     111.969 129.628 143.484  0.00  0.00    +0.000 OA
ATOM     23  C   UNL     1     112.128 128.174 141.487  0.00  0.00    +0.000 A 
ATOM     24  C   UNL     1     111.770 127.892 142.175  0.00  0.00    +0.000 A 
ATOM     25  C   UNL     1     112.434 128.940 141.465  0.00  0.00    +0.000 A 
ATOM     26  C   UNL     1     111.716 128.377 142.840  0.00  0.00    +0.000 A 
ATOM     27  C   UNL     1     112.381 129.425 142.131  0.00  0.00    +0.000 A 
ATOM     28  C   UNL     1     112.022 129.143 142.819  0.00  0.00    +0.000 A 
ENDBRANCH  21  23
ENDBRANCH   6  13
BRANCH   8  30
ATOM     29  O   UNL     1     111.571 122.944 137.857  0.00  0.00    +0.000 OA
ATOM     30  C   UNL     1     111.954 123.348 137.248  0.00  0.00    +0.000 C 
ENDBRANCH   8  30
BRANCH   4  31
ATOM     31  O   UNL     1     111.520 126.600 136.894  0.00  0.00    +0.000 OA
BRANCH  31  33
ATOM     32  O   UNL     1     111.247 126.852 135.515  0.00  0.00    +0.000 OA
ATOM     33  C   UNL     1     111.718 126.967 136.182  0.00  0.00    +0.000 C 
BRANCH  33  34
ATOM     34  C   UNL     1     112.386 127.449 136.139  0.00  0.00    +0.000 C 
ATOM     35  C   UNL     1     112.301 128.264 136.048  0.00  0.00    +0.000 C 
BRANCH  35  37
ATOM     36  O   UNL     1     114.970 130.197 135.876  0.00  0.00    +0.000 OA
ATOM     37  C   UNL     1     112.968 128.747 136.004  0.00  0.00    +0.000 A 
ATOM     38  C   UNL     1     113.177 129.220 136.648  0.00  0.00    +0.000 A 
ATOM     39  C   UNL     1     113.426 128.758 135.318  0.00  0.00    +0.000 A 
ATOM     40  C   UNL     1     113.845 129.703 136.604  0.00  0.00    +0.000 A 
ATOM     41  C   UNL     1     114.094 129.241 135.276  0.00  0.00    +0.000 A 
ATOM     42  C   UNL     1     114.303 129.714 135.918  0.00  0.00    +0.000 A 
BRANCH  40  43
ATOM     43  O   UNL     1     114.054 130.176 137.248  0.00  0.00    +0.000 OA
ATOM     44  C   UNL     1     113.613 130.142 137.944  0.00  0.00    +0.000 C 
ENDBRANCH  40  43
ENDBRANCH  35  37
ENDBRANCH  33  34
ENDBRANCH  31  33
ENDBRANCH   4  31
TORSDOF 8
ENDMDL
MODEL 10
REMARK VINA RESULT:      -9.6     10.441     12.252
REMARK  Name = 44257684
REMARK  8 active torsions:
REMARK  status: ('A' for Active; 'I' for Inactive)
REMARK    1  A    between atoms: O_2  and  C_14
REMARK    2  A    between atoms: O_2  and  C_26
REMARK    3  A    between atoms: O_12  and  C_41
REMARK    4  A    between atoms: C_16  and  C_19
REMARK    5  A    between atoms: C_18  and  C_20
REMARK    6  A    between atoms: C_26  and  C_28
REMARK    7  A    between atoms: C_30  and  C_31
REMARK    8  A    between atoms: C_32  and  C_33
REMARK                            x       y       z     vdW  Elec       q    Type
REMARK                         _______ _______ _______ _____ _____    ______ ____
ROOT
ATOM      1  O   UNL     1     113.381 126.160 136.819  0.00  0.00    +0.000 OA
ATOM      2  O   UNL     1     114.071 126.203 139.196  0.00  0.00    +0.000 OA
ATOM      3  O   UNL     1     114.758 125.122 138.157  0.00  0.00    +0.000 OA
ATOM      4  C   UNL     1     113.267 126.716 138.131  0.00  0.00    +0.000 C 
ATOM      5  C   UNL     1     113.841 126.189 138.404  0.00  0.00    +0.000 C 
ATOM      6  C   UNL     1     113.037 126.701 137.338  0.00  0.00    +0.000 C 
ATOM      7  C   UNL     1     114.184 125.649 137.884  0.00  0.00    +0.000 C 
ATOM      8  C   UNL     1     113.955 125.634 137.092  0.00  0.00    +0.000 C 
ENDROOT
BRANCH   6  13
ATOM      9  O   UNL     1     113.489 128.141 136.670  0.00  0.00    +0.000 OA
ATOM     10  O   UNL     1     111.438 126.315 137.462  0.00  0.00    +0.000 OA
ATOM     11  O   UNL     1     110.709 128.821 136.241  0.00  0.00    +0.000 OA
ATOM     12  O   UNL     1     113.165 129.405 136.055  0.00  0.00    +0.000 OA
ATOM     13  C   UNL     1     112.464 127.228 137.066  0.00  0.00    +0.000 A 
ATOM     14  C   UNL     1     112.689 127.947 136.732  0.00  0.00    +0.000 A 
ATOM     15  C   UNL     1     111.664 127.034 137.128  0.00  0.00    +0.000 A 
ATOM     16  C   UNL     1     112.116 128.474 136.459  0.00  0.00    +0.000 A 
ATOM     17  C   UNL     1     111.090 127.561 136.856  0.00  0.00    +0.000 A 
ATOM     18  C   UNL     1     111.316 128.280 136.521  0.00  0.00    +0.000 A 
ATOM     19  C   UNL     1     112.363 129.220 136.113  0.00  0.00    +0.000 A 
ATOM     20  C   UNL     1     111.770 129.772 135.827  0.00  0.00    +0.000 A 
ATOM     21  C   UNL     1     110.937 129.571 135.892  0.00  0.00    +0.000 A 
BRANCH  21  23
ATOM     22  O   UNL     1     108.633 131.670 134.806  0.00  0.00    +0.000 OA
ATOM     23  C   UNL     1     110.361 130.096 135.620  0.00  0.00    +0.000 A 
ATOM     24  C   UNL     1     110.008 129.976 134.884  0.00  0.00    +0.000 A 
ATOM     25  C   UNL     1     110.137 130.740 136.085  0.00  0.00    +0.000 A 
ATOM     26  C   UNL     1     109.433 130.501 134.612  0.00  0.00    +0.000 A 
ATOM     27  C   UNL     1     109.562 131.264 135.813  0.00  0.00    +0.000 A 
ATOM     28  C   UNL     1     109.209 131.145 135.077  0.00  0.00    +0.000 A 
ENDBRANCH  21  23
ENDBRANCH   6  13
BRANCH   8  30
ATOM     29  O   UNL     1     113.822 124.595 136.119  0.00  0.00    +0.000 OA
ATOM     30  C   UNL     1     114.298 125.094 136.573  0.00  0.00    +0.000 C 
ENDBRANCH   8  30
BRANCH   4  31
ATOM     31  O   UNL     1     112.923 127.256 138.651  0.00  0.00    +0.000 OA
BRANCH  31  33
ATOM     32  O   UNL     1     113.117 126.680 139.943  0.00  0.00    +0.000 OA
ATOM     33  C   UNL     1     113.200 127.317 139.426  0.00  0.00    +0.000 C 
BRANCH  33  34
ATOM     34  C   UNL     1     113.558 128.014 139.682  0.00  0.00    +0.000 C 
ATOM     35  C   UNL     1     113.189 128.482 140.252  0.00  0.00    +0.000 C 
BRANCH  35  37
ATOM     36  O   UNL     1     114.617 131.273 141.282  0.00  0.00    +0.000 OA
ATOM     37  C   UNL     1     113.546 129.179 140.509  0.00  0.00    +0.000 A 
ATOM     38  C   UNL     1     113.129 129.702 140.993  0.00  0.00    +0.000 A 
ATOM     39  C   UNL     1     114.320 129.355 140.283  0.00  0.00    +0.000 A 
ATOM     40  C   UNL     1     113.487 130.400 141.250  0.00  0.00    +0.000 A 
ATOM     41  C   UNL     1     114.677 130.053 140.541  0.00  0.00    +0.000 A 
ATOM     42  C   UNL     1     114.260 130.575 141.024  0.00  0.00    +0.000 A 
BRANCH  40  43
ATOM     43  O   UNL     1     113.069 130.923 141.734  0.00  0.00    +0.000 OA
ATOM     44  C   UNL     1     112.466 130.641 142.221  0.00  0.00    +0.000 C 
ENDBRANCH  40  43
ENDBRANCH  35  37
ENDBRANCH  33  34
ENDBRANCH  31  33
ENDBRANCH   4  31
TORSDOF 8
ENDMDL
