MODEL 1
REMARK VINA RESULT:      -7.8      0.000      0.000
REMARK  Name = 5496474
REMARK  5 active torsions:
REMARK  status: ('A' for Active; 'I' for Inactive)
REMARK    1  A    between atoms: O_2  and  C_13
REMARK    2  A    between atoms: O_3  and  C_18
REMARK    3  A    between atoms: O_4  and  C_19
REMARK    4  A    between atoms: O_7  and  C_24
REMARK    5  A    between atoms: C_12  and  C_15
REMARK                            x       y       z     vdW  Elec       q    Type
REMARK                         _______ _______ _______ _____ _____    ______ ____
ROOT
ATOM      1  O   UNL     1     103.863 124.659 147.588  0.00  0.00    +0.000 OA
ATOM      2  O   UNL     1     102.273 123.414 145.523  0.00  0.00    +0.000 OA
ATOM      3  O   UNL     1     103.697 123.584 145.365  0.00  0.00    +0.000 OA
ATOM      4  C   UNL     1     103.076 124.043 146.568  0.00  0.00    +0.000 A 
ATOM      5  C   UNL     1     103.132 124.402 147.309  0.00  0.00    +0.000 A 
ATOM      6  C   UNL     1     104.540 124.558 147.128  0.00  0.00    +0.000 A 
ATOM      7  C   UNL     1     104.485 124.200 146.386  0.00  0.00    +0.000 A 
ATOM      8  C   UNL     1     103.752 123.942 146.106  0.00  0.00    +0.000 A 
ATOM      9  C   UNL     1     102.319 123.771 146.264  0.00  0.00    +0.000 A 
ATOM     10  C   UNL     1     102.434 124.512 147.798  0.00  0.00    +0.000 A 
ATOM     11  C   UNL     1     101.611 123.873 146.740  0.00  0.00    +0.000 A 
ATOM     12  C   UNL     1     101.669 124.247 147.512  0.00  0.00    +0.000 A 
ENDROOT
BRANCH   6  15
ATOM     13  O   UNL     1     106.561 126.573 147.285  0.00  0.00    +0.000 OA
ATOM     14  O   UNL     1     106.913 124.086 148.649  0.00  0.00    +0.000 OA
ATOM     15  C   UNL     1     105.272 124.815 147.407  0.00  0.00    +0.000 A 
ATOM     16  C   UNL     1     105.726 124.322 147.888  0.00  0.00    +0.000 A 
ATOM     17  C   UNL     1     105.551 125.565 147.206  0.00  0.00    +0.000 A 
ATOM     18  C   UNL     1     106.283 125.822 147.486  0.00  0.00    +0.000 A 
ATOM     19  C   UNL     1     106.459 124.579 148.168  0.00  0.00    +0.000 A 
ATOM     20  C   UNL     1     106.737 125.329 147.967  0.00  0.00    +0.000 A 
BRANCH  20  21
ATOM     21  O   UNL     1     107.470 125.586 148.247  0.00  0.00    +0.000 OA
ATOM     22  C   UNL     1     108.165 125.305 147.903  0.00  0.00    +0.000 C 
ENDBRANCH  20  21
ENDBRANCH   6  15
BRANCH   7  23
ATOM     23  O   UNL     1     105.161 124.099 145.925  0.00  0.00    +0.000 OA
ATOM     24  C   UNL     1     105.122 124.199 145.107  0.00  0.00    +0.000 C 
ENDBRANCH   7  23
BRANCH  11  25
ATOM     25  O   UNL     1     100.880 123.615 146.457  0.00  0.00    +0.000 OA
ATOM     26  C   UNL     1     100.712 122.808 146.426  0.00  0.00    +0.000 C 
ENDBRANCH  11  25
BRANCH  12  27
ATOM     27  O   UNL     1     100.994 124.349 147.975  0.00  0.00    +0.000 OA
ATOM     28  C   UNL     1     101.046 124.742 148.699  0.00  0.00    +0.000 C 
ENDBRANCH  12  27
TORSDOF 5
ENDMDL
MODEL 2
REMARK VINA RESULT:      -7.8      1.332      2.577
REMARK  Name = 5496474
REMARK  5 active torsions:
REMARK  status: ('A' for Active; 'I' for Inactive)
REMARK    1  A    between atoms: O_2  and  C_13
REMARK    2  A    between atoms: O_3  and  C_18
REMARK    3  A    between atoms: O_4  and  C_19
REMARK    4  A    between atoms: O_7  and  C_24
REMARK    5  A    between atoms: C_12  and  C_15
REMARK                            x       y       z     vdW  Elec       q    Type
REMARK                         _______ _______ _______ _____ _____    ______ ____
ROOT
ATOM      1  O   UNL     1     103.551 124.528 146.301  0.00  0.00    +0.000 OA
ATOM      2  O   UNL     1     102.661 123.882 148.972  0.00  0.00    +0.000 OA
ATOM      3  O   UNL     1     103.960 124.464 148.741  0.00  0.00    +0.000 OA
ATOM      4  C   UNL     1     103.110 124.208 147.621  0.00  0.00    +0.000 A 
ATOM      5  C   UNL     1     102.973 124.230 146.808  0.00  0.00    +0.000 A 
ATOM      6  C   UNL     1     104.265 124.806 146.606  0.00  0.00    +0.000 A 
ATOM      7  C   UNL     1     104.402 124.785 147.419  0.00  0.00    +0.000 A 
ATOM      8  C   UNL     1     103.824 124.486 147.927  0.00  0.00    +0.000 A 
ATOM      9  C   UNL     1     102.516 123.899 148.161  0.00  0.00    +0.000 A 
ATOM     10  C   UNL     1     102.233 123.943 146.477  0.00  0.00    +0.000 A 
ATOM     11  C   UNL     1     101.770 123.609 147.849  0.00  0.00    +0.000 A 
ATOM     12  C   UNL     1     101.628 123.631 147.001  0.00  0.00    +0.000 A 
ENDROOT
BRANCH   6  15
ATOM     13  O   UNL     1     106.449 124.373 144.813  0.00  0.00    +0.000 OA
ATOM     14  O   UNL     1     105.549 127.031 145.354  0.00  0.00    +0.000 OA
ATOM     15  C   UNL     1     104.843 125.104 146.099  0.00  0.00    +0.000 A 
ATOM     16  C   UNL     1     104.907 125.918 145.980  0.00  0.00    +0.000 A 
ATOM     17  C   UNL     1     105.357 124.589 145.710  0.00  0.00    +0.000 A 
ATOM     18  C   UNL     1     105.935 124.888 145.202  0.00  0.00    +0.000 A 
ATOM     19  C   UNL     1     105.485 126.217 145.473  0.00  0.00    +0.000 A 
ATOM     20  C   UNL     1     105.998 125.702 145.084  0.00  0.00    +0.000 A 
BRANCH  20  21
ATOM     21  O   UNL     1     106.577 126.001 144.576  0.00  0.00    +0.000 OA
ATOM     22  C   UNL     1     106.396 126.145 143.784  0.00  0.00    +0.000 C 
ENDBRANCH  20  21
ENDBRANCH   6  15
BRANCH   7  23
ATOM     23  O   UNL     1     105.116 125.062 147.726  0.00  0.00    +0.000 OA
ATOM     24  C   UNL     1     105.390 124.783 148.452  0.00  0.00    +0.000 C 
ENDBRANCH   7  23
BRANCH  11  25
ATOM     25  O   UNL     1     101.194 123.311 148.359  0.00  0.00    +0.000 OA
ATOM     26  C   UNL     1     100.710 123.828 148.781  0.00  0.00    +0.000 C 
ENDBRANCH  11  25
BRANCH  12  27
ATOM     27  O   UNL     1     100.915 123.354 146.692  0.00  0.00    +0.000 OA
ATOM     28  C   UNL     1     100.864 123.144 145.896  0.00  0.00    +0.000 C 
ENDBRANCH  12  27
TORSDOF 5
ENDMDL
MODEL 3
REMARK VINA RESULT:      -7.8      7.315      8.597
REMARK  Name = 5496474
REMARK  5 active torsions:
REMARK  status: ('A' for Active; 'I' for Inactive)
REMARK    1  A    between atoms: O_2  and  C_13
REMARK    2  A    between atoms: O_3  and  C_18
REMARK    3  A    between atoms: O_4  and  C_19
REMARK    4  A    between atoms: O_7  and  C_24
REMARK    5  A    between atoms: C_12  and  C_15
REMARK                            x       y       z     vdW  Elec       q    Type
REMARK                         _______ _______ _______ _____ _____    ______ ____
ROOT
ATOM      1  O   UNL     1     103.569 130.032 142.276  0.00  0.00    +0.000 OA
ATOM      2  O   UNL     1     104.421 127.594 140.981  0.00  0.00    +0.000 OA
ATOM      3  O   UNL     1     103.542 128.523 140.314  0.00  0.00    +0.000 OA
ATOM      4  C   UNL     1     103.991 128.826 141.636  0.00  0.00    +0.000 A 
ATOM      5  C   UNL     1     104.000 129.329 142.290  0.00  0.00    +0.000 A 
ATOM      6  C   UNL     1     103.128 130.233 141.608  0.00  0.00    +0.000 A 
ATOM      7  C   UNL     1     103.119 129.730 140.954  0.00  0.00    +0.000 A 
ATOM      8  C   UNL     1     103.551 129.026 140.968  0.00  0.00    +0.000 A 
ATOM      9  C   UNL     1     104.436 128.090 141.639  0.00  0.00    +0.000 A 
ATOM     10  C   UNL     1     104.455 129.132 142.993  0.00  0.00    +0.000 A 
ATOM     11  C   UNL     1     104.897 127.877 142.332  0.00  0.00    +0.000 A 
ATOM     12  C   UNL     1     104.906 128.401 143.013  0.00  0.00    +0.000 A 
ENDROOT
BRANCH   6  15
ATOM     13  O   UNL     1     100.710 131.664 142.129  0.00  0.00    +0.000 OA
ATOM     14  O   UNL     1     102.958 133.020 140.998  0.00  0.00    +0.000 OA
ATOM     15  C   UNL     1     102.697 130.935 141.593  0.00  0.00    +0.000 A 
ATOM     16  C   UNL     1     103.043 131.625 141.303  0.00  0.00    +0.000 A 
ATOM     17  C   UNL     1     101.919 130.949 141.868  0.00  0.00    +0.000 A 
ATOM     18  C   UNL     1     101.488 131.651 141.854  0.00  0.00    +0.000 A 
ATOM     19  C   UNL     1     102.612 132.329 141.288  0.00  0.00    +0.000 A 
ATOM     20  C   UNL     1     101.834 132.341 141.564  0.00  0.00    +0.000 A 
BRANCH  20  21
ATOM     21  O   UNL     1     101.403 133.045 141.549  0.00  0.00    +0.000 OA
ATOM     22  C   UNL     1     101.422 133.555 142.197  0.00  0.00    +0.000 C 
ENDBRANCH  20  21
ENDBRANCH   6  15
BRANCH   7  23
ATOM     23  O   UNL     1     102.679 129.929 140.285  0.00  0.00    +0.000 OA
ATOM     24  C   UNL     1     102.389 129.337 139.790  0.00  0.00    +0.000 C 
ENDBRANCH   7  23
BRANCH  11  25
ATOM     25  O   UNL     1     105.327 127.173 142.343  0.00  0.00    +0.000 OA
ATOM     26  C   UNL     1     106.073 127.140 141.993  0.00  0.00    +0.000 C 
ENDBRANCH  11  25
BRANCH  12  27
ATOM     27  O   UNL     1     105.346 128.203 143.683  0.00  0.00    +0.000 OA
ATOM     28  C   UNL     1     105.219 128.605 144.392  0.00  0.00    +0.000 C 
ENDBRANCH  12  27
TORSDOF 5
ENDMDL
MODEL 4
REMARK VINA RESULT:      -7.7     12.388     14.655
REMARK  Name = 5496474
REMARK  5 active torsions:
REMARK  status: ('A' for Active; 'I' for Inactive)
REMARK    1  A    between atoms: O_2  and  C_13
REMARK    2  A    between atoms: O_3  and  C_18
REMARK    3  A    between atoms: O_4  and  C_19
REMARK    4  A    between atoms: O_7  and  C_24
REMARK    5  A    between atoms: C_12  and  C_15
REMARK                            x       y       z     vdW  Elec       q    Type
REMARK                         _______ _______ _______ _____ _____    ______ ____
ROOT
ATOM      1  O   UNL     1     113.342 127.388 136.257  0.00  0.00    +0.000 OA
ATOM      2  O   UNL     1     113.340 129.716 137.966  0.00  0.00    +0.000 OA
ATOM      3  O   UNL     1     112.822 128.452 138.429  0.00  0.00    +0.000 OA
ATOM      4  C   UNL     1     113.342 128.540 137.101  0.00  0.00    +0.000 A 
ATOM      5  C   UNL     1     113.515 128.185 136.377  0.00  0.00    +0.000 A 
ATOM      6  C   UNL     1     112.996 126.944 136.860  0.00  0.00    +0.000 A 
ATOM      7  C   UNL     1     112.822 127.299 137.584  0.00  0.00    +0.000 A 
ATOM      8  C   UNL     1     112.995 128.098 137.705  0.00  0.00    +0.000 A 
ATOM      9  C   UNL     1     113.517 129.370 137.239  0.00  0.00    +0.000 A 
ATOM     10  C   UNL     1     113.876 128.636 135.740  0.00  0.00    +0.000 A 
ATOM     11  C   UNL     1     113.878 129.836 136.615  0.00  0.00    +0.000 A 
ATOM     12  C   UNL     1     114.059 129.467 135.860  0.00  0.00    +0.000 A 
ENDROOT
BRANCH   6  15
ATOM     13  O   UNL     1     113.785 124.199 136.952  0.00  0.00    +0.000 OA
ATOM     14  O   UNL     1     111.167 124.904 136.046  0.00  0.00    +0.000 OA
ATOM     15  C   UNL     1     112.823 126.147 136.740  0.00  0.00    +0.000 A 
ATOM     16  C   UNL     1     112.082 125.925 136.453  0.00  0.00    +0.000 A 
ATOM     17  C   UNL     1     113.390 125.572 136.906  0.00  0.00    +0.000 A 
ATOM     18  C   UNL     1     113.217 124.775 136.786  0.00  0.00    +0.000 A 
ATOM     19  C   UNL     1     111.908 125.127 136.333  0.00  0.00    +0.000 A 
ATOM     20  C   UNL     1     112.476 124.552 136.499  0.00  0.00    +0.000 A 
BRANCH  20  21
ATOM     21  O   UNL     1     112.303 123.754 136.379  0.00  0.00    +0.000 OA
ATOM     22  C   UNL     1     111.993 123.301 136.995  0.00  0.00    +0.000 C 
ENDBRANCH  20  21
ENDBRANCH   6  15
BRANCH   7  23
ATOM     23  O   UNL     1     112.476 126.857 138.188  0.00  0.00    +0.000 OA
ATOM     24  C   UNL     1     112.528 127.114 138.971  0.00  0.00    +0.000 C 
ENDBRANCH   7  23
BRANCH  11  25
ATOM     25  O   UNL     1     114.050 130.634 136.738  0.00  0.00    +0.000 OA
ATOM     26  C   UNL     1     113.444 131.194 136.719  0.00  0.00    +0.000 C 
ENDBRANCH  11  25
BRANCH  12  27
ATOM     27  O   UNL     1     114.405 129.907 135.254  0.00  0.00    +0.000 OA
ATOM     28  C   UNL     1     114.754 129.523 134.613  0.00  0.00    +0.000 C 
ENDBRANCH  12  27
TORSDOF 5
ENDMDL
MODEL 5
REMARK VINA RESULT:      -7.7     13.132     14.296
REMARK  Name = 5496474
REMARK  5 active torsions:
REMARK  status: ('A' for Active; 'I' for Inactive)
REMARK    1  A    between atoms: O_2  and  C_13
REMARK    2  A    between atoms: O_3  and  C_18
REMARK    3  A    between atoms: O_4  and  C_19
REMARK    4  A    between atoms: O_7  and  C_24
REMARK    5  A    between atoms: C_12  and  C_15
REMARK                            x       y       z     vdW  Elec       q    Type
REMARK                         _______ _______ _______ _____ _____    ______ ____
ROOT
ATOM      1  O   UNL     1     113.152 127.011 136.607  0.00  0.00    +0.000 OA
ATOM      2  O   UNL     1     111.381 124.831 135.935  0.00  0.00    +0.000 OA
ATOM      3  O   UNL     1     111.020 126.198 135.649  0.00  0.00    +0.000 OA
ATOM      4  C   UNL     1     112.277 125.932 136.275  0.00  0.00    +0.000 A 
ATOM      5  C   UNL     1     112.988 126.204 136.595  0.00  0.00    +0.000 A 
ATOM      6  C   UNL     1     112.607 127.549 136.300  0.00  0.00    +0.000 A 
ATOM      7  C   UNL     1     111.896 127.278 135.980  0.00  0.00    +0.000 A 
ATOM      8  C   UNL     1     111.731 126.469 135.968  0.00  0.00    +0.000 A 
ATOM      9  C   UNL     1     112.093 125.092 136.256  0.00  0.00    +0.000 A 
ATOM     10  C   UNL     1     113.564 125.654 136.918  0.00  0.00    +0.000 A 
ATOM     11  C   UNL     1     112.658 124.528 136.575  0.00  0.00    +0.000 A 
ATOM     12  C   UNL     1     113.398 124.811 136.907  0.00  0.00    +0.000 A 
ENDROOT
BRANCH   6  15
ATOM     13  O   UNL     1     112.404 130.098 137.577  0.00  0.00    +0.000 OA
ATOM     14  O   UNL     1     113.798 129.850 135.094  0.00  0.00    +0.000 OA
ATOM     15  C   UNL     1     112.772 128.357 136.312  0.00  0.00    +0.000 A 
ATOM     16  C   UNL     1     113.202 128.699 135.697  0.00  0.00    +0.000 A 
ATOM     17  C   UNL     1     112.506 128.823 136.938  0.00  0.00    +0.000 A 
ATOM     18  C   UNL     1     112.670 129.631 136.951  0.00  0.00    +0.000 A 
ATOM     19  C   UNL     1     113.368 129.508 135.709  0.00  0.00    +0.000 A 
ATOM     20  C   UNL     1     113.101 129.973 136.336  0.00  0.00    +0.000 A 
BRANCH  20  21
ATOM     21  O   UNL     1     113.266 130.782 136.348  0.00  0.00    +0.000 OA
ATOM     22  C   UNL     1     113.948 131.059 136.722  0.00  0.00    +0.000 C 
ENDBRANCH  20  21
ENDBRANCH   6  15
BRANCH   7  23
ATOM     23  O   UNL     1     111.350 127.814 135.673  0.00  0.00    +0.000 OA
ATOM     24  C   UNL     1     110.798 127.566 135.113  0.00  0.00    +0.000 C 
ENDBRANCH   7  23
BRANCH  11  25
ATOM     25  O   UNL     1     112.490 123.721 136.561  0.00  0.00    +0.000 OA
ATOM     26  C   UNL     1     111.987 123.394 137.127  0.00  0.00    +0.000 C 
ENDBRANCH  11  25
BRANCH  12  27
ATOM     27  O   UNL     1     113.946 124.276 137.215  0.00  0.00    +0.000 OA
ATOM     28  C   UNL     1     114.710 124.528 137.399  0.00  0.00    +0.000 C 
ENDBRANCH  12  27
TORSDOF 5
ENDMDL
MODEL 6
REMARK VINA RESULT:      -7.6      1.621      4.386
REMARK  Name = 5496474
REMARK  5 active torsions:
REMARK  status: ('A' for Active; 'I' for Inactive)
REMARK    1  A    between atoms: O_2  and  C_13
REMARK    2  A    between atoms: O_3  and  C_18
REMARK    3  A    between atoms: O_4  and  C_19
REMARK    4  A    between atoms: O_7  and  C_24
REMARK    5  A    between atoms: C_12  and  C_15
REMARK                            x       y       z     vdW  Elec       q    Type
REMARK                         _______ _______ _______ _____ _____    ______ ____
ROOT
ATOM      1  O   UNL     1     104.054 125.208 146.764  0.00  0.00    +0.000 OA
ATOM      2  O   UNL     1     105.994 124.461 144.759  0.00  0.00    +0.000 OA
ATOM      3  O   UNL     1     104.944 123.554 145.153  0.00  0.00    +0.000 OA
ATOM      4  C   UNL     1     105.014 124.840 145.773  0.00  0.00    +0.000 A 
ATOM      5  C   UNL     1     104.717 125.391 146.310  0.00  0.00    +0.000 A 
ATOM      6  C   UNL     1     103.686 124.473 146.682  0.00  0.00    +0.000 A 
ATOM      7  C   UNL     1     103.983 123.922 146.145  0.00  0.00    +0.000 A 
ATOM      8  C   UNL     1     104.647 124.105 145.690  0.00  0.00    +0.000 A 
ATOM      9  C   UNL     1     105.705 125.018 145.293  0.00  0.00    +0.000 A 
ATOM     10  C   UNL     1     105.090 126.159 146.405  0.00  0.00    +0.000 A 
ATOM     11  C   UNL     1     106.091 125.781 145.375  0.00  0.00    +0.000 A 
ATOM     12  C   UNL     1     105.782 126.356 145.935  0.00  0.00    +0.000 A 
ENDROOT
BRANCH   6  15
ATOM     13  O   UNL     1     100.846 124.330 146.971  0.00  0.00    +0.000 OA
ATOM     14  O   UNL     1     102.544 123.517 149.121  0.00  0.00    +0.000 OA
ATOM     15  C   UNL     1     103.023 124.290 147.136  0.00  0.00    +0.000 A 
ATOM     16  C   UNL     1     103.116 123.995 147.901  0.00  0.00    +0.000 A 
ATOM     17  C   UNL     1     102.266 124.402 146.826  0.00  0.00    +0.000 A 
ATOM     18  C   UNL     1     101.603 124.219 147.280  0.00  0.00    +0.000 A 
ATOM     19  C   UNL     1     102.451 123.812 148.356  0.00  0.00    +0.000 A 
ATOM     20  C   UNL     1     101.696 123.924 148.045  0.00  0.00    +0.000 A 
BRANCH  20  21
ATOM     21  O   UNL     1     101.032 123.740 148.500  0.00  0.00    +0.000 OA
ATOM     22  C   UNL     1     100.714 122.979 148.479  0.00  0.00    +0.000 C 
ENDBRANCH  20  21
ENDBRANCH   6  15
BRANCH   7  23
ATOM     23  O   UNL     1     103.617 123.188 146.062  0.00  0.00    +0.000 OA
ATOM     24  C   UNL     1     103.741 122.739 145.381  0.00  0.00    +0.000 C 
ENDBRANCH   7  23
BRANCH  11  25
ATOM     25  O   UNL     1     106.755 125.961 144.919  0.00  0.00    +0.000 OA
ATOM     26  C   UNL     1     106.662 126.267 144.158  0.00  0.00    +0.000 C 
ENDBRANCH  11  25
BRANCH  12  27
ATOM     27  O   UNL     1     106.147 127.091 146.019  0.00  0.00    +0.000 OA
ATOM     28  C   UNL     1     106.018 127.539 146.700  0.00  0.00    +0.000 C 
ENDBRANCH  12  27
TORSDOF 5
ENDMDL
MODEL 7
REMARK VINA RESULT:      -7.5     12.218     13.964
REMARK  Name = 5496474
REMARK  5 active torsions:
REMARK  status: ('A' for Active; 'I' for Inactive)
REMARK    1  A    between atoms: O_2  and  C_13
REMARK    2  A    between atoms: O_3  and  C_18
REMARK    3  A    between atoms: O_4  and  C_19
REMARK    4  A    between atoms: O_7  and  C_24
REMARK    5  A    between atoms: C_12  and  C_15
REMARK                            x       y       z     vdW  Elec       q    Type
REMARK                         _______ _______ _______ _____ _____    ______ ____
ROOT
ATOM      1  O   UNL     1     111.414 126.428 136.509  0.00  0.00    +0.000 OA
ATOM      2  O   UNL     1     114.302 126.373 136.500  0.00  0.00    +0.000 OA
ATOM      3  O   UNL     1     113.581 127.614 136.354  0.00  0.00    +0.000 OA
ATOM      4  C   UNL     1     112.842 126.400 136.504  0.00  0.00    +0.000 A 
ATOM      5  C   UNL     1     112.120 126.005 136.556  0.00  0.00    +0.000 A 
ATOM      6  C   UNL     1     111.429 127.247 136.410  0.00  0.00    +0.000 A 
ATOM      7  C   UNL     1     112.151 127.642 136.359  0.00  0.00    +0.000 A 
ATOM      8  C   UNL     1     112.858 127.219 136.406  0.00  0.00    +0.000 A 
ATOM      9  C   UNL     1     113.585 125.970 136.552  0.00  0.00    +0.000 A 
ATOM     10  C   UNL     1     112.090 125.151 136.659  0.00  0.00    +0.000 A 
ATOM     11  C   UNL     1     113.575 125.117 136.655  0.00  0.00    +0.000 A 
ATOM     12  C   UNL     1     112.822 124.705 136.708  0.00  0.00    +0.000 A 
ENDROOT
BRANCH   6  15
ATOM     13  O   UNL     1     109.291 128.645 137.691  0.00  0.00    +0.000 OA
ATOM     14  O   UNL     1     109.330 128.392 134.845  0.00  0.00    +0.000 OA
ATOM     15  C   UNL     1     110.723 127.671 136.363  0.00  0.00    +0.000 A 
ATOM     16  C   UNL     1     110.380 127.819 135.628  0.00  0.00    +0.000 A 
ATOM     17  C   UNL     1     110.360 127.946 137.051  0.00  0.00    +0.000 A 
ATOM     18  C   UNL     1     109.654 128.370 137.003  0.00  0.00    +0.000 A 
ATOM     19  C   UNL     1     109.673 128.243 135.580  0.00  0.00    +0.000 A 
ATOM     20  C   UNL     1     109.311 128.518 136.268  0.00  0.00    +0.000 A 
BRANCH  20  21
ATOM     21  O   UNL     1     108.604 128.942 136.220  0.00  0.00    +0.000 OA
ATOM     22  C   UNL     1     108.620 129.757 136.095  0.00  0.00    +0.000 C 
ENDBRANCH  20  21
ENDBRANCH   6  15
BRANCH   7  23
ATOM     23  O   UNL     1     112.168 128.461 136.260  0.00  0.00    +0.000 OA
ATOM     24  C   UNL     1     112.870 128.837 136.044  0.00  0.00    +0.000 C 
ENDBRANCH   7  23
BRANCH  11  25
ATOM     25  O   UNL     1     114.283 124.696 136.702  0.00  0.00    +0.000 OA
ATOM     26  C   UNL     1     114.715 124.692 137.405  0.00  0.00    +0.000 C 
ENDBRANCH  11  25
BRANCH  12  27
ATOM     27  O   UNL     1     112.803 123.886 136.807  0.00  0.00    +0.000 OA
ATOM     28  C   UNL     1     112.080 123.492 136.844  0.00  0.00    +0.000 C 
ENDBRANCH  12  27
TORSDOF 5
ENDMDL
MODEL 8
REMARK VINA RESULT:      -7.3      9.780     11.405
REMARK  Name = 5496474
REMARK  5 active torsions:
REMARK  status: ('A' for Active; 'I' for Inactive)
REMARK    1  A    between atoms: O_2  and  C_13
REMARK    2  A    between atoms: O_3  and  C_18
REMARK    3  A    between atoms: O_4  and  C_19
REMARK    4  A    between atoms: O_7  and  C_24
REMARK    5  A    between atoms: C_12  and  C_15
REMARK                            x       y       z     vdW  Elec       q    Type
REMARK                         _______ _______ _______ _____ _____    ______ ____
ROOT
ATOM      1  O   UNL     1     111.758 131.630 145.276  0.00  0.00    +0.000 OA
ATOM      2  O   UNL     1     111.689 132.427 142.501  0.00  0.00    +0.000 OA
ATOM      3  O   UNL     1     111.881 133.398 143.549  0.00  0.00    +0.000 OA
ATOM      4  C   UNL     1     111.724 132.023 143.904  0.00  0.00    +0.000 A 
ATOM      5  C   UNL     1     111.683 131.433 144.479  0.00  0.00    +0.000 A 
ATOM      6  C   UNL     1     111.875 132.416 145.499  0.00  0.00    +0.000 A 
ATOM      7  C   UNL     1     111.915 133.006 144.923  0.00  0.00    +0.000 A 
ATOM      8  C   UNL     1     111.840 132.809 144.125  0.00  0.00    +0.000 A 
ATOM      9  C   UNL     1     111.647 131.831 143.069  0.00  0.00    +0.000 A 
ATOM     10  C   UNL     1     111.562 130.611 144.261  0.00  0.00    +0.000 A 
ATOM     11  C   UNL     1     111.526 131.015 142.832  0.00  0.00    +0.000 A 
ATOM     12  C   UNL     1     111.483 130.400 143.432  0.00  0.00    +0.000 A 
ENDROOT
BRANCH   6  15
ATOM     13  O   UNL     1     110.767 133.517 147.893  0.00  0.00    +0.000 OA
ATOM     14  O   UNL     1     113.436 132.495 147.892  0.00  0.00    +0.000 OA
ATOM     15  C   UNL     1     111.950 132.613 146.296  0.00  0.00    +0.000 A 
ATOM     16  C   UNL     1     112.655 132.455 146.695  0.00  0.00    +0.000 A 
ATOM     17  C   UNL     1     111.321 132.966 146.696  0.00  0.00    +0.000 A 
ATOM     18  C   UNL     1     111.396 133.163 147.493  0.00  0.00    +0.000 A 
ATOM     19  C   UNL     1     112.731 132.652 147.493  0.00  0.00    +0.000 A 
ATOM     20  C   UNL     1     112.101 133.006 147.892  0.00  0.00    +0.000 A 
BRANCH  20  21
ATOM     21  O   UNL     1     112.177 133.203 148.690  0.00  0.00    +0.000 OA
ATOM     22  C   UNL     1     112.042 132.632 149.270  0.00  0.00    +0.000 C 
ENDBRANCH  20  21
ENDBRANCH   6  15
BRANCH   7  23
ATOM     23  O   UNL     1     112.031 133.792 145.145  0.00  0.00    +0.000 OA
ATOM     24  C   UNL     1     112.066 134.382 144.569  0.00  0.00    +0.000 C 
ENDBRANCH   7  23
BRANCH  11  25
ATOM     25  O   UNL     1     111.451 130.821 142.033  0.00  0.00    +0.000 OA
ATOM     26  C   UNL     1     110.730 130.932 141.648  0.00  0.00    +0.000 C 
ENDBRANCH  11  25
BRANCH  12  27
ATOM     27  O   UNL     1     111.367 129.613 143.213  0.00  0.00    +0.000 OA
ATOM     28  C   UNL     1     111.569 129.006 143.733  0.00  0.00    +0.000 C 
ENDBRANCH  12  27
TORSDOF 5
ENDMDL
MODEL 9
REMARK VINA RESULT:      -7.3      1.725      4.854
REMARK  Name = 5496474
REMARK  5 active torsions:
REMARK  status: ('A' for Active; 'I' for Inactive)
REMARK    1  A    between atoms: O_2  and  C_13
REMARK    2  A    between atoms: O_3  and  C_18
REMARK    3  A    between atoms: O_4  and  C_19
REMARK    4  A    between atoms: O_7  and  C_24
REMARK    5  A    between atoms: C_12  and  C_15
REMARK                            x       y       z     vdW  Elec       q    Type
REMARK                         _______ _______ _______ _____ _____    ______ ____
ROOT
ATOM      1  O   UNL     1     104.757 125.730 145.909  0.00  0.00    +0.000 OA
ATOM      2  O   UNL     1     107.451 126.504 146.607  0.00  0.00    +0.000 OA
ATOM      3  O   UNL     1     106.831 125.347 147.204  0.00  0.00    +0.000 OA
ATOM      4  C   UNL     1     106.089 126.114 146.253  0.00  0.00    +0.000 A 
ATOM      5  C   UNL     1     105.398 126.242 145.821  0.00  0.00    +0.000 A 
ATOM      6  C   UNL     1     104.806 125.090 146.428  0.00  0.00    +0.000 A 
ATOM      7  C   UNL     1     105.498 124.963 146.859  0.00  0.00    +0.000 A 
ATOM      8  C   UNL     1     106.140 125.475 146.772  0.00  0.00    +0.000 A 
ATOM      9  C   UNL     1     106.765 126.640 146.172  0.00  0.00    +0.000 A 
ATOM     10  C   UNL     1     105.333 126.904 145.278  0.00  0.00    +0.000 A 
ATOM     11  C   UNL     1     106.718 127.307 145.633  0.00  0.00    +0.000 A 
ATOM     12  C   UNL     1     105.998 127.440 145.183  0.00  0.00    +0.000 A 
ENDROOT
BRANCH   6  15
ATOM     13  O   UNL     1     102.378 124.368 147.750  0.00  0.00    +0.000 OA
ATOM     14  O   UNL     1     103.388 122.741 145.628  0.00  0.00    +0.000 OA
ATOM     15  C   UNL     1     104.166 124.579 146.515  0.00  0.00    +0.000 A 
ATOM     16  C   UNL     1     104.098 123.916 146.028  0.00  0.00    +0.000 A 
ATOM     17  C   UNL     1     103.592 124.729 147.089  0.00  0.00    +0.000 A 
ATOM     18  C   UNL     1     102.951 124.218 147.176  0.00  0.00    +0.000 A 
ATOM     19  C   UNL     1     103.456 123.404 146.115  0.00  0.00    +0.000 A 
ATOM     20  C   UNL     1     102.883 123.555 146.689  0.00  0.00    +0.000 A 
BRANCH  20  21
ATOM     21  O   UNL     1     102.242 123.043 146.776  0.00  0.00    +0.000 OA
ATOM     22  C   UNL     1     101.546 123.177 146.353  0.00  0.00    +0.000 C 
ENDBRANCH  20  21
ENDBRANCH   6  15
BRANCH   7  23
ATOM     23  O   UNL     1     105.548 124.323 147.378  0.00  0.00    +0.000 OA
ATOM     24  C   UNL     1     106.010 124.380 148.059  0.00  0.00    +0.000 C 
ENDBRANCH   7  23
BRANCH  11  25
ATOM     25  O   UNL     1     107.361 127.817 145.548  0.00  0.00    +0.000 OA
ATOM     26  C   UNL     1     107.476 128.431 146.088  0.00  0.00    +0.000 C 
ENDBRANCH  11  25
BRANCH  12  27
ATOM     27  O   UNL     1     105.945 128.079 144.663  0.00  0.00    +0.000 OA
ATOM     28  C   UNL     1     105.351 128.098 144.091  0.00  0.00    +0.000 C 
ENDBRANCH  12  27
TORSDOF 5
ENDMDL
MODEL 10
REMARK VINA RESULT:      -7.2     10.667     12.824
REMARK  Name = 5496474
REMARK  5 active torsions:
REMARK  status: ('A' for Active; 'I' for Inactive)
REMARK    1  A    between atoms: O_2  and  C_13
REMARK    2  A    between atoms: O_3  and  C_18
REMARK    3  A    between atoms: O_4  and  C_19
REMARK    4  A    between atoms: O_7  and  C_24
REMARK    5  A    between atoms: C_12  and  C_15
REMARK                            x       y       z     vdW  Elec       q    Type
REMARK                         _______ _______ _______ _____ _____    ______ ____
ROOT
ATOM      1  O   UNL     1     113.432 126.818 138.370  0.00  0.00    +0.000 OA
ATOM      2  O   UNL     1     111.543 124.650 138.096  0.00  0.00    +0.000 OA
ATOM      3  O   UNL     1     111.333 125.702 139.059  0.00  0.00    +0.000 OA
ATOM      4  C   UNL     1     112.499 125.746 138.233  0.00  0.00    +0.000 A 
ATOM      5  C   UNL     1     113.198 126.118 138.004  0.00  0.00    +0.000 A 
ATOM      6  C   UNL     1     112.966 127.148 138.966  0.00  0.00    +0.000 A 
ATOM      7  C   UNL     1     112.267 126.776 139.196  0.00  0.00    +0.000 A 
ATOM      8  C   UNL     1     112.033 126.074 138.829  0.00  0.00    +0.000 A 
ATOM      9  C   UNL     1     112.244 125.014 137.859  0.00  0.00    +0.000 A 
ATOM     10  C   UNL     1     113.692 125.785 137.383  0.00  0.00    +0.000 A 
ATOM     11  C   UNL     1     112.724 124.667 137.238  0.00  0.00    +0.000 A 
ATOM     12  C   UNL     1     113.453 125.055 136.998  0.00  0.00    +0.000 A 
ENDROOT
BRANCH   6  15
ATOM     13  O   UNL     1     114.405 128.501 141.032  0.00  0.00    +0.000 OA
ATOM     14  O   UNL     1     112.930 130.002 139.099  0.00  0.00    +0.000 OA
ATOM     15  C   UNL     1     113.200 127.848 139.333  0.00  0.00    +0.000 A 
ATOM     16  C   UNL     1     112.948 128.574 139.033  0.00  0.00    +0.000 A 
ATOM     17  C   UNL     1     113.686 127.824 139.999  0.00  0.00    +0.000 A 
ATOM     18  C   UNL     1     113.919 128.525 140.366  0.00  0.00    +0.000 A 
ATOM     19  C   UNL     1     113.182 129.276 139.399  0.00  0.00    +0.000 A 
ATOM     20  C   UNL     1     113.667 129.251 140.066  0.00  0.00    +0.000 A 
BRANCH  20  21
ATOM     21  O   UNL     1     113.901 129.953 140.432  0.00  0.00    +0.000 OA
ATOM     22  C   UNL     1     114.602 130.324 140.205  0.00  0.00    +0.000 C 
ENDBRANCH  20  21
ENDBRANCH   6  15
BRANCH   7  23
ATOM     23  O   UNL     1     111.801 127.104 139.792  0.00  0.00    +0.000 OA
ATOM     24  C   UNL     1     111.141 126.696 140.073  0.00  0.00    +0.000 C 
ENDBRANCH   7  23
BRANCH  11  25
ATOM     25  O   UNL     1     112.488 123.966 136.873  0.00  0.00    +0.000 OA
ATOM     26  C   UNL     1     111.884 123.976 136.311  0.00  0.00    +0.000 C 
ENDBRANCH  11  25
BRANCH  12  27
ATOM     27  O   UNL     1     113.921 124.728 136.402  0.00  0.00    +0.000 OA
ATOM     28  C   UNL     1     114.673 125.033 136.254  0.00  0.00    +0.000 C 
ENDBRANCH  12  27
TORSDOF 5
ENDMDL
