MODEL 1
REMARK VINA RESULT:     -11.3      0.000      0.000
REMARK  Name = 131838780
REMARK  9 active torsions:
REMARK  status: ('A' for Active; 'I' for Inactive)
REMARK    1  A    between atoms: O_3  and  C_28
REMARK    2  A    between atoms: O_3  and  C_37
REMARK    3  A    between atoms: C_17  and  C_30
REMARK    4  A    between atoms: C_18  and  C_21
REMARK    5  A    between atoms: C_18  and  C_26
REMARK    6  A    between atoms: C_18  and  C_31
REMARK    7  A    between atoms: C_26  and  C_34
REMARK    8  A    between atoms: C_29  and  C_42
REMARK    9  A    between atoms: C_34  and  C_40
REMARK                            x       y       z     vdW  Elec       q    Type
REMARK                         _______ _______ _______ _____ _____    ______ ____
ROOT
ATOM      1  O   UNL     1     112.213 127.314 136.364  0.00  0.00    +0.000 OA
ATOM      2  O   UNL     1     111.753 128.633 134.613  0.00  0.00    +0.000 OA
ATOM      3  O   UNL     1     111.159 124.727 137.066  0.00  0.00    +0.000 OA
ATOM      4  O   UNL     1     110.238 126.020 134.691  0.00  0.00    +0.000 OA
ATOM      5  C   UNL     1     112.236 127.987 135.830  0.00  0.00    +0.000 C 
ATOM      6  C   UNL     1     111.738 127.991 135.131  0.00  0.00    +0.000 C 
ATOM      7  C   UNL     1     111.222 127.321 134.973  0.00  0.00    +0.000 C 
ATOM      8  C   UNL     1     111.674 126.010 136.706  0.00  0.00    +0.000 A 
ATOM      9  C   UNL     1     111.692 126.654 136.191  0.00  0.00    +0.000 A 
ATOM     10  C   UNL     1     111.213 126.657 135.519  0.00  0.00    +0.000 A 
ATOM     11  C   UNL     1     111.177 125.370 136.550  0.00  0.00    +0.000 A 
ATOM     12  C   UNL     1     110.716 126.017 135.363  0.00  0.00    +0.000 A 
ATOM     13  C   UNL     1     110.698 125.374 135.878  0.00  0.00    +0.000 A 
ENDROOT
BRANCH   5  15
ATOM     14  O   UNL     1     114.227 130.541 136.463  0.00  0.00    +0.000 OA
ATOM     15  C   UNL     1     112.734 128.626 135.989  0.00  0.00    +0.000 A 
ATOM     16  C   UNL     1     112.441 129.290 136.381  0.00  0.00    +0.000 A 
ATOM     17  C   UNL     1     112.939 129.928 136.539  0.00  0.00    +0.000 A 
ATOM     18  C   UNL     1     113.525 128.600 135.755  0.00  0.00    +0.000 A 
ATOM     19  C   UNL     1     113.730 129.903 136.305  0.00  0.00    +0.000 A 
ATOM     20  C   UNL     1     114.023 129.239 135.914  0.00  0.00    +0.000 A 
BRANCH  17  21
ATOM     21  O   UNL     1     112.645 130.593 136.931  0.00  0.00    +0.000 OA
BRANCH  21  29
ATOM     22  O   UNL     1     112.966 130.317 138.295  0.00  0.00    +0.000 OA
ATOM     23  O   UNL     1     110.630 130.816 138.945  0.00  0.00    +0.000 OA
ATOM     24  O   UNL     1     111.088 130.926 137.363  0.00  0.00    +0.000 OA
ATOM     25  O   UNL     1     111.729 130.374 140.092  0.00  0.00    +0.000 OA
ATOM     26  C   UNL     1     111.409 130.650 138.728  0.00  0.00    +0.000 C 
ATOM     27  C   UNL     1     111.637 130.705 137.937  0.00  0.00    +0.000 C 
ATOM     28  C   UNL     1     111.958 130.429 139.302  0.00  0.00    +0.000 C 
ATOM     29  C   UNL     1     112.416 130.538 137.721  0.00  0.00    +0.000 C 
ATOM     30  C   UNL     1     112.736 130.262 139.086  0.00  0.00    +0.000 C 
BRANCH  30  33
ATOM     31  O   UNL     1     113.812 130.600 139.964  0.00  0.00    +0.000 OA
ATOM     32  O   UNL     1     113.311 129.262 139.929  0.00  0.00    +0.000 OA
ATOM     33  C   UNL     1     113.286 130.041 139.659  0.00  0.00    +0.000 C 
ENDBRANCH  30  33
ENDBRANCH  21  29
ENDBRANCH  17  21
ENDBRANCH   5  15
BRANCH   8  34
ATOM     34  C   UNL     1     112.152 126.007 137.378  0.00  0.00    +0.000 C 
BRANCH  34  37
ATOM     35  O   UNL     1     113.424 126.668 138.196  0.00  0.00    +0.000 OA
ATOM     36  O   UNL     1     115.110 124.545 137.291  0.00  0.00    +0.000 OA
ATOM     37  C   UNL     1     112.892 125.641 137.356  0.00  0.00    +0.000 A 
ATOM     38  C   UNL     1     113.527 125.972 137.765  0.00  0.00    +0.000 A 
ATOM     39  C   UNL     1     112.995 124.946 136.926  0.00  0.00    +0.000 A 
ATOM     40  C   UNL     1     114.266 125.607 137.744  0.00  0.00    +0.000 A 
ATOM     41  C   UNL     1     113.735 124.580 136.904  0.00  0.00    +0.000 A 
ATOM     42  C   UNL     1     114.371 124.911 137.313  0.00  0.00    +0.000 A 
ENDBRANCH  34  37
BRANCH  34  44
ATOM     43  O   UNL     1     112.238 127.074 138.325  0.00  0.00    +0.000 OA
ATOM     44  C   UNL     1     111.892 126.368 138.073  0.00  0.00    +0.000 C 
BRANCH  44  45
ATOM     45  C   UNL     1     111.286 126.026 138.514  0.00  0.00    +0.000 C 
BRANCH  45  47
ATOM     46  O   UNL     1     111.277 126.309 141.358  0.00  0.00    +0.000 OA
ATOM     47  C   UNL     1     111.007 126.402 139.194  0.00  0.00    +0.000 A 
ATOM     48  C   UNL     1     111.281 126.168 139.936  0.00  0.00    +0.000 A 
ATOM     49  C   UNL     1     110.454 127.011 139.131  0.00  0.00    +0.000 A 
ATOM     50  C   UNL     1     111.002 126.543 140.616  0.00  0.00    +0.000 A 
ATOM     51  C   UNL     1     110.176 127.386 139.812  0.00  0.00    +0.000 A 
ATOM     52  C   UNL     1     110.450 127.152 140.554  0.00  0.00    +0.000 A 
ENDBRANCH  45  47
ENDBRANCH  44  45
ENDBRANCH  34  44
ENDBRANCH   8  34
TORSDOF 9
ENDMDL
MODEL 2
REMARK VINA RESULT:     -11.0      1.100      1.799
REMARK  Name = 131838780
REMARK  9 active torsions:
REMARK  status: ('A' for Active; 'I' for Inactive)
REMARK    1  A    between atoms: O_3  and  C_28
REMARK    2  A    between atoms: O_3  and  C_37
REMARK    3  A    between atoms: C_17  and  C_30
REMARK    4  A    between atoms: C_18  and  C_21
REMARK    5  A    between atoms: C_18  and  C_26
REMARK    6  A    between atoms: C_18  and  C_31
REMARK    7  A    between atoms: C_26  and  C_34
REMARK    8  A    between atoms: C_29  and  C_42
REMARK    9  A    between atoms: C_34  and  C_40
REMARK                            x       y       z     vdW  Elec       q    Type
REMARK                         _______ _______ _______ _____ _____    ______ ____
ROOT
ATOM      1  O   UNL     1     112.443 127.316 136.471  0.00  0.00    +0.000 OA
ATOM      2  O   UNL     1     111.437 128.869 135.208  0.00  0.00    +0.000 OA
ATOM      3  O   UNL     1     111.814 124.529 136.837  0.00  0.00    +0.000 OA
ATOM      4  O   UNL     1     110.201 126.114 135.092  0.00  0.00    +0.000 OA
ATOM      5  C   UNL     1     112.273 128.074 136.105  0.00  0.00    +0.000 C 
ATOM      6  C   UNL     1     111.609 128.145 135.565  0.00  0.00    +0.000 C 
ATOM      7  C   UNL     1     111.123 127.455 135.398  0.00  0.00    +0.000 C 
ATOM      8  C   UNL     1     112.115 125.912 136.647  0.00  0.00    +0.000 A 
ATOM      9  C   UNL     1     111.947 126.638 136.292  0.00  0.00    +0.000 A 
ATOM     10  C   UNL     1     111.309 126.705 135.774  0.00  0.00    +0.000 A 
ATOM     11  C   UNL     1     111.646 125.254 136.483  0.00  0.00    +0.000 A 
ATOM     12  C   UNL     1     110.839 126.047 135.610  0.00  0.00    +0.000 A 
ATOM     13  C   UNL     1     111.007 125.322 135.964  0.00  0.00    +0.000 A 
ENDROOT
BRANCH   5  15
ATOM     14  O   UNL     1     114.159 130.700 136.766  0.00  0.00    +0.000 OA
ATOM     15  C   UNL     1     112.745 128.731 136.270  0.00  0.00    +0.000 A 
ATOM     16  C   UNL     1     112.621 129.164 136.962  0.00  0.00    +0.000 A 
ATOM     17  C   UNL     1     113.092 129.820 137.127  0.00  0.00    +0.000 A 
ATOM     18  C   UNL     1     113.339 128.954 135.744  0.00  0.00    +0.000 A 
ATOM     19  C   UNL     1     113.687 130.044 136.601  0.00  0.00    +0.000 A 
ATOM     20  C   UNL     1     113.811 129.611 135.910  0.00  0.00    +0.000 A 
BRANCH  17  21
ATOM     21  O   UNL     1     112.969 130.253 137.818  0.00  0.00    +0.000 OA
BRANCH  21  29
ATOM     22  O   UNL     1     111.926 131.120 137.366  0.00  0.00    +0.000 OA
ATOM     23  O   UNL     1     110.711 130.767 139.494  0.00  0.00    +0.000 OA
ATOM     24  O   UNL     1     112.158 130.018 139.236  0.00  0.00    +0.000 OA
ATOM     25  O   UNL     1     110.075 131.751 138.333  0.00  0.00    +0.000 OA
ATOM     26  C   UNL     1     111.116 130.885 138.785  0.00  0.00    +0.000 C 
ATOM     27  C   UNL     1     111.840 130.510 138.657  0.00  0.00    +0.000 C 
ATOM     28  C   UNL     1     110.798 131.377 138.205  0.00  0.00    +0.000 C 
ATOM     29  C   UNL     1     112.245 130.627 137.947  0.00  0.00    +0.000 C 
ATOM     30  C   UNL     1     111.203 131.494 137.496  0.00  0.00    +0.000 C 
BRANCH  30  33
ATOM     31  O   UNL     1     111.132 132.772 136.860  0.00  0.00    +0.000 OA
ATOM     32  O   UNL     1     110.320 131.693 136.390  0.00  0.00    +0.000 OA
ATOM     33  C   UNL     1     110.885 131.986 136.915  0.00  0.00    +0.000 C 
ENDBRANCH  30  33
ENDBRANCH  21  29
ENDBRANCH  17  21
ENDBRANCH   5  15
BRANCH   8  34
ATOM     34  C   UNL     1     112.754 125.845 137.165  0.00  0.00    +0.000 C 
BRANCH  34  37
ATOM     35  O   UNL     1     113.296 124.312 137.443  0.00  0.00    +0.000 OA
ATOM     36  O   UNL     1     115.709 124.910 136.032  0.00  0.00    +0.000 OA
ATOM     37  C   UNL     1     113.492 125.611 136.882  0.00  0.00    +0.000 A 
ATOM     38  C   UNL     1     113.763 124.845 137.021  0.00  0.00    +0.000 A 
ATOM     39  C   UNL     1     113.959 126.143 136.460  0.00  0.00    +0.000 A 
ATOM     40  C   UNL     1     114.502 124.610 136.738  0.00  0.00    +0.000 A 
ATOM     41  C   UNL     1     114.698 125.910 136.177  0.00  0.00    +0.000 A 
ATOM     42  C   UNL     1     114.970 125.143 136.316  0.00  0.00    +0.000 A 
ENDBRANCH  34  37
BRANCH  34  44
ATOM     43  O   UNL     1     112.048 125.643 138.391  0.00  0.00    +0.000 OA
ATOM     44  C   UNL     1     112.653 126.011 137.967  0.00  0.00    +0.000 C 
BRANCH  44  45
ATOM     45  C   UNL     1     113.156 126.543 138.345  0.00  0.00    +0.000 C 
BRANCH  45  47
ATOM     46  O   UNL     1     114.361 127.013 140.893  0.00  0.00    +0.000 OA
ATOM     47  C   UNL     1     113.084 126.676 139.156  0.00  0.00    +0.000 A 
ATOM     48  C   UNL     1     113.758 126.778 139.619  0.00  0.00    +0.000 A 
ATOM     49  C   UNL     1     112.336 126.708 139.503  0.00  0.00    +0.000 A 
ATOM     50  C   UNL     1     113.686 126.911 140.430  0.00  0.00    +0.000 A 
ATOM     51  C   UNL     1     112.264 126.841 140.315  0.00  0.00    +0.000 A 
ATOM     52  C   UNL     1     112.939 126.943 140.778  0.00  0.00    +0.000 A 
ENDBRANCH  45  47
ENDBRANCH  44  45
ENDBRANCH  34  44
ENDBRANCH   8  34
TORSDOF 9
ENDMDL
MODEL 3
REMARK VINA RESULT:     -10.9      1.322      3.150
REMARK  Name = 131838780
REMARK  9 active torsions:
REMARK  status: ('A' for Active; 'I' for Inactive)
REMARK    1  A    between atoms: O_3  and  C_28
REMARK    2  A    between atoms: O_3  and  C_37
REMARK    3  A    between atoms: C_17  and  C_30
REMARK    4  A    between atoms: C_18  and  C_21
REMARK    5  A    between atoms: C_18  and  C_26
REMARK    6  A    between atoms: C_18  and  C_31
REMARK    7  A    between atoms: C_26  and  C_34
REMARK    8  A    between atoms: C_29  and  C_42
REMARK    9  A    between atoms: C_34  and  C_40
REMARK                            x       y       z     vdW  Elec       q    Type
REMARK                         _______ _______ _______ _____ _____    ______ ____
ROOT
ATOM      1  O   UNL     1     112.322 127.768 138.028  0.00  0.00    +0.000 OA
ATOM      2  O   UNL     1     112.171 129.474 139.472  0.00  0.00    +0.000 OA
ATOM      3  O   UNL     1     111.645 124.988 138.363  0.00  0.00    +0.000 OA
ATOM      4  O   UNL     1     111.262 126.798 140.540  0.00  0.00    +0.000 OA
ATOM      5  C   UNL     1     112.374 128.564 138.348  0.00  0.00    +0.000 C 
ATOM      6  C   UNL     1     112.126 128.713 139.156  0.00  0.00    +0.000 C 
ATOM      7  C   UNL     1     111.829 128.064 139.636  0.00  0.00    +0.000 C 
ATOM      8  C   UNL     1     111.977 126.369 138.210  0.00  0.00    +0.000 A 
ATOM      9  C   UNL     1     112.024 127.132 138.522  0.00  0.00    +0.000 A 
ATOM     10  C   UNL     1     111.786 127.275 139.299  0.00  0.00    +0.000 A 
ATOM     11  C   UNL     1     111.692 125.750 138.675  0.00  0.00    +0.000 A 
ATOM     12  C   UNL     1     111.500 126.655 139.763  0.00  0.00    +0.000 A 
ATOM     13  C   UNL     1     111.454 125.894 139.452  0.00  0.00    +0.000 A 
ENDROOT
BRANCH   5  15
ATOM     14  O   UNL     1     113.516 131.033 136.480  0.00  0.00    +0.000 OA
ATOM     15  C   UNL     1     112.659 129.182 137.880  0.00  0.00    +0.000 A 
ATOM     16  C   UNL     1     112.166 129.541 137.325  0.00  0.00    +0.000 A 
ATOM     17  C   UNL     1     112.452 130.158 136.859  0.00  0.00    +0.000 A 
ATOM     18  C   UNL     1     113.438 129.439 137.969  0.00  0.00    +0.000 A 
ATOM     19  C   UNL     1     113.231 130.417 136.947  0.00  0.00    +0.000 A 
ATOM     20  C   UNL     1     113.724 130.057 137.502  0.00  0.00    +0.000 A 
BRANCH  17  21
ATOM     21  O   UNL     1     111.959 130.518 136.304  0.00  0.00    +0.000 OA
BRANCH  21  29
ATOM     22  O   UNL     1     111.209 131.416 137.125  0.00  0.00    +0.000 OA
ATOM     23  O   UNL     1     109.112 130.626 136.074  0.00  0.00    +0.000 OA
ATOM     24  O   UNL     1     110.561 129.992 135.603  0.00  0.00    +0.000 OA
ATOM     25  O   UNL     1     109.062 131.787 137.245  0.00  0.00    +0.000 OA
ATOM     26  C   UNL     1     109.811 130.889 136.424  0.00  0.00    +0.000 C 
ATOM     27  C   UNL     1     110.535 130.572 136.188  0.00  0.00    +0.000 C 
ATOM     28  C   UNL     1     109.786 131.469 137.009  0.00  0.00    +0.000 C 
ATOM     29  C   UNL     1     111.234 130.835 136.539  0.00  0.00    +0.000 C 
ATOM     30  C   UNL     1     110.485 131.733 137.360  0.00  0.00    +0.000 C 
BRANCH  30  33
ATOM     31  O   UNL     1     110.405 132.095 138.740  0.00  0.00    +0.000 OA
ATOM     32  O   UNL     1     110.491 133.111 137.738  0.00  0.00    +0.000 OA
ATOM     33  C   UNL     1     110.460 132.313 137.945  0.00  0.00    +0.000 C 
ENDBRANCH  30  33
ENDBRANCH  21  29
ENDBRANCH  17  21
ENDBRANCH   5  15
BRANCH   8  34
ATOM     34  C   UNL     1     112.215 126.226 137.433  0.00  0.00    +0.000 C 
BRANCH  34  37
ATOM     35  O   UNL     1     113.059 126.828 136.149  0.00  0.00    +0.000 OA
ATOM     36  O   UNL     1     115.272 125.147 136.816  0.00  0.00    +0.000 OA
ATOM     37  C   UNL     1     112.979 125.956 137.279  0.00  0.00    +0.000 A 
ATOM     38  C   UNL     1     113.401 126.257 136.637  0.00  0.00    +0.000 A 
ATOM     39  C   UNL     1     113.321 125.386 137.766  0.00  0.00    +0.000 A 
ATOM     40  C   UNL     1     114.165 125.988 136.482  0.00  0.00    +0.000 A 
ATOM     41  C   UNL     1     114.086 125.116 137.612  0.00  0.00    +0.000 A 
ATOM     42  C   UNL     1     114.508 125.417 136.970  0.00  0.00    +0.000 A 
ENDBRANCH  34  37
BRANCH  34  44
ATOM     43  O   UNL     1     111.819 126.972 136.281  0.00  0.00    +0.000 OA
ATOM     44  C   UNL     1     111.689 126.353 136.810  0.00  0.00    +0.000 C 
BRANCH  44  45
ATOM     45  C   UNL     1     111.034 125.861 136.717  0.00  0.00    +0.000 C 
BRANCH  45  47
ATOM     46  O   UNL     1     108.703 127.148 135.680  0.00  0.00    +0.000 OA
ATOM     47  C   UNL     1     110.506 125.991 136.096  0.00  0.00    +0.000 A 
ATOM     48  C   UNL     1     109.868 126.505 136.198  0.00  0.00    +0.000 A 
ATOM     49  C   UNL     1     110.615 125.606 135.375  0.00  0.00    +0.000 A 
ATOM     50  C   UNL     1     109.340 126.634 135.577  0.00  0.00    +0.000 A 
ATOM     51  C   UNL     1     110.085 125.736 134.754  0.00  0.00    +0.000 A 
ATOM     52  C   UNL     1     109.448 126.250 134.856  0.00  0.00    +0.000 A 
ENDBRANCH  45  47
ENDBRANCH  44  45
ENDBRANCH  34  44
ENDBRANCH   8  34
TORSDOF 9
ENDMDL
MODEL 4
REMARK VINA RESULT:     -10.8      1.810      3.114
REMARK  Name = 131838780
REMARK  9 active torsions:
REMARK  status: ('A' for Active; 'I' for Inactive)
REMARK    1  A    between atoms: O_3  and  C_28
REMARK    2  A    between atoms: O_3  and  C_37
REMARK    3  A    between atoms: C_17  and  C_30
REMARK    4  A    between atoms: C_18  and  C_21
REMARK    5  A    between atoms: C_18  and  C_26
REMARK    6  A    between atoms: C_18  and  C_31
REMARK    7  A    between atoms: C_26  and  C_34
REMARK    8  A    between atoms: C_29  and  C_42
REMARK    9  A    between atoms: C_34  and  C_40
REMARK                            x       y       z     vdW  Elec       q    Type
REMARK                         _______ _______ _______ _____ _____    ______ ____
ROOT
ATOM      1  O   UNL     1     111.682 127.711 136.363  0.00  0.00    +0.000 OA
ATOM      2  O   UNL     1     111.438 129.419 134.933  0.00  0.00    +0.000 OA
ATOM      3  O   UNL     1     114.072 126.423 137.325  0.00  0.00    +0.000 OA
ATOM      4  O   UNL     1     114.293 128.594 135.480  0.00  0.00    +0.000 OA
ATOM      5  C   UNL     1     111.305 128.311 135.876  0.00  0.00    +0.000 C 
ATOM      6  C   UNL     1     111.790 128.840 135.404  0.00  0.00    +0.000 C 
ATOM      7  C   UNL     1     112.646 128.762 135.424  0.00  0.00    +0.000 C 
ATOM      8  C   UNL     1     112.894 127.071 136.840  0.00  0.00    +0.000 A 
ATOM      9  C   UNL     1     112.538 127.648 136.371  0.00  0.00    +0.000 A 
ATOM     10  C   UNL     1     113.004 128.156 135.917  0.00  0.00    +0.000 A 
ATOM     11  C   UNL     1     113.716 127.001 136.855  0.00  0.00    +0.000 A 
ATOM     12  C   UNL     1     113.827 128.086 135.933  0.00  0.00    +0.000 A 
ATOM     13  C   UNL     1     114.182 127.509 136.402  0.00  0.00    +0.000 A 
ENDROOT
BRANCH   5  15
ATOM     14  O   UNL     1     108.017 128.582 135.820  0.00  0.00    +0.000 OA
ATOM     15  C   UNL     1     110.483 128.379 135.862  0.00  0.00    +0.000 A 
ATOM     16  C   UNL     1     110.088 128.742 136.489  0.00  0.00    +0.000 A 
ATOM     17  C   UNL     1     109.266 128.809 136.475  0.00  0.00    +0.000 A 
ATOM     18  C   UNL     1     110.056 128.083 135.221  0.00  0.00    +0.000 A 
ATOM     19  C   UNL     1     108.838 128.514 135.834  0.00  0.00    +0.000 A 
ATOM     20  C   UNL     1     109.233 128.151 135.207  0.00  0.00    +0.000 A 
BRANCH  17  21
ATOM     21  O   UNL     1     108.872 129.172 137.102  0.00  0.00    +0.000 OA
BRANCH  21  29
ATOM     22  O   UNL     1     109.080 130.543 136.756  0.00  0.00    +0.000 OA
ATOM     23  O   UNL     1     109.629 131.055 139.114  0.00  0.00    +0.000 OA
ATOM     24  O   UNL     1     109.238 129.513 138.674  0.00  0.00    +0.000 OA
ATOM     25  O   UNL     1     109.654 132.254 137.982  0.00  0.00    +0.000 OA
ATOM     26  C   UNL     1     109.446 130.884 138.328  0.00  0.00    +0.000 C 
ATOM     27  C   UNL     1     109.250 130.113 138.109  0.00  0.00    +0.000 C 
ATOM     28  C   UNL     1     109.458 131.484 137.763  0.00  0.00    +0.000 C 
ATOM     29  C   UNL     1     109.067 129.943 137.322  0.00  0.00    +0.000 C 
ATOM     30  C   UNL     1     109.275 131.313 136.977  0.00  0.00    +0.000 C 
BRANCH  30  33
ATOM     31  O   UNL     1     110.007 132.167 136.094  0.00  0.00    +0.000 OA
ATOM     32  O   UNL     1     108.582 132.259 136.159  0.00  0.00    +0.000 OA
ATOM     33  C   UNL     1     109.287 131.913 136.410  0.00  0.00    +0.000 C 
ENDBRANCH  30  33
ENDBRANCH  21  29
ENDBRANCH  17  21
ENDBRANCH   5  15
BRANCH   8  34
ATOM     34  C   UNL     1     112.428 126.563 137.293  0.00  0.00    +0.000 C 
BRANCH  34  37
ATOM     35  O   UNL     1     110.905 125.976 137.532  0.00  0.00    +0.000 OA
ATOM     36  O   UNL     1     111.602 123.591 136.120  0.00  0.00    +0.000 OA
ATOM     37  C   UNL     1     112.222 125.820 137.000  0.00  0.00    +0.000 A 
ATOM     38  C   UNL     1     111.460 125.527 137.119  0.00  0.00    +0.000 A 
ATOM     39  C   UNL     1     112.777 125.371 136.588  0.00  0.00    +0.000 A 
ATOM     40  C   UNL     1     111.253 124.784 136.826  0.00  0.00    +0.000 A 
ATOM     41  C   UNL     1     112.570 124.628 136.294  0.00  0.00    +0.000 A 
ATOM     42  C   UNL     1     111.808 124.334 136.413  0.00  0.00    +0.000 A 
ENDBRANCH  34  37
BRANCH  34  44
ATOM     43  O   UNL     1     111.369 126.956 138.168  0.00  0.00    +0.000 OA
ATOM     44  C   UNL     1     112.169 126.798 138.040  0.00  0.00    +0.000 C 
BRANCH  44  45
ATOM     45  C   UNL     1     112.708 126.875 138.659  0.00  0.00    +0.000 C 
BRANCH  45  47
ATOM     46  O   UNL     1     111.937 126.181 141.322  0.00  0.00    +0.000 OA
ATOM     47  C   UNL     1     112.447 127.099 139.409  0.00  0.00    +0.000 A 
ATOM     48  C   UNL     1     112.322 126.528 139.991  0.00  0.00    +0.000 A 
ATOM     49  C   UNL     1     112.311 127.896 139.577  0.00  0.00    +0.000 A 
ATOM     50  C   UNL     1     112.061 126.753 140.740  0.00  0.00    +0.000 A 
ATOM     51  C   UNL     1     112.049 128.120 140.327  0.00  0.00    +0.000 A 
ATOM     52  C   UNL     1     111.925 127.548 140.909  0.00  0.00    +0.000 A 
ENDBRANCH  45  47
ENDBRANCH  44  45
ENDBRANCH  34  44
ENDBRANCH   8  34
TORSDOF 9
ENDMDL
MODEL 5
REMARK VINA RESULT:     -10.8      1.429      4.372
REMARK  Name = 131838780
REMARK  9 active torsions:
REMARK  status: ('A' for Active; 'I' for Inactive)
REMARK    1  A    between atoms: O_3  and  C_28
REMARK    2  A    between atoms: O_3  and  C_37
REMARK    3  A    between atoms: C_17  and  C_30
REMARK    4  A    between atoms: C_18  and  C_21
REMARK    5  A    between atoms: C_18  and  C_26
REMARK    6  A    between atoms: C_18  and  C_31
REMARK    7  A    between atoms: C_26  and  C_34
REMARK    8  A    between atoms: C_29  and  C_42
REMARK    9  A    between atoms: C_34  and  C_40
REMARK                            x       y       z     vdW  Elec       q    Type
REMARK                         _______ _______ _______ _____ _____    ______ ____
ROOT
ATOM      1  O   UNL     1     113.089 129.406 137.366  0.00  0.00    +0.000 OA
ATOM      2  O   UNL     1     113.821 131.223 138.452  0.00  0.00    +0.000 OA
ATOM      3  O   UNL     1     113.965 128.254 134.874  0.00  0.00    +0.000 OA
ATOM      4  O   UNL     1     115.238 130.617 135.853  0.00  0.00    +0.000 OA
ATOM      5  C   UNL     1     113.158 130.015 137.967  0.00  0.00    +0.000 C 
ATOM      6  C   UNL     1     113.747 130.633 137.879  0.00  0.00    +0.000 C 
ATOM      7  C   UNL     1     114.261 130.635 137.189  0.00  0.00    +0.000 C 
ATOM      8  C   UNL     1     113.540 128.835 136.108  0.00  0.00    +0.000 A 
ATOM      9  C   UNL     1     113.611 129.423 136.683  0.00  0.00    +0.000 A 
ATOM     10  C   UNL     1     114.177 130.017 136.598  0.00  0.00    +0.000 A 
ATOM     11  C   UNL     1     114.036 128.842 135.449  0.00  0.00    +0.000 A 
ATOM     12  C   UNL     1     114.672 130.023 135.938  0.00  0.00    +0.000 A 
ATOM     13  C   UNL     1     114.602 129.436 135.364  0.00  0.00    +0.000 A 
ENDROOT
BRANCH   5  15
ATOM     14  O   UNL     1     111.170 129.980 140.601  0.00  0.00    +0.000 OA
ATOM     15  C   UNL     1     112.661 130.006 138.626  0.00  0.00    +0.000 A 
ATOM     16  C   UNL     1     112.922 129.676 139.336  0.00  0.00    +0.000 A 
ATOM     17  C   UNL     1     112.425 129.667 139.994  0.00  0.00    +0.000 A 
ATOM     18  C   UNL     1     111.903 130.328 138.575  0.00  0.00    +0.000 A 
ATOM     19  C   UNL     1     111.667 129.989 139.943  0.00  0.00    +0.000 A 
ATOM     20  C   UNL     1     111.406 130.319 139.234  0.00  0.00    +0.000 A 
BRANCH  17  21
ATOM     21  O   UNL     1     112.686 129.337 140.703  0.00  0.00    +0.000 OA
BRANCH  21  29
ATOM     22  O   UNL     1     112.255 127.976 140.641  0.00  0.00    +0.000 OA
ATOM     23  O   UNL     1     114.571 127.221 141.078  0.00  0.00    +0.000 OA
ATOM     24  O   UNL     1     114.230 128.834 140.994  0.00  0.00    +0.000 OA
ATOM     25  O   UNL     1     113.368 126.113 140.870  0.00  0.00    +0.000 OA
ATOM     26  C   UNL     1     113.799 127.473 140.932  0.00  0.00    +0.000 C 
ATOM     27  C   UNL     1     113.629 128.279 140.891  0.00  0.00    +0.000 C 
ATOM     28  C   UNL     1     113.198 126.918 140.829  0.00  0.00    +0.000 C 
ATOM     29  C   UNL     1     112.857 128.531 140.745  0.00  0.00    +0.000 C 
ATOM     30  C   UNL     1     112.426 127.170 140.683  0.00  0.00    +0.000 C 
BRANCH  30  33
ATOM     31  O   UNL     1     111.341 126.407 141.216  0.00  0.00    +0.000 OA
ATOM     32  O   UNL     1     111.703 126.270 139.839  0.00  0.00    +0.000 OA
ATOM     33  C   UNL     1     111.824 126.616 140.579  0.00  0.00    +0.000 C 
ENDBRANCH  30  33
ENDBRANCH  21  29
ENDBRANCH  17  21
ENDBRANCH   5  15
BRANCH   8  34
ATOM     34  C   UNL     1     112.974 128.241 136.193  0.00  0.00    +0.000 C 
BRANCH  34  37
ATOM     35  O   UNL     1     111.639 127.699 136.996  0.00  0.00    +0.000 OA
ATOM     36  O   UNL     1     109.980 128.610 134.854  0.00  0.00    +0.000 OA
ATOM     37  C   UNL     1     112.226 128.334 135.858  0.00  0.00    +0.000 A 
ATOM     38  C   UNL     1     111.559 128.062 136.260  0.00  0.00    +0.000 A 
ATOM     39  C   UNL     1     112.145 128.697 135.123  0.00  0.00    +0.000 A 
ATOM     40  C   UNL     1     110.810 128.154 135.926  0.00  0.00    +0.000 A 
ATOM     41  C   UNL     1     111.397 128.789 134.788  0.00  0.00    +0.000 A 
ATOM     42  C   UNL     1     110.729 128.518 135.189  0.00  0.00    +0.000 A 
ENDBRANCH  34  37
BRANCH  34  44
ATOM     43  O   UNL     1     112.834 127.432 137.363  0.00  0.00    +0.000 OA
ATOM     44  C   UNL     1     113.156 127.555 136.613  0.00  0.00    +0.000 C 
BRANCH  44  45
ATOM     45  C   UNL     1     113.660 126.991 136.284  0.00  0.00    +0.000 C 
BRANCH  45  47
ATOM     46  O   UNL     1     113.206 124.183 136.557  0.00  0.00    +0.000 OA
ATOM     47  C   UNL     1     113.798 126.280 136.679  0.00  0.00    +0.000 A 
ATOM     48  C   UNL     1     113.433 125.587 136.421  0.00  0.00    +0.000 A 
ATOM     49  C   UNL     1     114.302 126.262 137.332  0.00  0.00    +0.000 A 
ATOM     50  C   UNL     1     113.572 124.876 136.816  0.00  0.00    +0.000 A 
ATOM     51  C   UNL     1     114.440 125.551 137.727  0.00  0.00    +0.000 A 
ATOM     52  C   UNL     1     114.075 124.857 137.469  0.00  0.00    +0.000 A 
ENDBRANCH  45  47
ENDBRANCH  44  45
ENDBRANCH  34  44
ENDBRANCH   8  34
TORSDOF 9
ENDMDL
MODEL 6
REMARK VINA RESULT:     -10.8      1.657      4.163
REMARK  Name = 131838780
REMARK  9 active torsions:
REMARK  status: ('A' for Active; 'I' for Inactive)
REMARK    1  A    between atoms: O_3  and  C_28
REMARK    2  A    between atoms: O_3  and  C_37
REMARK    3  A    between atoms: C_17  and  C_30
REMARK    4  A    between atoms: C_18  and  C_21
REMARK    5  A    between atoms: C_18  and  C_26
REMARK    6  A    between atoms: C_18  and  C_31
REMARK    7  A    between atoms: C_26  and  C_34
REMARK    8  A    between atoms: C_29  and  C_42
REMARK    9  A    between atoms: C_34  and  C_40
REMARK                            x       y       z     vdW  Elec       q    Type
REMARK                         _______ _______ _______ _____ _____    ______ ____
ROOT
ATOM      1  O   UNL     1     110.885 128.363 137.375  0.00  0.00    +0.000 OA
ATOM      2  O   UNL     1     109.184 129.318 138.475  0.00  0.00    +0.000 OA
ATOM      3  O   UNL     1     111.036 127.405 134.662  0.00  0.00    +0.000 OA
ATOM      4  O   UNL     1     108.601 128.562 135.608  0.00  0.00    +0.000 OA
ATOM      5  C   UNL     1     110.436 128.730 138.009  0.00  0.00    +0.000 C 
ATOM      6  C   UNL     1     109.622 128.965 137.872  0.00  0.00    +0.000 C 
ATOM      7  C   UNL     1     109.266 128.831 137.101  0.00  0.00    +0.000 C 
ATOM      8  C   UNL     1     110.948 127.884 136.005  0.00  0.00    +0.000 A 
ATOM      9  C   UNL     1     110.512 128.237 136.611  0.00  0.00    +0.000 A 
ATOM     10  C   UNL     1     109.730 128.463 136.479  0.00  0.00    +0.000 A 
ATOM     11  C   UNL     1     110.601 127.758 135.268  0.00  0.00    +0.000 A 
ATOM     12  C   UNL     1     109.384 128.336 135.741  0.00  0.00    +0.000 A 
ATOM     13  C   UNL     1     109.818 127.984 135.136  0.00  0.00    +0.000 A 
ENDROOT
BRANCH   5  15
ATOM     14  O   UNL     1     111.834 129.232 140.956  0.00  0.00    +0.000 OA
ATOM     15  C   UNL     1     110.786 128.855 138.747  0.00  0.00    +0.000 A 
ATOM     16  C   UNL     1     110.859 128.230 139.281  0.00  0.00    +0.000 A 
ATOM     17  C   UNL     1     111.208 128.356 140.017  0.00  0.00    +0.000 A 
ATOM     18  C   UNL     1     111.063 129.605 138.949  0.00  0.00    +0.000 A 
ATOM     19  C   UNL     1     111.485 129.106 140.220  0.00  0.00    +0.000 A 
ATOM     20  C   UNL     1     111.412 129.731 139.686  0.00  0.00    +0.000 A 
BRANCH  17  21
ATOM     21  O   UNL     1     111.280 127.731 140.551  0.00  0.00    +0.000 OA
BRANCH  21  29
ATOM     22  O   UNL     1     109.973 127.737 141.127  0.00  0.00    +0.000 OA
ATOM     23  O   UNL     1     109.866 125.274 140.908  0.00  0.00    +0.000 OA
ATOM     24  O   UNL     1     111.209 126.089 140.404  0.00  0.00    +0.000 OA
ATOM     25  O   UNL     1     108.595 126.100 141.557  0.00  0.00    +0.000 OA
ATOM     26  C   UNL     1     109.901 126.095 140.981  0.00  0.00    +0.000 C 
ATOM     27  C   UNL     1     110.573 126.502 140.729  0.00  0.00    +0.000 C 
ATOM     28  C   UNL     1     109.266 126.507 141.306  0.00  0.00    +0.000 C 
ATOM     29  C   UNL     1     110.609 127.323 140.802  0.00  0.00    +0.000 C 
ATOM     30  C   UNL     1     109.302 127.328 141.379  0.00  0.00    +0.000 C 
BRANCH  30  33
ATOM     31  O   UNL     1     108.662 127.925 142.509  0.00  0.00    +0.000 OA
ATOM     32  O   UNL     1     108.035 127.973 141.225  0.00  0.00    +0.000 OA
ATOM     33  C   UNL     1     108.666 127.742 141.704  0.00  0.00    +0.000 C 
ENDBRANCH  30  33
ENDBRANCH  21  29
ENDBRANCH  17  21
ENDBRANCH   5  15
BRANCH   8  34
ATOM     34  C   UNL     1     111.730 127.658 136.137  0.00  0.00    +0.000 C 
BRANCH  34  37
ATOM     35  O   UNL     1     113.063 127.772 137.103  0.00  0.00    +0.000 OA
ATOM     36  O   UNL     1     114.198 129.687 135.310  0.00  0.00    +0.000 OA
ATOM     37  C   UNL     1     112.347 128.165 135.930  0.00  0.00    +0.000 A 
ATOM     38  C   UNL     1     113.013 128.222 136.413  0.00  0.00    +0.000 A 
ATOM     39  C   UNL     1     112.297 128.615 135.242  0.00  0.00    +0.000 A 
ATOM     40  C   UNL     1     113.630 128.729 136.207  0.00  0.00    +0.000 A 
ATOM     41  C   UNL     1     112.914 129.122 135.035  0.00  0.00    +0.000 A 
ATOM     42  C   UNL     1     113.581 129.179 135.517  0.00  0.00    +0.000 A 
ENDBRANCH  34  37
BRANCH  34  44
ATOM     43  O   UNL     1     112.207 126.883 137.239  0.00  0.00    +0.000 OA
ATOM     44  C   UNL     1     111.896 126.924 136.477  0.00  0.00    +0.000 C 
BRANCH  44  45
ATOM     45  C   UNL     1     111.750 126.231 136.054  0.00  0.00    +0.000 C 
BRANCH  45  47
ATOM     46  O   UNL     1     113.470 123.975 136.394  0.00  0.00    +0.000 OA
ATOM     47  C   UNL     1     111.906 125.497 136.397  0.00  0.00    +0.000 A 
ATOM     48  C   UNL     1     112.610 125.103 136.224  0.00  0.00    +0.000 A 
ATOM     49  C   UNL     1     111.358 125.158 136.912  0.00  0.00    +0.000 A 
ATOM     50  C   UNL     1     112.766 124.369 136.567  0.00  0.00    +0.000 A 
ATOM     51  C   UNL     1     111.515 124.423 137.255  0.00  0.00    +0.000 A 
ATOM     52  C   UNL     1     112.219 124.029 137.082  0.00  0.00    +0.000 A 
ENDBRANCH  45  47
ENDBRANCH  44  45
ENDBRANCH  34  44
ENDBRANCH   8  34
TORSDOF 9
ENDMDL
MODEL 7
REMARK VINA RESULT:     -10.8      1.661      3.827
REMARK  Name = 131838780
REMARK  9 active torsions:
REMARK  status: ('A' for Active; 'I' for Inactive)
REMARK    1  A    between atoms: O_3  and  C_28
REMARK    2  A    between atoms: O_3  and  C_37
REMARK    3  A    between atoms: C_17  and  C_30
REMARK    4  A    between atoms: C_18  and  C_21
REMARK    5  A    between atoms: C_18  and  C_26
REMARK    6  A    between atoms: C_18  and  C_31
REMARK    7  A    between atoms: C_26  and  C_34
REMARK    8  A    between atoms: C_29  and  C_42
REMARK    9  A    between atoms: C_34  and  C_40
REMARK                            x       y       z     vdW  Elec       q    Type
REMARK                         _______ _______ _______ _____ _____    ______ ____
ROOT
ATOM      1  O   UNL     1     111.479 127.847 138.440  0.00  0.00    +0.000 OA
ATOM      2  O   UNL     1     109.369 128.220 137.790  0.00  0.00    +0.000 OA
ATOM      3  O   UNL     1     112.494 126.364 140.692  0.00  0.00    +0.000 OA
ATOM      4  O   UNL     1     109.671 126.550 140.290  0.00  0.00    +0.000 OA
ATOM      5  C   UNL     1     110.814 128.136 137.979  0.00  0.00    +0.000 C 
ATOM      6  C   UNL     1     110.014 127.946 138.226  0.00  0.00    +0.000 C 
ATOM      7  C   UNL     1     109.888 127.470 138.930  0.00  0.00    +0.000 C 
ATOM      8  C   UNL     1     111.978 127.096 139.579  0.00  0.00    +0.000 A 
ATOM      9  C   UNL     1     111.335 127.371 139.141  0.00  0.00    +0.000 A 
ATOM     10  C   UNL     1     110.566 127.189 139.377  0.00  0.00    +0.000 A 
ATOM     11  C   UNL     1     111.851 126.639 140.254  0.00  0.00    +0.000 A 
ATOM     12  C   UNL     1     110.440 126.732 140.053  0.00  0.00    +0.000 A 
ATOM     13  C   UNL     1     111.082 126.457 140.491  0.00  0.00    +0.000 A 
ENDROOT
BRANCH   5  15
ATOM     14  O   UNL     1     111.331 129.963 135.281  0.00  0.00    +0.000 OA
ATOM     15  C   UNL     1     110.944 128.593 137.304  0.00  0.00    +0.000 A 
ATOM     16  C   UNL     1     111.062 129.407 137.373  0.00  0.00    +0.000 A 
ATOM     17  C   UNL     1     111.191 129.863 136.699  0.00  0.00    +0.000 A 
ATOM     18  C   UNL     1     110.955 128.236 136.561  0.00  0.00    +0.000 A 
ATOM     19  C   UNL     1     111.202 129.507 135.955  0.00  0.00    +0.000 A 
ATOM     20  C   UNL     1     111.084 128.693 135.886  0.00  0.00    +0.000 A 
BRANCH  17  21
ATOM     21  O   UNL     1     111.309 130.677 136.768  0.00  0.00    +0.000 OA
BRANCH  21  29
ATOM     22  O   UNL     1     109.959 131.145 136.788  0.00  0.00    +0.000 OA
ATOM     23  O   UNL     1     110.489 132.592 138.725  0.00  0.00    +0.000 OA
ATOM     24  O   UNL     1     111.662 131.641 138.060  0.00  0.00    +0.000 OA
ATOM     25  O   UNL     1     108.963 132.578 138.098  0.00  0.00    +0.000 OA
ATOM     26  C   UNL     1     110.312 132.110 138.079  0.00  0.00    +0.000 C 
ATOM     27  C   UNL     1     110.899 131.634 137.747  0.00  0.00    +0.000 C 
ATOM     28  C   UNL     1     109.550 132.103 137.766  0.00  0.00    +0.000 C 
ATOM     29  C   UNL     1     110.723 131.152 137.101  0.00  0.00    +0.000 C 
ATOM     30  C   UNL     1     109.373 131.621 137.121  0.00  0.00    +0.000 C 
BRANCH  30  33
ATOM     31  O   UNL     1     108.029 131.136 137.148  0.00  0.00    +0.000 OA
ATOM     32  O   UNL     1     108.428 132.082 136.153  0.00  0.00    +0.000 OA
ATOM     33  C   UNL     1     108.610 131.613 136.807  0.00  0.00    +0.000 C 
ENDBRANCH  30  33
ENDBRANCH  21  29
ENDBRANCH  17  21
ENDBRANCH   5  15
BRANCH   8  34
ATOM     34  C   UNL     1     112.747 127.278 139.342  0.00  0.00    +0.000 C 
BRANCH  34  37
ATOM     35  O   UNL     1     113.959 126.889 140.391  0.00  0.00    +0.000 OA
ATOM     36  O   UNL     1     114.426 129.666 140.882  0.00  0.00    +0.000 OA
ATOM     37  C   UNL     1     113.166 127.875 139.727  0.00  0.00    +0.000 A 
ATOM     38  C   UNL     1     113.772 127.680 140.251  0.00  0.00    +0.000 A 
ATOM     39  C   UNL     1     112.980 128.666 139.587  0.00  0.00    +0.000 A 
ATOM     40  C   UNL     1     114.192 128.277 140.636  0.00  0.00    +0.000 A 
ATOM     41  C   UNL     1     113.400 129.263 139.972  0.00  0.00    +0.000 A 
ATOM     42  C   UNL     1     114.006 129.069 140.497  0.00  0.00    +0.000 A 
ENDBRANCH  34  37
BRANCH  34  44
ATOM     43  O   UNL     1     113.430 127.273 138.087  0.00  0.00    +0.000 OA
ATOM     44  C   UNL     1     113.096 126.863 138.721  0.00  0.00    +0.000 C 
BRANCH  44  45
ATOM     45  C   UNL     1     113.112 126.039 138.731  0.00  0.00    +0.000 C 
BRANCH  45  47
ATOM     46  O   UNL     1     112.786 124.476 136.362  0.00  0.00    +0.000 OA
ATOM     47  C   UNL     1     113.440 125.623 138.099  0.00  0.00    +0.000 A 
ATOM     48  C   UNL     1     112.949 125.257 137.546  0.00  0.00    +0.000 A 
ATOM     49  C   UNL     1     114.260 125.574 138.019  0.00  0.00    +0.000 A 
ATOM     50  C   UNL     1     113.278 124.842 136.914  0.00  0.00    +0.000 A 
ATOM     51  C   UNL     1     114.588 125.158 137.386  0.00  0.00    +0.000 A 
ATOM     52  C   UNL     1     114.097 124.792 136.834  0.00  0.00    +0.000 A 
ENDBRANCH  45  47
ENDBRANCH  44  45
ENDBRANCH  34  44
ENDBRANCH   8  34
TORSDOF 9
ENDMDL
MODEL 8
REMARK VINA RESULT:     -10.8      1.655      3.942
REMARK  Name = 131838780
REMARK  9 active torsions:
REMARK  status: ('A' for Active; 'I' for Inactive)
REMARK    1  A    between atoms: O_3  and  C_28
REMARK    2  A    between atoms: O_3  and  C_37
REMARK    3  A    between atoms: C_17  and  C_30
REMARK    4  A    between atoms: C_18  and  C_21
REMARK    5  A    between atoms: C_18  and  C_26
REMARK    6  A    between atoms: C_18  and  C_31
REMARK    7  A    between atoms: C_26  and  C_34
REMARK    8  A    between atoms: C_29  and  C_42
REMARK    9  A    between atoms: C_34  and  C_40
REMARK                            x       y       z     vdW  Elec       q    Type
REMARK                         _______ _______ _______ _____ _____    ______ ____
ROOT
ATOM      1  O   UNL     1     112.281 128.416 138.105  0.00  0.00    +0.000 OA
ATOM      2  O   UNL     1     112.863 130.572 137.937  0.00  0.00    +0.000 OA
ATOM      3  O   UNL     1     112.945 126.466 140.120  0.00  0.00    +0.000 OA
ATOM      4  O   UNL     1     113.949 129.131 140.360  0.00  0.00    +0.000 OA
ATOM      5  C   UNL     1     112.340 129.216 137.798  0.00  0.00    +0.000 C 
ATOM      6  C   UNL     1     112.800 129.802 138.225  0.00  0.00    +0.000 C 
ATOM      7  C   UNL     1     113.196 129.580 138.956  0.00  0.00    +0.000 C 
ATOM      8  C   UNL     1     112.623 127.443 139.128  0.00  0.00    +0.000 A 
ATOM      9  C   UNL     1     112.683 128.213 138.837  0.00  0.00    +0.000 A 
ATOM     10  C   UNL     1     113.125 128.776 139.248  0.00  0.00    +0.000 A 
ATOM     11  C   UNL     1     113.005 127.236 139.830  0.00  0.00    +0.000 A 
ATOM     12  C   UNL     1     113.507 128.568 139.950  0.00  0.00    +0.000 A 
ATOM     13  C   UNL     1     113.447 127.799 140.240  0.00  0.00    +0.000 A 
ENDROOT
BRANCH   5  15
ATOM     14  O   UNL     1     110.810 130.032 134.990  0.00  0.00    +0.000 OA
ATOM     15  C   UNL     1     111.957 129.420 137.095  0.00  0.00    +0.000 A 
ATOM     16  C   UNL     1     111.158 129.624 137.105  0.00  0.00    +0.000 A 
ATOM     17  C   UNL     1     110.776 129.828 136.404  0.00  0.00    +0.000 A 
ATOM     18  C   UNL     1     112.375 129.420 136.384  0.00  0.00    +0.000 A 
ATOM     19  C   UNL     1     111.192 129.828 135.692  0.00  0.00    +0.000 A 
ATOM     20  C   UNL     1     111.992 129.625 135.682  0.00  0.00    +0.000 A 
BRANCH  17  21
ATOM     21  O   UNL     1     109.977 130.031 136.414  0.00  0.00    +0.000 OA
BRANCH  21  29
ATOM     22  O   UNL     1     110.081 131.410 136.774  0.00  0.00    +0.000 OA
ATOM     23  O   UNL     1     108.229 131.128 138.392  0.00  0.00    +0.000 OA
ATOM     24  O   UNL     1     108.742 129.843 137.493  0.00  0.00    +0.000 OA
ATOM     25  O   UNL     1     108.950 132.600 138.212  0.00  0.00    +0.000 OA
ATOM     26  C   UNL     1     108.846 131.222 137.853  0.00  0.00    +0.000 C 
ATOM     27  C   UNL     1     109.102 130.579 137.403  0.00  0.00    +0.000 C 
ATOM     28  C   UNL     1     109.206 131.958 137.763  0.00  0.00    +0.000 C 
ATOM     29  C   UNL     1     109.720 130.673 136.864  0.00  0.00    +0.000 C 
ATOM     30  C   UNL     1     109.823 132.052 137.224  0.00  0.00    +0.000 C 
BRANCH  30  33
ATOM     31  O   UNL     1     110.718 133.058 137.702  0.00  0.00    +0.000 OA
ATOM     32  O   UNL     1     110.012 133.255 136.475  0.00  0.00    +0.000 OA
ATOM     33  C   UNL     1     110.184 132.789 137.133  0.00  0.00    +0.000 C 
ENDBRANCH  30  33
ENDBRANCH  21  29
ENDBRANCH  17  21
ENDBRANCH   5  15
BRANCH   8  34
ATOM     34  C   UNL     1     112.181 126.880 138.717  0.00  0.00    +0.000 C 
BRANCH  34  37
ATOM     35  O   UNL     1     111.065 126.597 137.536  0.00  0.00    +0.000 OA
ATOM     36  O   UNL     1     109.025 126.350 139.522  0.00  0.00    +0.000 OA
ATOM     37  C   UNL     1     111.392 126.748 138.919  0.00  0.00    +0.000 A 
ATOM     38  C   UNL     1     110.835 126.606 138.328  0.00  0.00    +0.000 A 
ATOM     39  C   UNL     1     111.162 126.757 139.710  0.00  0.00    +0.000 A 
ATOM     40  C   UNL     1     110.046 126.474 138.528  0.00  0.00    +0.000 A 
ATOM     41  C   UNL     1     110.373 126.624 139.911  0.00  0.00    +0.000 A 
ATOM     42  C   UNL     1     109.814 126.483 139.321  0.00  0.00    +0.000 A 
ENDBRANCH  34  37
BRANCH  34  44
ATOM     43  O   UNL     1     112.319 126.603 137.322  0.00  0.00    +0.000 OA
ATOM     44  C   UNL     1     112.529 126.449 138.105  0.00  0.00    +0.000 C 
BRANCH  44  45
ATOM     45  C   UNL     1     113.085 125.865 138.275  0.00  0.00    +0.000 C 
BRANCH  45  47
ATOM     46  O   UNL     1     113.169 123.600 136.536  0.00  0.00    +0.000 OA
ATOM     47  C   UNL     1     113.447 125.448 137.662  0.00  0.00    +0.000 A 
ATOM     48  C   UNL     1     113.127 124.733 137.405  0.00  0.00    +0.000 A 
ATOM     49  C   UNL     1     114.129 125.747 137.306  0.00  0.00    +0.000 A 
ATOM     50  C   UNL     1     113.489 124.316 136.792  0.00  0.00    +0.000 A 
ATOM     51  C   UNL     1     114.490 125.329 136.693  0.00  0.00    +0.000 A 
ATOM     52  C   UNL     1     114.171 124.614 136.436  0.00  0.00    +0.000 A 
ENDBRANCH  45  47
ENDBRANCH  44  45
ENDBRANCH  34  44
ENDBRANCH   8  34
TORSDOF 9
ENDMDL
MODEL 9
REMARK VINA RESULT:     -10.8      1.630      4.388
REMARK  Name = 131838780
REMARK  9 active torsions:
REMARK  status: ('A' for Active; 'I' for Inactive)
REMARK    1  A    between atoms: O_3  and  C_28
REMARK    2  A    between atoms: O_3  and  C_37
REMARK    3  A    between atoms: C_17  and  C_30
REMARK    4  A    between atoms: C_18  and  C_21
REMARK    5  A    between atoms: C_18  and  C_26
REMARK    6  A    between atoms: C_18  and  C_31
REMARK    7  A    between atoms: C_26  and  C_34
REMARK    8  A    between atoms: C_29  and  C_42
REMARK    9  A    between atoms: C_34  and  C_40
REMARK                            x       y       z     vdW  Elec       q    Type
REMARK                         _______ _______ _______ _____ _____    ______ ____
ROOT
ATOM      1  O   UNL     1     111.329 129.243 136.262  0.00  0.00    +0.000 OA
ATOM      2  O   UNL     1     109.273 129.486 135.407  0.00  0.00    +0.000 OA
ATOM      3  O   UNL     1     113.060 131.176 137.514  0.00  0.00    +0.000 OA
ATOM      4  O   UNL     1     110.489 131.994 136.574  0.00  0.00    +0.000 OA
ATOM      5  C   UNL     1     110.583 129.050 135.882  0.00  0.00    +0.000 C 
ATOM      6  C   UNL     1     109.992 129.662 135.771  0.00  0.00    +0.000 C 
ATOM      7  C   UNL     1     110.154 130.462 136.043  0.00  0.00    +0.000 C 
ATOM      8  C   UNL     1     112.191 130.227 136.891  0.00  0.00    +0.000 A 
ATOM      9  C   UNL     1     111.473 130.047 136.527  0.00  0.00    +0.000 A 
ATOM     10  C   UNL     1     110.906 130.636 136.421  0.00  0.00    +0.000 A 
ATOM     11  C   UNL     1     112.342 130.996 137.149  0.00  0.00    +0.000 A 
ATOM     12  C   UNL     1     111.056 131.405 136.679  0.00  0.00    +0.000 A 
ATOM     13  C   UNL     1     111.774 131.585 137.043  0.00  0.00    +0.000 A 
ENDROOT
BRANCH   5  15
ATOM     14  O   UNL     1     109.993 125.971 134.851  0.00  0.00    +0.000 OA
ATOM     15  C   UNL     1     110.435 128.279 135.624  0.00  0.00    +0.000 A 
ATOM     16  C   UNL     1     110.049 127.745 136.120  0.00  0.00    +0.000 A 
ATOM     17  C   UNL     1     109.902 126.976 135.863  0.00  0.00    +0.000 A 
ATOM     18  C   UNL     1     110.674 128.044 134.870  0.00  0.00    +0.000 A 
ATOM     19  C   UNL     1     110.140 126.740 135.109  0.00  0.00    +0.000 A 
ATOM     20  C   UNL     1     110.526 127.274 134.613  0.00  0.00    +0.000 A 
BRANCH  17  21
ATOM     21  O   UNL     1     109.515 126.442 136.359  0.00  0.00    +0.000 OA
BRANCH  21  29
ATOM     22  O   UNL     1     110.591 125.767 137.015  0.00  0.00    +0.000 OA
ATOM     23  O   UNL     1     109.554 126.249 139.210  0.00  0.00    +0.000 OA
ATOM     24  O   UNL     1     108.825 126.763 137.822  0.00  0.00    +0.000 OA
ATOM     25  O   UNL     1     110.974 125.414 139.134  0.00  0.00    +0.000 OA
ATOM     26  C   UNL     1     109.900 126.088 138.478  0.00  0.00    +0.000 C 
ATOM     27  C   UNL     1     109.534 126.346 137.784  0.00  0.00    +0.000 C 
ATOM     28  C   UNL     1     110.610 125.671 138.440  0.00  0.00    +0.000 C 
ATOM     29  C   UNL     1     109.880 126.185 137.053  0.00  0.00    +0.000 C 
ATOM     30  C   UNL     1     110.955 125.510 137.709  0.00  0.00    +0.000 C 
BRANCH  30  33
ATOM     31  O   UNL     1     112.375 125.468 137.860  0.00  0.00    +0.000 OA
ATOM     32  O   UNL     1     111.666 124.300 137.441  0.00  0.00    +0.000 OA
ATOM     33  C   UNL     1     111.665 125.092 137.670  0.00  0.00    +0.000 C 
ENDBRANCH  30  33
ENDBRANCH  21  29
ENDBRANCH  17  21
ENDBRANCH   5  15
BRANCH   8  34
ATOM     34  C   UNL     1     112.759 129.638 136.997  0.00  0.00    +0.000 C 
BRANCH  34  37
ATOM     35  O   UNL     1     113.245 128.113 136.599  0.00  0.00    +0.000 OA
ATOM     36  O   UNL     1     115.122 129.197 134.735  0.00  0.00    +0.000 OA
ATOM     37  C   UNL     1     113.350 129.528 136.431  0.00  0.00    +0.000 A 
ATOM     38  C   UNL     1     113.593 128.765 136.233  0.00  0.00    +0.000 A 
ATOM     39  C   UNL     1     113.697 130.180 136.066  0.00  0.00    +0.000 A 
ATOM     40  C   UNL     1     114.183 128.654 135.667  0.00  0.00    +0.000 A 
ATOM     41  C   UNL     1     114.288 130.069 135.500  0.00  0.00    +0.000 A 
ATOM     42  C   UNL     1     114.531 129.307 135.301  0.00  0.00    +0.000 A 
ENDBRANCH  34  37
BRANCH  34  44
ATOM     43  O   UNL     1     112.480 128.377 137.608  0.00  0.00    +0.000 OA
ATOM     44  C   UNL     1     112.737 129.159 137.668  0.00  0.00    +0.000 C 
BRANCH  44  45
ATOM     45  C   UNL     1     112.970 129.461 138.399  0.00  0.00    +0.000 C 
BRANCH  45  47
ATOM     46  O   UNL     1     114.146 127.714 140.330  0.00  0.00    +0.000 OA
ATOM     47  C   UNL     1     112.902 128.998 139.078  0.00  0.00    +0.000 A 
ATOM     48  C   UNL     1     113.558 128.587 139.365  0.00  0.00    +0.000 A 
ATOM     49  C   UNL     1     112.178 128.945 139.471  0.00  0.00    +0.000 A 
ATOM     50  C   UNL     1     113.490 128.124 140.044  0.00  0.00    +0.000 A 
ATOM     51  C   UNL     1     112.111 128.481 140.151  0.00  0.00    +0.000 A 
ATOM     52  C   UNL     1     112.767 128.071 140.437  0.00  0.00    +0.000 A 
ENDBRANCH  45  47
ENDBRANCH  44  45
ENDBRANCH  34  44
ENDBRANCH   8  34
TORSDOF 9
ENDMDL
MODEL 10
REMARK VINA RESULT:     -10.7      1.555      5.068
REMARK  Name = 131838780
REMARK  9 active torsions:
REMARK  status: ('A' for Active; 'I' for Inactive)
REMARK    1  A    between atoms: O_3  and  C_28
REMARK    2  A    between atoms: O_3  and  C_37
REMARK    3  A    between atoms: C_17  and  C_30
REMARK    4  A    between atoms: C_18  and  C_21
REMARK    5  A    between atoms: C_18  and  C_26
REMARK    6  A    between atoms: C_18  and  C_31
REMARK    7  A    between atoms: C_26  and  C_34
REMARK    8  A    between atoms: C_29  and  C_42
REMARK    9  A    between atoms: C_34  and  C_40
REMARK                            x       y       z     vdW  Elec       q    Type
REMARK                         _______ _______ _______ _____ _____    ______ ____
ROOT
ATOM      1  O   UNL     1     113.029 128.769 137.457  0.00  0.00    +0.000 OA
ATOM      2  O   UNL     1     113.474 126.959 136.215  0.00  0.00    +0.000 OA
ATOM      3  O   UNL     1     113.835 131.511 137.097  0.00  0.00    +0.000 OA
ATOM      4  O   UNL     1     114.676 129.541 135.206  0.00  0.00    +0.000 OA
ATOM      5  C   UNL     1     113.035 127.952 137.191  0.00  0.00    +0.000 C 
ATOM      6  C   UNL     1     113.463 127.741 136.478  0.00  0.00    +0.000 C 
ATOM      7  C   UNL     1     113.880 128.350 136.037  0.00  0.00    +0.000 C 
ATOM      8  C   UNL     1     113.442 130.148 137.264  0.00  0.00    +0.000 A 
ATOM      9  C   UNL     1     113.451 129.365 137.004  0.00  0.00    +0.000 A 
ATOM     10  C   UNL     1     113.863 129.162 136.318  0.00  0.00    +0.000 A 
ATOM     11  C   UNL     1     113.844 130.728 136.837  0.00  0.00    +0.000 A 
ATOM     12  C   UNL     1     114.265 129.744 135.892  0.00  0.00    +0.000 A 
ATOM     13  C   UNL     1     114.255 130.526 136.152  0.00  0.00    +0.000 A 
ENDROOT
BRANCH   5  15
ATOM     14  O   UNL     1     111.424 125.637 138.905  0.00  0.00    +0.000 OA
ATOM     15  C   UNL     1     112.631 127.373 137.620  0.00  0.00    +0.000 A 
ATOM     16  C   UNL     1     111.809 127.327 137.579  0.00  0.00    +0.000 A 
ATOM     17  C   UNL     1     111.406 126.749 138.007  0.00  0.00    +0.000 A 
ATOM     18  C   UNL     1     113.052 126.840 138.089  0.00  0.00    +0.000 A 
ATOM     19  C   UNL     1     111.826 126.215 138.477  0.00  0.00    +0.000 A 
ATOM     20  C   UNL     1     112.649 126.261 138.518  0.00  0.00    +0.000 A 
BRANCH  17  21
ATOM     21  O   UNL     1     110.584 126.703 137.966  0.00  0.00    +0.000 OA
BRANCH  21  29
ATOM     22  O   UNL     1     110.447 126.252 136.617  0.00  0.00    +0.000 OA
ATOM     23  O   UNL     1     108.580 127.840 136.275  0.00  0.00    +0.000 OA
ATOM     24  O   UNL     1     109.339 127.762 137.738  0.00  0.00    +0.000 OA
ATOM     25  O   UNL     1     109.066 126.860 135.041  0.00  0.00    +0.000 OA
ATOM     26  C   UNL     1     109.202 127.311 136.389  0.00  0.00    +0.000 C 
ATOM     27  C   UNL     1     109.581 127.272 137.121  0.00  0.00    +0.000 C 
ATOM     28  C   UNL     1     109.445 126.821 135.772  0.00  0.00    +0.000 C 
ATOM     29  C   UNL     1     110.204 126.742 137.235  0.00  0.00    +0.000 C 
ATOM     30  C   UNL     1     110.067 126.291 135.886  0.00  0.00    +0.000 C 
BRANCH  30  33
ATOM     31  O   UNL     1     110.693 126.124 134.612  0.00  0.00    +0.000 OA
ATOM     32  O   UNL     1     110.171 124.989 135.308  0.00  0.00    +0.000 OA
ATOM     33  C   UNL     1     110.310 125.801 135.269  0.00  0.00    +0.000 C 
ENDBRANCH  30  33
ENDBRANCH  21  29
ENDBRANCH  17  21
ENDBRANCH   5  15
BRANCH   8  34
ATOM     34  C   UNL     1     113.030 130.350 137.950  0.00  0.00    +0.000 C 
BRANCH  34  37
ATOM     35  O   UNL     1     112.242 129.843 139.307  0.00  0.00    +0.000 OA
ATOM     36  O   UNL     1     114.583 130.367 140.862  0.00  0.00    +0.000 OA
ATOM     37  C   UNL     1     113.419 130.354 138.678  0.00  0.00    +0.000 A 
ATOM     38  C   UNL     1     113.024 130.101 139.356  0.00  0.00    +0.000 A 
ATOM     39  C   UNL     1     114.200 130.612 138.727  0.00  0.00    +0.000 A 
ATOM     40  C   UNL     1     113.412 130.105 140.084  0.00  0.00    +0.000 A 
ATOM     41  C   UNL     1     114.588 130.616 139.455  0.00  0.00    +0.000 A 
ATOM     42  C   UNL     1     114.194 130.362 140.134  0.00  0.00    +0.000 A 
ENDBRANCH  34  37
BRANCH  34  44
ATOM     43  O   UNL     1     111.667 130.070 138.274  0.00  0.00    +0.000 OA
ATOM     44  C   UNL     1     112.231 130.548 137.908  0.00  0.00    +0.000 C 
BRANCH  44  45
ATOM     45  C   UNL     1     111.994 131.225 137.500  0.00  0.00    +0.000 C 
BRANCH  45  47
ATOM     46  O   UNL     1     109.816 132.862 138.361  0.00  0.00    +0.000 OA
ATOM     47  C   UNL     1     111.195 131.427 137.464  0.00  0.00    +0.000 A 
ATOM     48  C   UNL     1     110.904 132.043 137.930  0.00  0.00    +0.000 A 
ATOM     49  C   UNL     1     110.686 131.014 136.964  0.00  0.00    +0.000 A 
ATOM     50  C   UNL     1     110.105 132.246 137.895  0.00  0.00    +0.000 A 
ATOM     51  C   UNL     1     109.887 131.217 136.929  0.00  0.00    +0.000 A 
ATOM     52  C   UNL     1     109.596 131.833 137.394  0.00  0.00    +0.000 A 
ENDBRANCH  45  47
ENDBRANCH  44  45
ENDBRANCH  34  44
ENDBRANCH   8  34
TORSDOF 9
ENDMDL
