MODEL 1
REMARK VINA RESULT:      -8.6      0.000      0.000
REMARK  Name = 42607573
REMARK  8 active torsions:
REMARK  status: ('A' for Active; 'I' for Inactive)
REMARK    1  A    between atoms: O_4  and  C_16
REMARK    2  A    between atoms: O_4  and  C_18
REMARK    3  A    between atoms: O_10  and  C_30
REMARK    4  A    between atoms: O_11  and  C_31
REMARK    5  A    between atoms: C_14  and  C_17
REMARK    6  A    between atoms: C_23  and  C_24
REMARK    7  A    between atoms: C_24  and  C_25
REMARK    8  A    between atoms: C_26  and  C_27
REMARK                            x       y       z     vdW  Elec       q    Type
REMARK                         _______ _______ _______ _____ _____    ______ ____
ROOT
ATOM      1  O   UNL     1     106.161 124.286 144.529  0.00  0.00    +0.000 OA
ATOM      2  O   UNL     1     106.444 125.466 143.411  0.00  0.00    +0.000 OA
ATOM      3  C   UNL     1     105.659 125.268 145.438  0.00  0.00    +0.000 A 
ATOM      4  C   UNL     1     105.981 125.072 144.704  0.00  0.00    +0.000 A 
ATOM      5  C   UNL     1     105.479 126.054 145.613  0.00  0.00    +0.000 A 
ATOM      6  C   UNL     1     106.122 125.662 144.145  0.00  0.00    +0.000 A 
ATOM      7  C   UNL     1     105.620 126.644 145.054  0.00  0.00    +0.000 A 
ATOM      8  C   UNL     1     105.942 126.448 144.320  0.00  0.00    +0.000 A 
ENDROOT
BRANCH   8  10
ATOM      9  O   UNL     1     106.854 127.295 143.618  0.00  0.00    +0.000 OA
ATOM     10  C   UNL     1     106.083 127.038 143.761  0.00  0.00    +0.000 C 
BRANCH  10  11
ATOM     11  C   UNL     1     105.454 127.371 143.344  0.00  0.00    +0.000 C 
ATOM     12  C   UNL     1     105.550 128.095 142.960  0.00  0.00    +0.000 C 
BRANCH  12  13
ATOM     13  C   UNL     1     104.921 128.427 142.544  0.00  0.00    +0.000 A 
ATOM     14  C   UNL     1     104.483 129.042 142.877  0.00  0.00    +0.000 A 
ATOM     15  C   UNL     1     104.728 128.145 141.793  0.00  0.00    +0.000 A 
ATOM     16  C   UNL     1     103.854 129.375 142.461  0.00  0.00    +0.000 A 
ATOM     17  C   UNL     1     103.662 129.092 141.710  0.00  0.00    +0.000 A 
ATOM     18  C   UNL     1     104.098 128.477 141.375  0.00  0.00    +0.000 A 
BRANCH  16  19
ATOM     19  O   UNL     1     103.417 129.990 142.794  0.00  0.00    +0.000 OA
ATOM     20  C   UNL     1     103.619 130.285 143.537  0.00  0.00    +0.000 C 
ENDBRANCH  16  19
BRANCH  17  21
ATOM     21  O   UNL     1     103.032 129.425 141.292  0.00  0.00    +0.000 OA
ATOM     22  C   UNL     1     102.871 129.177 140.522  0.00  0.00    +0.000 C 
ENDBRANCH  17  21
ENDBRANCH  12  13
ENDBRANCH  10  11
ENDBRANCH   8  10
BRANCH   3  23
ATOM     23  O   UNL     1     105.518 124.678 145.997  0.00  0.00    +0.000 OA
BRANCH  23  32
ATOM     24  O   UNL     1     106.605 124.989 146.870  0.00  0.00    +0.000 OA
ATOM     25  O   UNL     1     106.739 124.968 149.048  0.00  0.00    +0.000 OA
ATOM     26  O   UNL     1     105.176 124.491 148.828  0.00  0.00    +0.000 OA
ATOM     27  O   UNL     1     104.565 124.346 147.302  0.00  0.00    +0.000 OA
ATOM     28  C   UNL     1     106.434 124.896 148.285  0.00  0.00    +0.000 C 
ATOM     29  C   UNL     1     105.652 124.657 148.175  0.00  0.00    +0.000 C 
ATOM     30  C   UNL     1     106.911 125.062 147.632  0.00  0.00    +0.000 C 
ATOM     31  C   UNL     1     105.347 124.584 147.412  0.00  0.00    +0.000 C 
ATOM     32  C   UNL     1     105.823 124.750 146.759  0.00  0.00    +0.000 C 
BRANCH  30  34
ATOM     33  O   UNL     1     108.279 125.048 147.220  0.00  0.00    +0.000 OA
ATOM     34  C   UNL     1     107.692 125.300 147.742  0.00  0.00    +0.000 C 
ENDBRANCH  30  34
ENDBRANCH  23  32
ENDBRANCH   3  23
TORSDOF 8
ENDMDL
MODEL 2
REMARK VINA RESULT:      -8.3      9.879     11.715
REMARK  Name = 42607573
REMARK  8 active torsions:
REMARK  status: ('A' for Active; 'I' for Inactive)
REMARK    1  A    between atoms: O_4  and  C_16
REMARK    2  A    between atoms: O_4  and  C_18
REMARK    3  A    between atoms: O_10  and  C_30
REMARK    4  A    between atoms: O_11  and  C_31
REMARK    5  A    between atoms: C_14  and  C_17
REMARK    6  A    between atoms: C_23  and  C_24
REMARK    7  A    between atoms: C_24  and  C_25
REMARK    8  A    between atoms: C_26  and  C_27
REMARK                            x       y       z     vdW  Elec       q    Type
REMARK                         _______ _______ _______ _____ _____    ______ ____
ROOT
ATOM      1  O   UNL     1     108.069 127.964 136.161  0.00  0.00    +0.000 OA
ATOM      2  O   UNL     1     108.759 126.472 136.018  0.00  0.00    +0.000 OA
ATOM      3  C   UNL     1     109.115 128.524 135.365  0.00  0.00    +0.000 A 
ATOM      4  C   UNL     1     108.765 127.871 135.727  0.00  0.00    +0.000 A 
ATOM      5  C   UNL     1     109.812 128.431 134.931  0.00  0.00    +0.000 A 
ATOM      6  C   UNL     1     109.111 127.125 135.655  0.00  0.00    +0.000 A 
ATOM      7  C   UNL     1     110.157 127.685 134.859  0.00  0.00    +0.000 A 
ATOM      8  C   UNL     1     109.806 127.032 135.222  0.00  0.00    +0.000 A 
ENDROOT
BRANCH   8  10
ATOM      9  O   UNL     1     109.846 125.740 134.612  0.00  0.00    +0.000 OA
ATOM     10  C   UNL     1     110.151 126.286 135.150  0.00  0.00    +0.000 C 
BRANCH  10  11
ATOM     11  C   UNL     1     110.801 126.086 135.617  0.00  0.00    +0.000 C 
ATOM     12  C   UNL     1     111.159 125.347 135.532  0.00  0.00    +0.000 C 
BRANCH  12  13
ATOM     13  C   UNL     1     111.808 125.147 135.999  0.00  0.00    +0.000 A 
ATOM     14  C   UNL     1     111.860 124.396 136.335  0.00  0.00    +0.000 A 
ATOM     15  C   UNL     1     112.408 125.699 136.129  0.00  0.00    +0.000 A 
ATOM     16  C   UNL     1     112.509 124.196 136.802  0.00  0.00    +0.000 A 
ATOM     17  C   UNL     1     113.109 124.748 136.932  0.00  0.00    +0.000 A 
ATOM     18  C   UNL     1     113.058 125.499 136.596  0.00  0.00    +0.000 A 
BRANCH  16  19
ATOM     19  O   UNL     1     112.561 123.444 137.139  0.00  0.00    +0.000 OA
ATOM     20  C   UNL     1     111.886 122.976 137.209  0.00  0.00    +0.000 C 
ENDBRANCH  16  19
BRANCH  17  21
ATOM     21  O   UNL     1     113.760 124.548 137.399  0.00  0.00    +0.000 OA
ATOM     22  C   UNL     1     114.428 125.032 137.405  0.00  0.00    +0.000 C 
ENDBRANCH  17  21
ENDBRANCH  12  13
ENDBRANCH  10  11
ENDBRANCH   8  10
BRANCH   3  23
ATOM     23  O   UNL     1     108.770 129.270 135.436  0.00  0.00    +0.000 OA
BRANCH  23  32
ATOM     24  O   UNL     1     109.690 129.794 136.397  0.00  0.00    +0.000 OA
ATOM     25  O   UNL     1     110.530 131.795 136.625  0.00  0.00    +0.000 OA
ATOM     26  O   UNL     1     109.572 132.010 135.300  0.00  0.00    +0.000 OA
ATOM     27  O   UNL     1     108.692 130.747 134.705  0.00  0.00    +0.000 OA
ATOM     28  C   UNL     1     110.090 131.163 136.328  0.00  0.00    +0.000 C 
ATOM     29  C   UNL     1     109.611 131.271 135.666  0.00  0.00    +0.000 C 
ATOM     30  C   UNL     1     110.130 130.425 136.694  0.00  0.00    +0.000 C 
ATOM     31  C   UNL     1     109.171 130.639 135.368  0.00  0.00    +0.000 C 
ATOM     32  C   UNL     1     109.210 129.901 135.734  0.00  0.00    +0.000 C 
BRANCH  30  34
ATOM     33  O   UNL     1     110.319 129.915 138.015  0.00  0.00    +0.000 OA
ATOM     34  C   UNL     1     110.609 130.318 137.356  0.00  0.00    +0.000 C 
ENDBRANCH  30  34
ENDBRANCH  23  32
ENDBRANCH   3  23
TORSDOF 8
ENDMDL
MODEL 3
REMARK VINA RESULT:      -8.2      1.906      3.145
REMARK  Name = 42607573
REMARK  8 active torsions:
REMARK  status: ('A' for Active; 'I' for Inactive)
REMARK    1  A    between atoms: O_4  and  C_16
REMARK    2  A    between atoms: O_4  and  C_18
REMARK    3  A    between atoms: O_10  and  C_30
REMARK    4  A    between atoms: O_11  and  C_31
REMARK    5  A    between atoms: C_14  and  C_17
REMARK    6  A    between atoms: C_23  and  C_24
REMARK    7  A    between atoms: C_24  and  C_25
REMARK    8  A    between atoms: C_26  and  C_27
REMARK                            x       y       z     vdW  Elec       q    Type
REMARK                         _______ _______ _______ _____ _____    ______ ____
ROOT
ATOM      1  O   UNL     1     106.271 124.411 147.339  0.00  0.00    +0.000 OA
ATOM      2  O   UNL     1     107.091 125.019 146.043  0.00  0.00    +0.000 OA
ATOM      3  C   UNL     1     105.143 125.223 147.007  0.00  0.00    +0.000 A 
ATOM      4  C   UNL     1     105.912 124.969 146.849  0.00  0.00    +0.000 A 
ATOM      5  C   UNL     1     104.784 125.781 146.517  0.00  0.00    +0.000 A 
ATOM      6  C   UNL     1     106.321 125.274 146.200  0.00  0.00    +0.000 A 
ATOM      7  C   UNL     1     105.193 126.085 145.868  0.00  0.00    +0.000 A 
ATOM      8  C   UNL     1     105.962 125.831 145.711  0.00  0.00    +0.000 A 
ENDROOT
BRANCH   8  10
ATOM      9  O   UNL     1     107.060 126.576 145.178  0.00  0.00    +0.000 OA
ATOM     10  C   UNL     1     106.372 126.135 145.063  0.00  0.00    +0.000 C 
BRANCH  10  11
ATOM     11  C   UNL     1     106.094 125.999 144.297  0.00  0.00    +0.000 C 
ATOM     12  C   UNL     1     106.425 126.405 143.659  0.00  0.00    +0.000 C 
BRANCH  12  13
ATOM     13  C   UNL     1     106.147 126.268 142.895  0.00  0.00    +0.000 A 
ATOM     14  C   UNL     1     105.713 126.851 142.503  0.00  0.00    +0.000 A 
ATOM     15  C   UNL     1     106.303 125.549 142.522  0.00  0.00    +0.000 A 
ATOM     16  C   UNL     1     105.435 126.714 141.739  0.00  0.00    +0.000 A 
ATOM     17  C   UNL     1     105.591 125.995 141.366  0.00  0.00    +0.000 A 
ATOM     18  C   UNL     1     106.024 125.412 141.757  0.00  0.00    +0.000 A 
BRANCH  16  19
ATOM     19  O   UNL     1     105.001 127.297 141.347  0.00  0.00    +0.000 OA
ATOM     20  C   UNL     1     104.842 128.014 141.720  0.00  0.00    +0.000 C 
ENDBRANCH  16  19
BRANCH  17  21
ATOM     21  O   UNL     1     105.312 125.858 140.601  0.00  0.00    +0.000 OA
ATOM     22  C   UNL     1     105.392 125.111 140.260  0.00  0.00    +0.000 C 
ENDBRANCH  17  21
ENDBRANCH  12  13
ENDBRANCH  10  11
ENDBRANCH   8  10
BRANCH   3  23
ATOM     23  O   UNL     1     104.733 124.918 147.655  0.00  0.00    +0.000 OA
BRANCH  23  32
ATOM     24  O   UNL     1     103.804 124.114 146.926  0.00  0.00    +0.000 OA
ATOM     25  O   UNL     1     101.686 123.717 147.265  0.00  0.00    +0.000 OA
ATOM     26  O   UNL     1     102.019 124.724 148.527  0.00  0.00    +0.000 OA
ATOM     27  O   UNL     1     103.543 125.325 148.723  0.00  0.00    +0.000 OA
ATOM     28  C   UNL     1     102.448 124.017 147.362  0.00  0.00    +0.000 C 
ATOM     29  C   UNL     1     102.614 124.521 147.994  0.00  0.00    +0.000 C 
ATOM     30  C   UNL     1     103.043 123.813 146.828  0.00  0.00    +0.000 C 
ATOM     31  C   UNL     1     103.377 124.821 148.091  0.00  0.00    +0.000 C 
ATOM     32  C   UNL     1     103.972 124.618 147.558  0.00  0.00    +0.000 C 
BRANCH  30  34
ATOM     33  O   UNL     1     103.426 122.739 145.967  0.00  0.00    +0.000 OA
ATOM     34  C   UNL     1     102.876 123.310 146.197  0.00  0.00    +0.000 C 
ENDBRANCH  30  34
ENDBRANCH  23  32
ENDBRANCH   3  23
TORSDOF 8
ENDMDL
MODEL 4
REMARK VINA RESULT:      -8.2      8.882     11.154
REMARK  Name = 42607573
REMARK  8 active torsions:
REMARK  status: ('A' for Active; 'I' for Inactive)
REMARK    1  A    between atoms: O_4  and  C_16
REMARK    2  A    between atoms: O_4  and  C_18
REMARK    3  A    between atoms: O_10  and  C_30
REMARK    4  A    between atoms: O_11  and  C_31
REMARK    5  A    between atoms: C_14  and  C_17
REMARK    6  A    between atoms: C_23  and  C_24
REMARK    7  A    between atoms: C_24  and  C_25
REMARK    8  A    between atoms: C_26  and  C_27
REMARK                            x       y       z     vdW  Elec       q    Type
REMARK                         _______ _______ _______ _____ _____    ______ ____
ROOT
ATOM      1  O   UNL     1     108.136 128.989 135.904  0.00  0.00    +0.000 OA
ATOM      2  O   UNL     1     109.159 127.981 135.092  0.00  0.00    +0.000 OA
ATOM      3  C   UNL     1     109.180 129.304 136.828  0.00  0.00    +0.000 A 
ATOM      4  C   UNL     1     108.914 128.894 136.163  0.00  0.00    +0.000 A 
ATOM      5  C   UNL     1     109.958 129.209 137.088  0.00  0.00    +0.000 A 
ATOM      6  C   UNL     1     109.426 128.390 135.757  0.00  0.00    +0.000 A 
ATOM      7  C   UNL     1     110.469 128.704 136.682  0.00  0.00    +0.000 A 
ATOM      8  C   UNL     1     110.203 128.295 136.017  0.00  0.00    +0.000 A 
ENDROOT
BRANCH   8  10
ATOM      9  O   UNL     1     110.991 127.999 134.862  0.00  0.00    +0.000 OA
ATOM     10  C   UNL     1     110.714 127.791 135.611  0.00  0.00    +0.000 C 
BRANCH  10  11
ATOM     11  C   UNL     1     110.949 127.078 135.954  0.00  0.00    +0.000 C 
ATOM     12  C   UNL     1     111.564 126.642 135.619  0.00  0.00    +0.000 C 
BRANCH  12  13
ATOM     13  C   UNL     1     111.799 125.930 135.961  0.00  0.00    +0.000 A 
ATOM     14  C   UNL     1     112.562 125.849 136.266  0.00  0.00    +0.000 A 
ATOM     15  C   UNL     1     111.271 125.297 136.000  0.00  0.00    +0.000 A 
ATOM     16  C   UNL     1     112.797 125.137 136.609  0.00  0.00    +0.000 A 
ATOM     17  C   UNL     1     112.269 124.504 136.648  0.00  0.00    +0.000 A 
ATOM     18  C   UNL     1     111.506 124.584 136.344  0.00  0.00    +0.000 A 
BRANCH  16  19
ATOM     19  O   UNL     1     113.559 125.057 136.913  0.00  0.00    +0.000 OA
ATOM     20  C   UNL     1     114.137 125.617 136.734  0.00  0.00    +0.000 C 
ENDBRANCH  16  19
BRANCH  17  21
ATOM     21  O   UNL     1     112.503 123.791 136.991  0.00  0.00    +0.000 OA
ATOM     22  C   UNL     1     111.963 123.173 137.068  0.00  0.00    +0.000 C 
ENDBRANCH  17  21
ENDBRANCH  12  13
ENDBRANCH  10  11
ENDBRANCH   8  10
BRANCH   3  23
ATOM     23  O   UNL     1     108.668 129.808 137.234  0.00  0.00    +0.000 OA
BRANCH  23  32
ATOM     24  O   UNL     1     109.199 131.086 136.878  0.00  0.00    +0.000 OA
ATOM     25  O   UNL     1     109.674 132.828 138.103  0.00  0.00    +0.000 OA
ATOM     26  O   UNL     1     109.117 131.783 139.251  0.00  0.00    +0.000 OA
ATOM     27  O   UNL     1     108.613 130.273 138.817  0.00  0.00    +0.000 OA
ATOM     28  C   UNL     1     109.423 132.073 137.885  0.00  0.00    +0.000 C 
ATOM     29  C   UNL     1     109.144 131.551 138.460  0.00  0.00    +0.000 C 
ATOM     30  C   UNL     1     109.451 131.840 137.094  0.00  0.00    +0.000 C 
ATOM     31  C   UNL     1     108.892 130.795 138.242  0.00  0.00    +0.000 C 
ATOM     32  C   UNL     1     108.920 130.563 137.451  0.00  0.00    +0.000 C 
BRANCH  30  34
ATOM     33  O   UNL     1     109.305 132.474 135.822  0.00  0.00    +0.000 OA
ATOM     34  C   UNL     1     109.729 132.363 136.521  0.00  0.00    +0.000 C 
ENDBRANCH  30  34
ENDBRANCH  23  32
ENDBRANCH   3  23
TORSDOF 8
ENDMDL
MODEL 5
REMARK VINA RESULT:      -8.1      8.231     10.067
REMARK  Name = 42607573
REMARK  8 active torsions:
REMARK  status: ('A' for Active; 'I' for Inactive)
REMARK    1  A    between atoms: O_4  and  C_16
REMARK    2  A    between atoms: O_4  and  C_18
REMARK    3  A    between atoms: O_10  and  C_30
REMARK    4  A    between atoms: O_11  and  C_31
REMARK    5  A    between atoms: C_14  and  C_17
REMARK    6  A    between atoms: C_23  and  C_24
REMARK    7  A    between atoms: C_24  and  C_25
REMARK    8  A    between atoms: C_26  and  C_27
REMARK                            x       y       z     vdW  Elec       q    Type
REMARK                         _______ _______ _______ _____ _____    ______ ____
ROOT
ATOM      1  O   UNL     1     110.566 125.595 139.808  0.00  0.00    +0.000 OA
ATOM      2  O   UNL     1     111.749 126.209 140.781  0.00  0.00    +0.000 OA
ATOM      3  C   UNL     1     111.078 126.351 138.709  0.00  0.00    +0.000 A 
ATOM      4  C   UNL     1     111.118 126.127 139.502  0.00  0.00    +0.000 A 
ATOM      5  C   UNL     1     111.631 126.883 138.402  0.00  0.00    +0.000 A 
ATOM      6  C   UNL     1     111.710 126.434 139.988  0.00  0.00    +0.000 A 
ATOM      7  C   UNL     1     112.222 127.190 138.889  0.00  0.00    +0.000 A 
ATOM      8  C   UNL     1     112.261 126.965 139.682  0.00  0.00    +0.000 A 
ENDROOT
BRANCH   8  10
ATOM      9  O   UNL     1     113.524 126.823 140.335  0.00  0.00    +0.000 OA
ATOM     10  C   UNL     1     112.852 127.272 140.168  0.00  0.00    +0.000 C 
BRANCH  10  11
ATOM     11  C   UNL     1     112.772 128.028 140.489  0.00  0.00    +0.000 C 
ATOM     12  C   UNL     1     113.415 128.391 140.857  0.00  0.00    +0.000 C 
BRANCH  12  13
ATOM     13  C   UNL     1     113.335 129.146 141.177  0.00  0.00    +0.000 A 
ATOM     14  C   UNL     1     113.865 129.743 140.968  0.00  0.00    +0.000 A 
ATOM     15  C   UNL     1     112.723 129.307 141.707  0.00  0.00    +0.000 A 
ATOM     16  C   UNL     1     113.785 130.498 141.288  0.00  0.00    +0.000 A 
ATOM     17  C   UNL     1     113.173 130.658 141.818  0.00  0.00    +0.000 A 
ATOM     18  C   UNL     1     112.642 130.063 142.028  0.00  0.00    +0.000 A 
BRANCH  16  19
ATOM     19  O   UNL     1     114.315 131.095 141.078  0.00  0.00    +0.000 OA
ATOM     20  C   UNL     1     114.965 130.921 140.601  0.00  0.00    +0.000 C 
ENDBRANCH  16  19
BRANCH  17  21
ATOM     21  O   UNL     1     113.092 131.415 142.138  0.00  0.00    +0.000 OA
ATOM     22  C   UNL     1     112.551 131.549 142.747  0.00  0.00    +0.000 C 
ENDBRANCH  17  21
ENDBRANCH  12  13
ENDBRANCH  10  11
ENDBRANCH   8  10
BRANCH   3  23
ATOM     23  O   UNL     1     110.487 126.044 138.222  0.00  0.00    +0.000 OA
BRANCH  23  32
ATOM     24  O   UNL     1     111.246 125.081 137.489  0.00  0.00    +0.000 OA
ATOM     25  O   UNL     1     111.284 124.614 135.358  0.00  0.00    +0.000 OA
ATOM     26  O   UNL     1     110.165 125.825 135.391  0.00  0.00    +0.000 OA
ATOM     27  O   UNL     1     109.766 126.540 136.824  0.00  0.00    +0.000 OA
ATOM     28  C   UNL     1     111.085 124.971 136.074  0.00  0.00    +0.000 C 
ATOM     29  C   UNL     1     110.525 125.577 136.090  0.00  0.00    +0.000 C 
ATOM     30  C   UNL     1     111.446 124.723 136.774  0.00  0.00    +0.000 C 
ATOM     31  C   UNL     1     110.326 125.934 136.807  0.00  0.00    +0.000 C 
ATOM     32  C   UNL     1     110.686 125.686 137.507  0.00  0.00    +0.000 C 
BRANCH  30  34
ATOM     33  O   UNL     1     111.930 123.471 137.264  0.00  0.00    +0.000 OA
ATOM     34  C   UNL     1     112.005 124.118 136.757  0.00  0.00    +0.000 C 
ENDBRANCH  30  34
ENDBRANCH  23  32
ENDBRANCH   3  23
TORSDOF 8
ENDMDL
MODEL 6
REMARK VINA RESULT:      -8.1      1.025      1.683
REMARK  Name = 42607573
REMARK  8 active torsions:
REMARK  status: ('A' for Active; 'I' for Inactive)
REMARK    1  A    between atoms: O_4  and  C_16
REMARK    2  A    between atoms: O_4  and  C_18
REMARK    3  A    between atoms: O_10  and  C_30
REMARK    4  A    between atoms: O_11  and  C_31
REMARK    5  A    between atoms: C_14  and  C_17
REMARK    6  A    between atoms: C_23  and  C_24
REMARK    7  A    between atoms: C_24  and  C_25
REMARK    8  A    between atoms: C_26  and  C_27
REMARK                            x       y       z     vdW  Elec       q    Type
REMARK                         _______ _______ _______ _____ _____    ______ ____
ROOT
ATOM      1  O   UNL     1     107.360 126.443 143.486  0.00  0.00    +0.000 OA
ATOM      2  O   UNL     1     106.909 127.934 142.944  0.00  0.00    +0.000 OA
ATOM      3  C   UNL     1     106.188 126.385 144.302  0.00  0.00    +0.000 A 
ATOM      4  C   UNL     1     106.660 126.787 143.759  0.00  0.00    +0.000 A 
ATOM      5  C   UNL     1     105.488 126.729 144.574  0.00  0.00    +0.000 A 
ATOM      6  C   UNL     1     106.435 127.533 143.487  0.00  0.00    +0.000 A 
ATOM      7  C   UNL     1     105.263 127.475 144.303  0.00  0.00    +0.000 A 
ATOM      8  C   UNL     1     105.737 127.876 143.759  0.00  0.00    +0.000 A 
ENDROOT
BRANCH   8  10
ATOM      9  O   UNL     1     105.898 129.296 143.764  0.00  0.00    +0.000 OA
ATOM     10  C   UNL     1     105.511 128.622 143.488  0.00  0.00    +0.000 C 
BRANCH  10  11
ATOM     11  C   UNL     1     104.897 128.694 142.941  0.00  0.00    +0.000 C 
ATOM     12  C   UNL     1     104.636 129.442 142.710  0.00  0.00    +0.000 C 
BRANCH  12  13
ATOM     13  C   UNL     1     104.023 129.514 142.163  0.00  0.00    +0.000 A 
ATOM     14  C   UNL     1     103.442 130.090 142.267  0.00  0.00    +0.000 A 
ATOM     15  C   UNL     1     103.991 129.009 141.511  0.00  0.00    +0.000 A 
ATOM     16  C   UNL     1     102.829 130.162 141.721  0.00  0.00    +0.000 A 
ATOM     17  C   UNL     1     102.797 129.657 141.069  0.00  0.00    +0.000 A 
ATOM     18  C   UNL     1     103.377 129.080 140.964  0.00  0.00    +0.000 A 
BRANCH  16  19
ATOM     19  O   UNL     1     102.247 130.738 141.825  0.00  0.00    +0.000 OA
ATOM     20  C   UNL     1     102.259 131.221 142.493  0.00  0.00    +0.000 C 
ENDBRANCH  16  19
BRANCH  17  21
ATOM     21  O   UNL     1     102.183 129.728 140.521  0.00  0.00    +0.000 OA
ATOM     22  C   UNL     1     102.218 129.319 139.806  0.00  0.00    +0.000 C 
ENDBRANCH  17  21
ENDBRANCH  12  13
ENDBRANCH  10  11
ENDBRANCH   8  10
BRANCH   3  23
ATOM     23  O   UNL     1     106.413 125.639 144.573  0.00  0.00    +0.000 OA
BRANCH  23  32
ATOM     24  O   UNL     1     106.837 125.943 145.903  0.00  0.00    +0.000 OA
ATOM     25  O   UNL     1     106.375 124.978 147.805  0.00  0.00    +0.000 OA
ATOM     26  O   UNL     1     105.509 124.040 146.762  0.00  0.00    +0.000 OA
ATOM     27  O   UNL     1     105.527 124.370 145.145  0.00  0.00    +0.000 OA
ATOM     28  C   UNL     1     106.385 125.144 146.997  0.00  0.00    +0.000 C 
ATOM     29  C   UNL     1     105.951 124.674 146.476  0.00  0.00    +0.000 C 
ATOM     30  C   UNL     1     106.828 125.778 146.711  0.00  0.00    +0.000 C 
ATOM     31  C   UNL     1     105.961 124.840 145.667  0.00  0.00    +0.000 C 
ATOM     32  C   UNL     1     106.404 125.474 145.381  0.00  0.00    +0.000 C 
BRANCH  30  34
ATOM     33  O   UNL     1     107.993 126.551 147.005  0.00  0.00    +0.000 OA
ATOM     34  C   UNL     1     107.261 126.247 147.233  0.00  0.00    +0.000 C 
ENDBRANCH  30  34
ENDBRANCH  23  32
ENDBRANCH   3  23
TORSDOF 8
ENDMDL
MODEL 7
REMARK VINA RESULT:      -8.1      4.164      5.740
REMARK  Name = 42607573
REMARK  8 active torsions:
REMARK  status: ('A' for Active; 'I' for Inactive)
REMARK    1  A    between atoms: O_4  and  C_16
REMARK    2  A    between atoms: O_4  and  C_18
REMARK    3  A    between atoms: O_10  and  C_30
REMARK    4  A    between atoms: O_11  and  C_31
REMARK    5  A    between atoms: C_14  and  C_17
REMARK    6  A    between atoms: C_23  and  C_24
REMARK    7  A    between atoms: C_24  and  C_25
REMARK    8  A    between atoms: C_26  and  C_27
REMARK                            x       y       z     vdW  Elec       q    Type
REMARK                         _______ _______ _______ _____ _____    ______ ____
ROOT
ATOM      1  O   UNL     1     107.907 124.707 141.373  0.00  0.00    +0.000 OA
ATOM      2  O   UNL     1     106.837 123.535 140.922  0.00  0.00    +0.000 OA
ATOM      3  C   UNL     1     106.853 125.673 141.361  0.00  0.00    +0.000 A 
ATOM      4  C   UNL     1     107.112 124.897 141.254  0.00  0.00    +0.000 A 
ATOM      5  C   UNL     1     106.059 125.863 141.243  0.00  0.00    +0.000 A 
ATOM      6  C   UNL     1     106.577 124.311 141.029  0.00  0.00    +0.000 A 
ATOM      7  C   UNL     1     105.524 125.276 141.017  0.00  0.00    +0.000 A 
ATOM      8  C   UNL     1     105.784 124.500 140.910  0.00  0.00    +0.000 A 
ENDROOT
BRANCH   8  10
ATOM      9  O   UNL     1     105.094 123.280 141.189  0.00  0.00    +0.000 OA
ATOM     10  C   UNL     1     105.249 123.914 140.685  0.00  0.00    +0.000 C 
BRANCH  10  11
ATOM     11  C   UNL     1     104.868 123.962 139.954  0.00  0.00    +0.000 C 
ATOM     12  C   UNL     1     104.335 123.374 139.727  0.00  0.00    +0.000 C 
BRANCH  12  13
ATOM     13  C   UNL     1     103.955 123.422 138.997  0.00  0.00    +0.000 A 
ATOM     14  C   UNL     1     103.133 123.482 138.962  0.00  0.00    +0.000 A 
ATOM     15  C   UNL     1     104.397 123.409 138.300  0.00  0.00    +0.000 A 
ATOM     16  C   UNL     1     102.753 123.530 138.232  0.00  0.00    +0.000 A 
ATOM     17  C   UNL     1     103.195 123.518 137.536  0.00  0.00    +0.000 A 
ATOM     18  C   UNL     1     104.017 123.457 137.569  0.00  0.00    +0.000 A 
BRANCH  16  19
ATOM     19  O   UNL     1     101.931 123.591 138.198  0.00  0.00    +0.000 OA
ATOM     20  C   UNL     1     101.462 123.160 138.722  0.00  0.00    +0.000 C 
ENDBRANCH  16  19
BRANCH  17  21
ATOM     21  O   UNL     1     102.814 123.566 136.804  0.00  0.00    +0.000 OA
ATOM     22  C   UNL     1     103.175 123.256 136.130  0.00  0.00    +0.000 C 
ENDBRANCH  17  21
ENDBRANCH  12  13
ENDBRANCH  10  11
ENDBRANCH   8  10
BRANCH   3  23
ATOM     23  O   UNL     1     107.388 126.259 141.587  0.00  0.00    +0.000 OA
BRANCH  23  32
ATOM     24  O   UNL     1     106.951 126.447 142.935  0.00  0.00    +0.000 OA
ATOM     25  O   UNL     1     106.669 128.269 144.103  0.00  0.00    +0.000 OA
ATOM     26  O   UNL     1     107.183 128.897 142.667  0.00  0.00    +0.000 OA
ATOM     27  O   UNL     1     107.542 127.892 141.409  0.00  0.00    +0.000 OA
ATOM     28  C   UNL     1     106.849 127.766 143.474  0.00  0.00    +0.000 C 
ATOM     29  C   UNL     1     107.106 128.081 142.756  0.00  0.00    +0.000 C 
ATOM     30  C   UNL     1     106.772 126.949 143.563  0.00  0.00    +0.000 C 
ATOM     31  C   UNL     1     107.286 127.577 142.127  0.00  0.00    +0.000 C 
ATOM     32  C   UNL     1     107.208 126.761 142.216  0.00  0.00    +0.000 C 
BRANCH  30  34
ATOM     33  O   UNL     1     106.854 125.943 144.574  0.00  0.00    +0.000 OA
ATOM     34  C   UNL     1     106.515 126.636 144.281  0.00  0.00    +0.000 C 
ENDBRANCH  30  34
ENDBRANCH  23  32
ENDBRANCH   3  23
TORSDOF 8
ENDMDL
MODEL 8
REMARK VINA RESULT:      -8.1      3.210      5.349
REMARK  Name = 42607573
REMARK  8 active torsions:
REMARK  status: ('A' for Active; 'I' for Inactive)
REMARK    1  A    between atoms: O_4  and  C_16
REMARK    2  A    between atoms: O_4  and  C_18
REMARK    3  A    between atoms: O_10  and  C_30
REMARK    4  A    between atoms: O_11  and  C_31
REMARK    5  A    between atoms: C_14  and  C_17
REMARK    6  A    between atoms: C_23  and  C_24
REMARK    7  A    between atoms: C_24  and  C_25
REMARK    8  A    between atoms: C_26  and  C_27
REMARK                            x       y       z     vdW  Elec       q    Type
REMARK                         _______ _______ _______ _____ _____    ______ ____
ROOT
ATOM      1  O   UNL     1     104.122 127.782 140.573  0.00  0.00    +0.000 OA
ATOM      2  O   UNL     1     103.233 129.163 140.420  0.00  0.00    +0.000 OA
ATOM      3  C   UNL     1     104.482 128.161 141.903  0.00  0.00    +0.000 A 
ATOM      4  C   UNL     1     104.080 128.317 141.200  0.00  0.00    +0.000 A 
ATOM      5  C   UNL     1     104.440 128.697 142.530  0.00  0.00    +0.000 A 
ATOM      6  C   UNL     1     103.635 129.008 141.123  0.00  0.00    +0.000 A 
ATOM      7  C   UNL     1     103.995 129.388 142.453  0.00  0.00    +0.000 A 
ATOM      8  C   UNL     1     103.593 129.543 141.749  0.00  0.00    +0.000 A 
ENDROOT
BRANCH   8  10
ATOM      9  O   UNL     1     102.325 130.193 141.633  0.00  0.00    +0.000 OA
ATOM     10  C   UNL     1     103.148 130.233 141.673  0.00  0.00    +0.000 C 
BRANCH  10  11
ATOM     11  C   UNL     1     103.527 130.966 141.635  0.00  0.00    +0.000 C 
ATOM     12  C   UNL     1     103.090 131.649 141.484  0.00  0.00    +0.000 C 
BRANCH  12  13
ATOM     13  C   UNL     1     103.468 132.381 141.447  0.00  0.00    +0.000 A 
ATOM     14  C   UNL     1     103.775 132.651 140.731  0.00  0.00    +0.000 A 
ATOM     15  C   UNL     1     103.540 132.843 142.127  0.00  0.00    +0.000 A 
ATOM     16  C   UNL     1     104.153 133.383 140.693  0.00  0.00    +0.000 A 
ATOM     17  C   UNL     1     104.225 133.845 141.373  0.00  0.00    +0.000 A 
ATOM     18  C   UNL     1     103.919 133.576 142.090  0.00  0.00    +0.000 A 
BRANCH  16  19
ATOM     19  O   UNL     1     104.460 133.654 139.977  0.00  0.00    +0.000 OA
ATOM     20  C   UNL     1     104.218 133.310 139.268  0.00  0.00    +0.000 C 
ENDBRANCH  16  19
BRANCH  17  21
ATOM     21  O   UNL     1     104.604 134.578 141.336  0.00  0.00    +0.000 OA
ATOM     22  C   UNL     1     104.673 135.041 142.015  0.00  0.00    +0.000 C 
ENDBRANCH  17  21
ENDBRANCH  12  13
ENDBRANCH  10  11
ENDBRANCH   8  10
BRANCH   3  23
ATOM     23  O   UNL     1     104.927 127.471 141.979  0.00  0.00    +0.000 OA
BRANCH  23  32
ATOM     24  O   UNL     1     106.225 128.058 141.867  0.00  0.00    +0.000 OA
ATOM     25  O   UNL     1     108.080 127.636 142.935  0.00  0.00    +0.000 OA
ATOM     26  O   UNL     1     107.062 126.545 143.638  0.00  0.00    +0.000 OA
ATOM     27  O   UNL     1     105.485 126.462 143.160  0.00  0.00    +0.000 OA
ATOM     28  C   UNL     1     107.292 127.595 142.696  0.00  0.00    +0.000 C 
ATOM     29  C   UNL     1     106.783 127.049 143.048  0.00  0.00    +0.000 C 
ATOM     30  C   UNL     1     107.013 128.099 142.106  0.00  0.00    +0.000 C 
ATOM     31  C   UNL     1     105.994 127.008 142.808  0.00  0.00    +0.000 C 
ATOM     32  C   UNL     1     105.715 127.512 142.218  0.00  0.00    +0.000 C 
BRANCH  30  34
ATOM     33  O   UNL     1     107.476 128.790 140.944  0.00  0.00    +0.000 OA
ATOM     34  C   UNL     1     107.522 128.644 141.755  0.00  0.00    +0.000 C 
ENDBRANCH  30  34
ENDBRANCH  23  32
ENDBRANCH   3  23
TORSDOF 8
ENDMDL
MODEL 9
REMARK VINA RESULT:      -8.1      0.914      1.733
REMARK  Name = 42607573
REMARK  8 active torsions:
REMARK  status: ('A' for Active; 'I' for Inactive)
REMARK    1  A    between atoms: O_4  and  C_16
REMARK    2  A    between atoms: O_4  and  C_18
REMARK    3  A    between atoms: O_10  and  C_30
REMARK    4  A    between atoms: O_11  and  C_31
REMARK    5  A    between atoms: C_14  and  C_17
REMARK    6  A    between atoms: C_23  and  C_24
REMARK    7  A    between atoms: C_24  and  C_25
REMARK    8  A    between atoms: C_26  and  C_27
REMARK                            x       y       z     vdW  Elec       q    Type
REMARK                         _______ _______ _______ _____ _____    ______ ____
ROOT
ATOM      1  O   UNL     1     106.200 124.177 144.783  0.00  0.00    +0.000 OA
ATOM      2  O   UNL     1     106.452 125.360 143.660  0.00  0.00    +0.000 OA
ATOM      3  C   UNL     1     105.942 125.173 145.774  0.00  0.00    +0.000 A 
ATOM      4  C   UNL     1     106.134 124.972 144.998  0.00  0.00    +0.000 A 
ATOM      5  C   UNL     1     105.875 125.968 145.989  0.00  0.00    +0.000 A 
ATOM      6  C   UNL     1     106.260 125.563 144.437  0.00  0.00    +0.000 A 
ATOM      7  C   UNL     1     106.001 126.559 145.428  0.00  0.00    +0.000 A 
ATOM      8  C   UNL     1     106.194 126.356 144.652  0.00  0.00    +0.000 A 
ENDROOT
BRANCH   8  10
ATOM      9  O   UNL     1     107.088 127.170 143.890  0.00  0.00    +0.000 OA
ATOM     10  C   UNL     1     106.320 126.948 144.091  0.00  0.00    +0.000 C 
BRANCH  10  11
ATOM     11  C   UNL     1     105.676 127.318 143.729  0.00  0.00    +0.000 C 
ATOM     12  C   UNL     1     105.791 128.004 143.285  0.00  0.00    +0.000 C 
BRANCH  12  13
ATOM     13  C   UNL     1     105.148 128.373 142.924  0.00  0.00    +0.000 A 
ATOM     14  C   UNL     1     104.766 129.000 143.301  0.00  0.00    +0.000 A 
ATOM     15  C   UNL     1     104.886 128.116 142.185  0.00  0.00    +0.000 A 
ATOM     16  C   UNL     1     104.124 129.369 142.940  0.00  0.00    +0.000 A 
ATOM     17  C   UNL     1     103.862 129.112 142.202  0.00  0.00    +0.000 A 
ATOM     18  C   UNL     1     104.242 128.485 141.824  0.00  0.00    +0.000 A 
BRANCH  16  19
ATOM     19  O   UNL     1     103.742 129.996 143.317  0.00  0.00    +0.000 OA
ATOM     20  C   UNL     1     104.004 130.256 144.055  0.00  0.00    +0.000 C 
ENDBRANCH  16  19
BRANCH  17  21
ATOM     21  O   UNL     1     103.218 129.482 141.840  0.00  0.00    +0.000 OA
ATOM     22  C   UNL     1     103.087 129.385 141.031  0.00  0.00    +0.000 C 
ENDBRANCH  17  21
ENDBRANCH  12  13
ENDBRANCH  10  11
ENDBRANCH   8  10
BRANCH   3  23
ATOM     23  O   UNL     1     105.816 124.582 146.336  0.00  0.00    +0.000 OA
BRANCH  23  32
ATOM     24  O   UNL     1     104.396 124.622 146.495  0.00  0.00    +0.000 OA
ATOM     25  O   UNL     1     103.162 124.703 148.292  0.00  0.00    +0.000 OA
ATOM     26  O   UNL     1     104.673 124.684 148.953  0.00  0.00    +0.000 OA
ATOM     27  O   UNL     1     106.000 124.623 147.975  0.00  0.00    +0.000 OA
ATOM     28  C   UNL     1     103.825 124.673 147.803  0.00  0.00    +0.000 C 
ATOM     29  C   UNL     1     104.581 124.663 148.134  0.00  0.00    +0.000 C 
ATOM     30  C   UNL     1     103.733 124.653 146.983  0.00  0.00    +0.000 C 
ATOM     31  C   UNL     1     105.245 124.633 147.644  0.00  0.00    +0.000 C 
ATOM     32  C   UNL     1     105.152 124.612 146.824  0.00  0.00    +0.000 C 
BRANCH  30  34
ATOM     33  O   UNL     1     102.806 124.190 145.999  0.00  0.00    +0.000 OA
ATOM     34  C   UNL     1     102.977 124.662 146.653  0.00  0.00    +0.000 C 
ENDBRANCH  30  34
ENDBRANCH  23  32
ENDBRANCH   3  23
TORSDOF 8
ENDMDL
MODEL 10
REMARK VINA RESULT:      -8.0      8.699     11.210
REMARK  Name = 42607573
REMARK  8 active torsions:
REMARK  status: ('A' for Active; 'I' for Inactive)
REMARK    1  A    between atoms: O_4  and  C_16
REMARK    2  A    between atoms: O_4  and  C_18
REMARK    3  A    between atoms: O_10  and  C_30
REMARK    4  A    between atoms: O_11  and  C_31
REMARK    5  A    between atoms: C_14  and  C_17
REMARK    6  A    between atoms: C_23  and  C_24
REMARK    7  A    between atoms: C_24  and  C_25
REMARK    8  A    between atoms: C_26  and  C_27
REMARK                            x       y       z     vdW  Elec       q    Type
REMARK                         _______ _______ _______ _____ _____    ______ ____
ROOT
ATOM      1  O   UNL     1     112.941 130.789 139.089  0.00  0.00    +0.000 OA
ATOM      2  O   UNL     1     113.774 129.588 138.323  0.00  0.00    +0.000 OA
ATOM      3  C   UNL     1     112.005 130.828 138.009  0.00  0.00    +0.000 A 
ATOM      4  C   UNL     1     112.681 130.508 138.357  0.00  0.00    +0.000 A 
ATOM      5  C   UNL     1     111.746 130.547 137.277  0.00  0.00    +0.000 A 
ATOM      6  C   UNL     1     113.098 129.907 137.974  0.00  0.00    +0.000 A 
ATOM      7  C   UNL     1     112.162 129.947 136.895  0.00  0.00    +0.000 A 
ATOM      8  C   UNL     1     112.838 129.627 137.243  0.00  0.00    +0.000 A 
ENDROOT
BRANCH   8  10
ATOM      9  O   UNL     1     113.928 129.207 136.419  0.00  0.00    +0.000 OA
ATOM     10  C   UNL     1     113.255 129.027 136.861  0.00  0.00    +0.000 C 
BRANCH  10  11
ATOM     11  C   UNL     1     112.998 128.244 136.919  0.00  0.00    +0.000 C 
ATOM     12  C   UNL     1     113.364 127.655 136.471  0.00  0.00    +0.000 C 
BRANCH  12  13
ATOM     13  C   UNL     1     113.107 126.874 136.530  0.00  0.00    +0.000 A 
ATOM     14  C   UNL     1     113.575 126.313 136.913  0.00  0.00    +0.000 A 
ATOM     15  C   UNL     1     112.382 126.653 136.205  0.00  0.00    +0.000 A 
ATOM     16  C   UNL     1     113.318 125.532 136.971  0.00  0.00    +0.000 A 
ATOM     17  C   UNL     1     112.593 125.311 136.646  0.00  0.00    +0.000 A 
ATOM     18  C   UNL     1     112.124 125.871 136.263  0.00  0.00    +0.000 A 
BRANCH  16  19
ATOM     19  O   UNL     1     113.786 124.970 137.354  0.00  0.00    +0.000 OA
ATOM     20  C   UNL     1     114.596 125.099 137.443  0.00  0.00    +0.000 C 
ENDBRANCH  16  19
BRANCH  17  21
ATOM     21  O   UNL     1     112.336 124.528 136.704  0.00  0.00    +0.000 OA
ATOM     22  C   UNL     1     111.599 124.313 136.402  0.00  0.00    +0.000 C 
ENDBRANCH  17  21
ENDBRANCH  12  13
ENDBRANCH  10  11
ENDBRANCH   8  10
BRANCH   3  23
ATOM     23  O   UNL     1     111.589 131.429 138.392  0.00  0.00    +0.000 OA
BRANCH  23  32
ATOM     24  O   UNL     1     110.448 130.677 138.812  0.00  0.00    +0.000 OA
ATOM     25  O   UNL     1     108.324 131.175 138.793  0.00  0.00    +0.000 OA
ATOM     26  O   UNL     1     108.971 132.551 138.154  0.00  0.00    +0.000 OA
ATOM     27  O   UNL     1     110.604 132.678 137.953  0.00  0.00    +0.000 OA
ATOM     28  C   UNL     1     109.140 131.238 138.693  0.00  0.00    +0.000 C 
ATOM     29  C   UNL     1     109.464 131.926 138.374  0.00  0.00    +0.000 C 
ATOM     30  C   UNL     1     109.633 130.613 138.912  0.00  0.00    +0.000 C 
ATOM     31  C   UNL     1     110.281 131.990 138.273  0.00  0.00    +0.000 C 
ATOM     32  C   UNL     1     110.773 131.365 138.492  0.00  0.00    +0.000 C 
BRANCH  30  34
ATOM     33  O   UNL     1     109.641 129.588 139.908  0.00  0.00    +0.000 OA
ATOM     34  C   UNL     1     109.309 129.926 139.232  0.00  0.00    +0.000 C 
ENDBRANCH  30  34
ENDBRANCH  23  32
ENDBRANCH   3  23
TORSDOF 8
ENDMDL
