MODEL 1
REMARK VINA RESULT:      -8.3      0.000      0.000
REMARK  Name = 10802120
REMARK  2 active torsions:
REMARK  status: ('A' for Active; 'I' for Inactive)
REMARK    1  A    between atoms: O_2  and  C_15
REMARK    2  A    between atoms: C_5  and  C_9
REMARK                            x       y       z     vdW  Elec       q    Type
REMARK                         _______ _______ _______ _____ _____    ______ ____
ROOT
ATOM      1  O   UNL     1     105.420 125.125 139.395  0.00  0.00    +0.000 OA
ATOM      2  O   UNL     1     107.413 124.547 141.438  0.00  0.00    +0.000 OA
ATOM      3  C   UNL     1     104.522 124.106 138.952  0.00  0.00    +0.000 C 
ATOM      4  C   UNL     1     104.873 123.571 139.473  0.00  0.00    +0.000 C 
ATOM      5  C   UNL     1     104.796 124.884 138.913  0.00  0.00    +0.000 C 
ATOM      6  C   UNL     1     105.497 123.814 139.955  0.00  0.00    +0.000 A 
ATOM      7  C   UNL     1     105.770 124.591 139.916  0.00  0.00    +0.000 A 
ATOM      8  C   UNL     1     105.854 123.247 140.494  0.00  0.00    +0.000 A 
ATOM      9  C   UNL     1     106.420 124.855 140.413  0.00  0.00    +0.000 A 
ATOM     10  C   UNL     1     106.504 123.493 140.998  0.00  0.00    +0.000 A 
ATOM     11  C   UNL     1     106.789 124.302 140.958  0.00  0.00    +0.000 A 
ENDROOT
BRANCH   3  13
ATOM     12  O   UNL     1     102.027 123.134 137.023  0.00  0.00    +0.000 OA
ATOM     13  C   UNL     1     103.898 123.864 138.470  0.00  0.00    +0.000 A 
ATOM     14  C   UNL     1     104.054 123.472 137.760  0.00  0.00    +0.000 A 
ATOM     15  C   UNL     1     103.119 124.012 138.698  0.00  0.00    +0.000 A 
ATOM     16  C   UNL     1     103.430 123.230 137.278  0.00  0.00    +0.000 A 
ATOM     17  C   UNL     1     102.495 123.768 138.215  0.00  0.00    +0.000 A 
ATOM     18  C   UNL     1     102.650 123.378 137.506  0.00  0.00    +0.000 A 
BRANCH  16  19
ATOM     19  O   UNL     1     103.585 122.838 136.568  0.00  0.00    +0.000 OA
ATOM     20  C   UNL     1     104.126 123.155 136.032  0.00  0.00    +0.000 C 
ENDBRANCH  16  19
ENDBRANCH   3  13
TORSDOF 2
ENDMDL
MODEL 2
REMARK VINA RESULT:      -8.1      1.110      4.376
REMARK  Name = 10802120
REMARK  2 active torsions:
REMARK  status: ('A' for Active; 'I' for Inactive)
REMARK    1  A    between atoms: O_2  and  C_15
REMARK    2  A    between atoms: C_5  and  C_9
REMARK                            x       y       z     vdW  Elec       q    Type
REMARK                         _______ _______ _______ _____ _____    ______ ____
ROOT
ATOM      1  O   UNL     1     102.585 123.672 137.909  0.00  0.00    +0.000 OA
ATOM      2  O   UNL     1     102.311 122.739 135.164  0.00  0.00    +0.000 OA
ATOM      3  C   UNL     1     103.874 123.753 138.520  0.00  0.00    +0.000 C 
ATOM      4  C   UNL     1     104.221 123.473 137.825  0.00  0.00    +0.000 C 
ATOM      5  C   UNL     1     103.057 123.852 138.562  0.00  0.00    +0.000 C 
ATOM      6  C   UNL     1     103.749 123.294 137.173  0.00  0.00    +0.000 A 
ATOM      7  C   UNL     1     102.931 123.393 137.215  0.00  0.00    +0.000 A 
ATOM      8  C   UNL     1     104.122 123.003 136.454  0.00  0.00    +0.000 A 
ATOM      9  C   UNL     1     102.430 123.209 136.541  0.00  0.00    +0.000 A 
ATOM     10  C   UNL     1     103.636 122.815 135.771  0.00  0.00    +0.000 A 
ATOM     11  C   UNL     1     102.784 122.918 135.815  0.00  0.00    +0.000 A 
ENDROOT
BRANCH   3  13
ATOM     12  O   UNL     1     105.762 124.468 141.131  0.00  0.00    +0.000 OA
ATOM     13  C   UNL     1     104.346 123.932 139.172  0.00  0.00    +0.000 A 
ATOM     14  C   UNL     1     104.444 123.377 139.776  0.00  0.00    +0.000 A 
ATOM     15  C   UNL     1     104.721 124.665 139.222  0.00  0.00    +0.000 A 
ATOM     16  C   UNL     1     104.916 123.556 140.428  0.00  0.00    +0.000 A 
ATOM     17  C   UNL     1     105.193 124.844 139.875  0.00  0.00    +0.000 A 
ATOM     18  C   UNL     1     105.290 124.290 140.478  0.00  0.00    +0.000 A 
BRANCH  16  19
ATOM     19  O   UNL     1     105.013 123.001 141.032  0.00  0.00    +0.000 OA
ATOM     20  C   UNL     1     104.359 122.741 141.462  0.00  0.00    +0.000 C 
ENDBRANCH  16  19
ENDBRANCH   3  13
TORSDOF 2
ENDMDL
MODEL 3
REMARK VINA RESULT:      -8.0      6.880      7.878
REMARK  Name = 10802120
REMARK  2 active torsions:
REMARK  status: ('A' for Active; 'I' for Inactive)
REMARK    1  A    between atoms: O_2  and  C_15
REMARK    2  A    between atoms: C_5  and  C_9
REMARK                            x       y       z     vdW  Elec       q    Type
REMARK                         _______ _______ _______ _____ _____    ______ ____
ROOT
ATOM      1  O   UNL     1     112.237 124.166 136.603  0.00  0.00    +0.000 OA
ATOM      2  O   UNL     1     115.052 124.396 137.313  0.00  0.00    +0.000 OA
ATOM      3  C   UNL     1     111.494 125.320 136.204  0.00  0.00    +0.000 C 
ATOM      4  C   UNL     1     112.168 125.787 136.303  0.00  0.00    +0.000 C 
ATOM      5  C   UNL     1     111.529 124.509 136.355  0.00  0.00    +0.000 C 
ATOM      6  C   UNL     1     112.875 125.442 136.551  0.00  0.00    +0.000 A 
ATOM      7  C   UNL     1     112.909 124.632 136.701  0.00  0.00    +0.000 A 
ATOM      8  C   UNL     1     113.570 125.939 136.649  0.00  0.00    +0.000 A 
ATOM      9  C   UNL     1     113.641 124.262 136.960  0.00  0.00    +0.000 A 
ATOM     10  C   UNL     1     114.310 125.586 136.908  0.00  0.00    +0.000 A 
ATOM     11  C   UNL     1     114.345 124.742 137.064  0.00  0.00    +0.000 A 
ENDROOT
BRANCH   3  13
ATOM     12  O   UNL     1     108.665 126.699 135.214  0.00  0.00    +0.000 OA
ATOM     13  C   UNL     1     110.787 125.664 135.956  0.00  0.00    +0.000 A 
ATOM     14  C   UNL     1     110.298 126.041 136.504  0.00  0.00    +0.000 A 
ATOM     15  C   UNL     1     110.569 125.632 135.161  0.00  0.00    +0.000 A 
ATOM     16  C   UNL     1     109.591 126.386 136.256  0.00  0.00    +0.000 A 
ATOM     17  C   UNL     1     109.861 125.977 134.914  0.00  0.00    +0.000 A 
ATOM     18  C   UNL     1     109.372 126.354 135.461  0.00  0.00    +0.000 A 
BRANCH  16  19
ATOM     19  O   UNL     1     109.101 126.763 136.803  0.00  0.00    +0.000 OA
ATOM     20  C   UNL     1     109.383 126.934 137.560  0.00  0.00    +0.000 C 
ENDBRANCH  16  19
ENDBRANCH   3  13
TORSDOF 2
ENDMDL
MODEL 4
REMARK VINA RESULT:      -7.8      7.220      8.292
REMARK  Name = 10802120
REMARK  2 active torsions:
REMARK  status: ('A' for Active; 'I' for Inactive)
REMARK    1  A    between atoms: O_2  and  C_15
REMARK    2  A    between atoms: C_5  and  C_9
REMARK                            x       y       z     vdW  Elec       q    Type
REMARK                         _______ _______ _______ _____ _____    ______ ____
ROOT
ATOM      1  O   UNL     1     102.721 129.710 140.638  0.00  0.00    +0.000 OA
ATOM      2  O   UNL     1     104.678 127.693 141.400  0.00  0.00    +0.000 OA
ATOM      3  C   UNL     1     102.407 130.786 141.525  0.00  0.00    +0.000 C 
ATOM      4  C   UNL     1     102.944 130.487 142.076  0.00  0.00    +0.000 C 
ATOM      5  C   UNL     1     102.296 130.397 140.805  0.00  0.00    +0.000 C 
ATOM      6  C   UNL     1     103.369 129.800 141.907  0.00  0.00    +0.000 A 
ATOM      7  C   UNL     1     103.257 129.412 141.188  0.00  0.00    +0.000 A 
ATOM      8  C   UNL     1     103.925 129.499 142.489  0.00  0.00    +0.000 A 
ATOM      9  C   UNL     1     103.694 128.696 141.001  0.00  0.00    +0.000 A 
ATOM     10  C   UNL     1     104.371 128.784 142.320  0.00  0.00    +0.000 A 
ATOM     11  C   UNL     1     104.255 128.380 141.571  0.00  0.00    +0.000 A 
ENDROOT
BRANCH   3  13
ATOM     12  O   UNL     1     100.710 133.534 142.200  0.00  0.00    +0.000 OA
ATOM     13  C   UNL     1     101.983 131.472 141.694  0.00  0.00    +0.000 A 
ATOM     14  C   UNL     1     102.334 132.211 141.584  0.00  0.00    +0.000 A 
ATOM     15  C   UNL     1     101.208 131.421 141.972  0.00  0.00    +0.000 A 
ATOM     16  C   UNL     1     101.909 132.898 141.753  0.00  0.00    +0.000 A 
ATOM     17  C   UNL     1     100.784 132.108 142.141  0.00  0.00    +0.000 A 
ATOM     18  C   UNL     1     101.134 132.847 142.031  0.00  0.00    +0.000 A 
BRANCH  16  19
ATOM     19  O   UNL     1     102.260 133.637 141.642  0.00  0.00    +0.000 OA
ATOM     20  C   UNL     1     102.804 133.749 141.032  0.00  0.00    +0.000 C 
ENDBRANCH  16  19
ENDBRANCH   3  13
TORSDOF 2
ENDMDL
MODEL 5
REMARK VINA RESULT:      -7.7      7.751      8.858
REMARK  Name = 10802120
REMARK  2 active torsions:
REMARK  status: ('A' for Active; 'I' for Inactive)
REMARK    1  A    between atoms: O_2  and  C_15
REMARK    2  A    between atoms: C_5  and  C_9
REMARK                            x       y       z     vdW  Elec       q    Type
REMARK                         _______ _______ _______ _____ _____    ______ ____
ROOT
ATOM      1  O   UNL     1     100.908 131.932 142.026  0.00  0.00    +0.000 OA
ATOM      2  O   UNL     1     100.710 134.835 141.899  0.00  0.00    +0.000 OA
ATOM      3  C   UNL     1     102.120 131.273 141.655  0.00  0.00    +0.000 C 
ATOM      4  C   UNL     1     102.466 132.003 141.487  0.00  0.00    +0.000 C 
ATOM      5  C   UNL     1     101.341 131.237 141.924  0.00  0.00    +0.000 C 
ATOM      6  C   UNL     1     102.032 132.698 141.589  0.00  0.00    +0.000 A 
ATOM      7  C   UNL     1     101.253 132.662 141.859  0.00  0.00    +0.000 A 
ATOM      8  C   UNL     1     102.403 133.452 141.411  0.00  0.00    +0.000 A 
ATOM      9  C   UNL     1     100.791 133.379 141.969  0.00  0.00    +0.000 A 
ATOM     10  C   UNL     1     101.957 134.179 141.515  0.00  0.00    +0.000 A 
ATOM     11  C   UNL     1     101.146 134.142 141.796  0.00  0.00    +0.000 A 
ENDROOT
BRANCH   3  13
ATOM     12  O   UNL     1     103.854 128.496 141.244  0.00  0.00    +0.000 OA
ATOM     13  C   UNL     1     102.553 130.579 141.553  0.00  0.00    +0.000 A 
ATOM     14  C   UNL     1     102.533 130.183 140.828  0.00  0.00    +0.000 A 
ATOM     15  C   UNL     1     103.007 130.280 142.174  0.00  0.00    +0.000 A 
ATOM     16  C   UNL     1     102.967 129.489 140.726  0.00  0.00    +0.000 A 
ATOM     17  C   UNL     1     103.441 129.585 142.070  0.00  0.00    +0.000 A 
ATOM     18  C   UNL     1     103.421 129.190 141.347  0.00  0.00    +0.000 A 
BRANCH  16  19
ATOM     19  O   UNL     1     102.947 129.093 140.002  0.00  0.00    +0.000 OA
ATOM     20  C   UNL     1     102.258 129.098 139.548  0.00  0.00    +0.000 C 
ENDBRANCH  16  19
ENDBRANCH   3  13
TORSDOF 2
ENDMDL
MODEL 6
REMARK VINA RESULT:      -7.7      7.004      8.479
REMARK  Name = 10802120
REMARK  2 active torsions:
REMARK  status: ('A' for Active; 'I' for Inactive)
REMARK    1  A    between atoms: O_2  and  C_15
REMARK    2  A    between atoms: C_5  and  C_9
REMARK                            x       y       z     vdW  Elec       q    Type
REMARK                         _______ _______ _______ _____ _____    ______ ____
ROOT
ATOM      1  O   UNL     1     103.008 124.854 147.006  0.00  0.00    +0.000 OA
ATOM      2  O   UNL     1     100.863 123.060 146.192  0.00  0.00    +0.000 OA
ATOM      3  C   UNL     1     104.365 124.556 146.674  0.00  0.00    +0.000 C 
ATOM      4  C   UNL     1     104.121 123.865 146.293  0.00  0.00    +0.000 C 
ATOM      5  C   UNL     1     103.809 125.051 147.030  0.00  0.00    +0.000 C 
ATOM      6  C   UNL     1     103.320 123.670 146.270  0.00  0.00    +0.000 A 
ATOM      7  C   UNL     1     102.763 124.164 146.626  0.00  0.00    +0.000 A 
ATOM      8  C   UNL     1     103.077 122.948 145.871  0.00  0.00    +0.000 A 
ATOM      9  C   UNL     1     101.926 123.971 146.609  0.00  0.00    +0.000 A 
ATOM     10  C   UNL     1     102.244 122.739 145.843  0.00  0.00    +0.000 A 
ATOM     11  C   UNL     1     101.665 123.254 146.214  0.00  0.00    +0.000 A 
ENDROOT
BRANCH   3  13
ATOM     12  O   UNL     1     107.570 125.338 146.764  0.00  0.00    +0.000 OA
ATOM     13  C   UNL     1     105.166 124.752 146.697  0.00  0.00    +0.000 A 
ATOM     14  C   UNL     1     105.538 125.050 146.022  0.00  0.00    +0.000 A 
ATOM     15  C   UNL     1     105.597 124.649 147.394  0.00  0.00    +0.000 A 
ATOM     16  C   UNL     1     106.339 125.245 146.046  0.00  0.00    +0.000 A 
ATOM     17  C   UNL     1     106.398 124.845 147.415  0.00  0.00    +0.000 A 
ATOM     18  C   UNL     1     106.769 125.143 146.742  0.00  0.00    +0.000 A 
BRANCH  16  19
ATOM     19  O   UNL     1     106.710 125.543 145.371  0.00  0.00    +0.000 OA
ATOM     20  C   UNL     1     106.380 126.181 144.966  0.00  0.00    +0.000 C 
ENDBRANCH  16  19
ENDBRANCH   3  13
TORSDOF 2
ENDMDL
MODEL 7
REMARK VINA RESULT:      -7.7      7.174      8.238
REMARK  Name = 10802120
REMARK  2 active torsions:
REMARK  status: ('A' for Active; 'I' for Inactive)
REMARK    1  A    between atoms: O_2  and  C_15
REMARK    2  A    between atoms: C_5  and  C_9
REMARK                            x       y       z     vdW  Elec       q    Type
REMARK                         _______ _______ _______ _____ _____    ______ ____
ROOT
ATOM      1  O   UNL     1     105.954 125.311 146.296  0.00  0.00    +0.000 OA
ATOM      2  O   UNL     1     108.525 125.377 147.662  0.00  0.00    +0.000 OA
ATOM      3  C   UNL     1     104.810 124.739 146.934  0.00  0.00    +0.000 C 
ATOM      4  C   UNL     1     105.268 124.567 147.599  0.00  0.00    +0.000 C 
ATOM      5  C   UNL     1     105.153 125.111 146.282  0.00  0.00    +0.000 C 
ATOM      6  C   UNL     1     106.068 124.767 147.612  0.00  0.00    +0.000 A 
ATOM      7  C   UNL     1     106.411 125.139 146.960  0.00  0.00    +0.000 A 
ATOM      8  C   UNL     1     106.534 124.583 148.311  0.00  0.00    +0.000 A 
ATOM      9  C   UNL     1     107.244 125.353 146.962  0.00  0.00    +0.000 A 
ATOM     10  C   UNL     1     107.367 124.789 148.330  0.00  0.00    +0.000 A 
ATOM     11  C   UNL     1     107.725 125.176 147.652  0.00  0.00    +0.000 A 
ENDROOT
BRANCH   3  13
ATOM     12  O   UNL     1     101.610 123.935 146.882  0.00  0.00    +0.000 OA
ATOM     13  C   UNL     1     104.010 124.539 146.921  0.00  0.00    +0.000 A 
ATOM     14  C   UNL     1     103.766 123.843 146.550  0.00  0.00    +0.000 A 
ATOM     15  C   UNL     1     103.455 125.033 147.278  0.00  0.00    +0.000 A 
ATOM     16  C   UNL     1     102.966 123.642 146.538  0.00  0.00    +0.000 A 
ATOM     17  C   UNL     1     102.655 124.832 147.265  0.00  0.00    +0.000 A 
ATOM     18  C   UNL     1     102.410 124.137 146.895  0.00  0.00    +0.000 A 
BRANCH  16  19
ATOM     19  O   UNL     1     102.721 122.946 146.167  0.00  0.00    +0.000 OA
ATOM     20  C   UNL     1     103.030 122.740 145.430  0.00  0.00    +0.000 C 
ENDBRANCH  16  19
ENDBRANCH   3  13
TORSDOF 2
ENDMDL
MODEL 8
REMARK VINA RESULT:      -7.4      6.612      7.372
REMARK  Name = 10802120
REMARK  2 active torsions:
REMARK  status: ('A' for Active; 'I' for Inactive)
REMARK    1  A    between atoms: O_2  and  C_15
REMARK    2  A    between atoms: C_5  and  C_9
REMARK                            x       y       z     vdW  Elec       q    Type
REMARK                         _______ _______ _______ _____ _____    ______ ____
ROOT
ATOM      1  O   UNL     1     110.786 125.054 135.314  0.00  0.00    +0.000 OA
ATOM      2  O   UNL     1     112.428 123.311 136.971  0.00  0.00    +0.000 OA
ATOM      3  C   UNL     1     110.233 126.256 135.855  0.00  0.00    +0.000 C 
ATOM      4  C   UNL     1     110.585 126.089 136.583  0.00  0.00    +0.000 C 
ATOM      5  C   UNL     1     110.334 125.738 135.220  0.00  0.00    +0.000 C 
ATOM      6  C   UNL     1     111.037 125.406 136.675  0.00  0.00    +0.000 A 
ATOM      7  C   UNL     1     111.138 124.888 136.041  0.00  0.00    +0.000 A 
ATOM      8  C   UNL     1     111.399 125.244 137.438  0.00  0.00    +0.000 A 
ATOM      9  C   UNL     1     111.607 124.173 136.125  0.00  0.00    +0.000 A 
ATOM     10  C   UNL     1     111.871 124.534 137.541  0.00  0.00    +0.000 A 
ATOM     11  C   UNL     1     111.976 123.995 136.881  0.00  0.00    +0.000 A 
ENDROOT
BRANCH   3  13
ATOM     12  O   UNL     1     108.426 128.992 135.484  0.00  0.00    +0.000 OA
ATOM     13  C   UNL     1     109.781 126.939 135.763  0.00  0.00    +0.000 A 
ATOM     14  C   UNL     1     110.107 127.602 135.394  0.00  0.00    +0.000 A 
ATOM     15  C   UNL     1     109.003 126.960 136.038  0.00  0.00    +0.000 A 
ATOM     16  C   UNL     1     109.655 128.286 135.302  0.00  0.00    +0.000 A 
ATOM     17  C   UNL     1     108.552 127.645 135.945  0.00  0.00    +0.000 A 
ATOM     18  C   UNL     1     108.877 128.307 135.577  0.00  0.00    +0.000 A 
BRANCH  16  19
ATOM     19  O   UNL     1     109.981 128.949 134.934  0.00  0.00    +0.000 OA
ATOM     20  C   UNL     1     110.770 129.148 135.065  0.00  0.00    +0.000 C 
ENDBRANCH  16  19
ENDBRANCH   3  13
TORSDOF 2
ENDMDL
MODEL 9
REMARK VINA RESULT:      -7.4      8.743     10.344
REMARK  Name = 10802120
REMARK  2 active torsions:
REMARK  status: ('A' for Active; 'I' for Inactive)
REMARK    1  A    between atoms: O_2  and  C_15
REMARK    2  A    between atoms: C_5  and  C_9
REMARK                            x       y       z     vdW  Elec       q    Type
REMARK                         _______ _______ _______ _____ _____    ______ ____
ROOT
ATOM      1  O   UNL     1     112.371 126.289 136.270  0.00  0.00    +0.000 OA
ATOM      2  O   UNL     1     113.101 123.550 136.940  0.00  0.00    +0.000 OA
ATOM      3  C   UNL     1     113.322 127.346 136.410  0.00  0.00    +0.000 C 
ATOM      4  C   UNL     1     113.885 126.804 136.677  0.00  0.00    +0.000 C 
ATOM      5  C   UNL     1     112.565 127.088 136.206  0.00  0.00    +0.000 C 
ATOM      6  C   UNL     1     113.690 126.005 136.741  0.00  0.00    +0.000 A 
ATOM      7  C   UNL     1     112.933 125.748 136.537  0.00  0.00    +0.000 A 
ATOM      8  C   UNL     1     114.284 125.450 137.020  0.00  0.00    +0.000 A 
ATOM      9  C   UNL     1     112.718 124.917 136.600  0.00  0.00    +0.000 A 
ATOM     10  C   UNL     1     114.087 124.617 137.089  0.00  0.00    +0.000 A 
ATOM     11  C   UNL     1     113.299 124.349 136.877  0.00  0.00    +0.000 A 
ENDROOT
BRANCH   3  13
ATOM     12  O   UNL     1     114.103 130.542 136.157  0.00  0.00    +0.000 OA
ATOM     13  C   UNL     1     113.518 128.145 136.346  0.00  0.00    +0.000 A 
ATOM     14  C   UNL     1     113.313 128.668 136.951  0.00  0.00    +0.000 A 
ATOM     15  C   UNL     1     113.917 128.420 135.679  0.00  0.00    +0.000 A 
ATOM     16  C   UNL     1     113.509 129.467 136.887  0.00  0.00    +0.000 A 
ATOM     17  C   UNL     1     114.112 129.220 135.616  0.00  0.00    +0.000 A 
ATOM     18  C   UNL     1     113.908 129.743 136.220  0.00  0.00    +0.000 A 
BRANCH  16  19
ATOM     19  O   UNL     1     113.304 129.991 137.492  0.00  0.00    +0.000 OA
ATOM     20  C   UNL     1     113.447 129.789 138.279  0.00  0.00    +0.000 C 
ENDBRANCH  16  19
ENDBRANCH   3  13
TORSDOF 2
ENDMDL
MODEL 10
REMARK VINA RESULT:      -7.4      8.499      9.953
REMARK  Name = 10802120
REMARK  2 active torsions:
REMARK  status: ('A' for Active; 'I' for Inactive)
REMARK    1  A    between atoms: O_2  and  C_15
REMARK    2  A    between atoms: C_5  and  C_9
REMARK                            x       y       z     vdW  Elec       q    Type
REMARK                         _______ _______ _______ _____ _____    ______ ____
ROOT
ATOM      1  O   UNL     1     113.086 128.255 137.363  0.00  0.00    +0.000 OA
ATOM      2  O   UNL     1     113.926 130.730 136.078  0.00  0.00    +0.000 OA
ATOM      3  C   UNL     1     113.398 126.992 136.773  0.00  0.00    +0.000 C 
ATOM      4  C   UNL     1     113.780 127.377 136.150  0.00  0.00    +0.000 C 
ATOM      5  C   UNL     1     113.051 127.431 137.379  0.00  0.00    +0.000 C 
ATOM      6  C   UNL     1     113.815 128.201 136.135  0.00  0.00    +0.000 A 
ATOM      7  C   UNL     1     113.468 128.640 136.741  0.00  0.00    +0.000 A 
ATOM      8  C   UNL     1     114.215 128.591 135.482  0.00  0.00    +0.000 A 
ATOM      9  C   UNL     1     113.497 129.499 136.736  0.00  0.00    +0.000 A 
ATOM     10  C   UNL     1     114.254 129.449 135.460  0.00  0.00    +0.000 A 
ATOM     11  C   UNL     1     113.893 129.906 136.091  0.00  0.00    +0.000 A 
ENDROOT
BRANCH   3  13
ATOM     12  O   UNL     1     113.259 123.695 136.831  0.00  0.00    +0.000 OA
ATOM     13  C   UNL     1     113.364 126.168 136.788  0.00  0.00    +0.000 A 
ATOM     14  C   UNL     1     112.702 125.777 136.486  0.00  0.00    +0.000 A 
ATOM     15  C   UNL     1     113.991 125.734 137.104  0.00  0.00    +0.000 A 
ATOM     16  C   UNL     1     112.668 124.953 136.501  0.00  0.00    +0.000 A 
ATOM     17  C   UNL     1     113.955 124.910 137.119  0.00  0.00    +0.000 A 
ATOM     18  C   UNL     1     113.295 124.520 136.817  0.00  0.00    +0.000 A 
BRANCH  16  19
ATOM     19  O   UNL     1     112.006 124.563 136.199  0.00  0.00    +0.000 OA
ATOM     20  C   UNL     1     111.287 124.961 136.131  0.00  0.00    +0.000 C 
ENDBRANCH  16  19
ENDBRANCH   3  13
TORSDOF 2
ENDMDL
