MODEL 1
REMARK VINA RESULT:     -10.7      0.000      0.000
REMARK  Name = 44259200
REMARK  14 active torsions:
REMARK  status: ('A' for Active; 'I' for Inactive)
REMARK    1  A    between atoms: O_1  and  C_27
REMARK    2  A    between atoms: O_1  and  C_30
REMARK    3  A    between atoms: O_2  and  C_26
REMARK    4  A    between atoms: O_2  and  C_33
REMARK    5  A    between atoms: O_9  and  C_36
REMARK    6  A    between atoms: O_9  and  C_44
REMARK    7  A    between atoms: O_15  and  C_43
REMARK    8  A    between atoms: O_15  and  C_47
REMARK    9  A    between atoms: C_31  and  C_41
REMARK   10  A    between atoms: C_38  and  C_42
REMARK   11  A    between atoms: C_40  and  C_43
REMARK   12  A    between atoms: C_45  and  C_49
REMARK   13  A    between atoms: C_47  and  C_52
REMARK   14  A    between atoms: C_60  and  C_62
REMARK                            x       y       z     vdW  Elec       q    Type
REMARK                         _______ _______ _______ _____ _____    ______ ____
ROOT
ATOM      1  O   UNL     1     113.260 129.632 139.850  0.00  0.00    +0.000 OA
ATOM      2  O   UNL     1     112.454 130.278 142.099  0.00  0.00    +0.000 OA
ATOM      3  O   UNL     1     113.915 130.822 141.558  0.00  0.00    +0.000 OA
ATOM      4  C   UNL     1     112.262 129.575 140.870  0.00  0.00    +0.000 C 
ATOM      5  C   UNL     1     112.530 129.360 140.120  0.00  0.00    +0.000 C 
ATOM      6  C   UNL     1     112.723 130.062 141.349  0.00  0.00    +0.000 C 
ATOM      7  C   UNL     1     113.454 130.335 141.078  0.00  0.00    +0.000 C 
ATOM      8  C   UNL     1     113.722 130.120 140.328  0.00  0.00    +0.000 C 
ENDROOT
BRANCH   8  10
ATOM      9  O   UNL     1     114.487 131.043 139.553  0.00  0.00    +0.000 OA
ATOM     10  C   UNL     1     114.452 130.392 140.058  0.00  0.00    +0.000 C 
ENDBRANCH   8  10
BRANCH   5  11
ATOM     11  O   UNL     1     112.068 128.872 139.641  0.00  0.00    +0.000 OA
BRANCH  11  15
ATOM     12  O   UNL     1     112.795 127.793 137.888  0.00  0.00    +0.000 OA
ATOM     13  O   UNL     1     112.761 127.554 140.352  0.00  0.00    +0.000 OA
ATOM     14  O   UNL     1     113.478 126.396 139.420  0.00  0.00    +0.000 OA
ATOM     15  C   UNL     1     112.426 128.293 139.175  0.00  0.00    +0.000 C 
ATOM     16  C   UNL     1     112.773 127.633 139.531  0.00  0.00    +0.000 C 
ATOM     17  C   UNL     1     113.131 127.054 139.065  0.00  0.00    +0.000 C 
ATOM     18  C   UNL     1     112.437 128.372 138.354  0.00  0.00    +0.000 C 
ATOM     19  C   UNL     1     113.142 127.135 138.244  0.00  0.00    +0.000 C 
BRANCH  19  21
ATOM     20  O   UNL     1     113.039 126.076 137.288  0.00  0.00    +0.000 OA
ATOM     21  C   UNL     1     113.500 126.555 137.778  0.00  0.00    +0.000 C 
ENDBRANCH  19  21
BRANCH  18  22
ATOM     22  O   UNL     1     112.090 129.031 137.999  0.00  0.00    +0.000 OA
BRANCH  22  27
ATOM     23  O   UNL     1     111.218 129.183 136.004  0.00  0.00    +0.000 OA
ATOM     24  O   UNL     1     110.718 128.134 138.189  0.00  0.00    +0.000 OA
ATOM     25  O   UNL     1     109.495 127.569 137.671  0.00  0.00    +0.000 OA
ATOM     26  O   UNL     1     108.766 128.076 134.888  0.00  0.00    +0.000 OA
ATOM     27  C   UNL     1     111.570 128.932 137.366  0.00  0.00    +0.000 A 
ATOM     28  C   UNL     1     111.737 129.282 136.637  0.00  0.00    +0.000 A 
ATOM     29  C   UNL     1     110.884 128.484 137.461  0.00  0.00    +0.000 A 
ATOM     30  C   UNL     1     110.366 128.385 136.827  0.00  0.00    +0.000 A 
ATOM     31  C   UNL     1     110.532 128.734 136.099  0.00  0.00    +0.000 A 
ATOM     32  C   UNL     1     109.654 127.915 136.938  0.00  0.00    +0.000 A 
ATOM     33  C   UNL     1     109.999 128.639 135.431  0.00  0.00    +0.000 A 
ATOM     34  C   UNL     1     109.110 127.809 136.283  0.00  0.00    +0.000 A 
ATOM     35  C   UNL     1     109.283 128.173 135.523  0.00  0.00    +0.000 A 
BRANCH  28  38
ATOM     36  O   UNL     1     113.133 131.760 136.919  0.00  0.00    +0.000 OA
ATOM     37  O   UNL     1     114.481 131.076 136.257  0.00  0.00    +0.000 OA
ATOM     38  C   UNL     1     112.423 129.731 136.542  0.00  0.00    +0.000 A 
ATOM     39  C   UNL     1     112.435 130.520 136.778  0.00  0.00    +0.000 A 
ATOM     40  C   UNL     1     113.097 129.388 136.211  0.00  0.00    +0.000 A 
ATOM     41  C   UNL     1     113.121 130.969 136.683  0.00  0.00    +0.000 A 
ATOM     42  C   UNL     1     113.783 129.836 136.116  0.00  0.00    +0.000 A 
ATOM     43  C   UNL     1     113.795 130.628 136.352  0.00  0.00    +0.000 A 
ENDBRANCH  28  38
ENDBRANCH  22  27
ENDBRANCH  18  22
ENDBRANCH  11  15
ENDBRANCH   5  11
BRANCH   4  44
ATOM     44  O   UNL     1     111.531 129.302 141.141  0.00  0.00    +0.000 OA
BRANCH  44  49
ATOM     45  O   UNL     1     110.820 130.418 140.601  0.00  0.00    +0.000 OA
ATOM     46  O   UNL     1     110.353 129.102 142.279  0.00  0.00    +0.000 OA
ATOM     47  O   UNL     1     109.053 130.117 142.309  0.00  0.00    +0.000 OA
ATOM     48  O   UNL     1     108.931 131.334 141.201  0.00  0.00    +0.000 OA
ATOM     49  C   UNL     1     110.881 129.810 141.156  0.00  0.00    +0.000 C 
ATOM     50  C   UNL     1     110.293 129.710 141.724  0.00  0.00    +0.000 C 
ATOM     51  C   UNL     1     109.643 130.218 141.739  0.00  0.00    +0.000 C 
ATOM     52  C   UNL     1     109.581 130.826 141.186  0.00  0.00    +0.000 C 
ATOM     53  C   UNL     1     110.170 130.926 140.616  0.00  0.00    +0.000 C 
BRANCH  53  54
ATOM     54  C   UNL     1     110.108 131.534 140.062  0.00  0.00    +0.000 C 
BRANCH  54  55
ATOM     55  O   UNL     1     110.032 131.355 139.260  0.00  0.00    +0.000 OA
BRANCH  55  57
ATOM     56  O   UNL     1     110.211 132.709 138.839  0.00  0.00    +0.000 OA
ATOM     57  C   UNL     1     109.892 131.958 138.715  0.00  0.00    +0.000 C 
BRANCH  57  58
ATOM     58  C   UNL     1     109.434 131.810 138.044  0.00  0.00    +0.000 C 
ATOM     59  C   UNL     1     109.572 132.232 137.350  0.00  0.00    +0.000 C 
BRANCH  59  62
ATOM     60  O   UNL     1     107.214 131.144 136.157  0.00  0.00    +0.000 OA
ATOM     61  O   UNL     1     107.738 131.636 134.672  0.00  0.00    +0.000 OA
ATOM     62  C   UNL     1     109.114 132.084 136.680  0.00  0.00    +0.000 A 
ATOM     63  C   UNL     1     108.393 131.688 136.753  0.00  0.00    +0.000 A 
ATOM     64  C   UNL     1     109.376 132.330 135.937  0.00  0.00    +0.000 A 
ATOM     65  C   UNL     1     107.935 131.539 136.084  0.00  0.00    +0.000 A 
ATOM     66  C   UNL     1     108.917 132.181 135.268  0.00  0.00    +0.000 A 
ATOM     67  C   UNL     1     108.197 131.786 135.341  0.00  0.00    +0.000 A 
ENDBRANCH  59  62
ENDBRANCH  57  58
ENDBRANCH  55  57
ENDBRANCH  54  55
ENDBRANCH  53  54
ENDBRANCH  44  49
ENDBRANCH   4  44
TORSDOF 14
ENDMDL
MODEL 2
REMARK VINA RESULT:     -10.7      1.802      5.001
REMARK  Name = 44259200
REMARK  14 active torsions:
REMARK  status: ('A' for Active; 'I' for Inactive)
REMARK    1  A    between atoms: O_1  and  C_27
REMARK    2  A    between atoms: O_1  and  C_30
REMARK    3  A    between atoms: O_2  and  C_26
REMARK    4  A    between atoms: O_2  and  C_33
REMARK    5  A    between atoms: O_9  and  C_36
REMARK    6  A    between atoms: O_9  and  C_44
REMARK    7  A    between atoms: O_15  and  C_43
REMARK    8  A    between atoms: O_15  and  C_47
REMARK    9  A    between atoms: C_31  and  C_41
REMARK   10  A    between atoms: C_38  and  C_42
REMARK   11  A    between atoms: C_40  and  C_43
REMARK   12  A    between atoms: C_45  and  C_49
REMARK   13  A    between atoms: C_47  and  C_52
REMARK   14  A    between atoms: C_60  and  C_62
REMARK                            x       y       z     vdW  Elec       q    Type
REMARK                         _______ _______ _______ _____ _____    ______ ____
ROOT
ATOM      1  O   UNL     1     111.002 126.447 137.416  0.00  0.00    +0.000 OA
ATOM      2  O   UNL     1     110.522 124.735 139.138  0.00  0.00    +0.000 OA
ATOM      3  O   UNL     1     111.680 124.455 137.996  0.00  0.00    +0.000 OA
ATOM      4  C   UNL     1     110.263 126.016 138.560  0.00  0.00    +0.000 C 
ATOM      5  C   UNL     1     110.424 126.587 137.987  0.00  0.00    +0.000 C 
ATOM      6  C   UNL     1     110.682 125.305 138.564  0.00  0.00    +0.000 C 
ATOM      7  C   UNL     1     111.261 125.165 137.993  0.00  0.00    +0.000 C 
ATOM      8  C   UNL     1     111.421 125.736 137.419  0.00  0.00    +0.000 C 
ENDROOT
BRANCH   8  10
ATOM      9  O   UNL     1     111.792 125.557 136.051  0.00  0.00    +0.000 OA
ATOM     10  C   UNL     1     112.000 125.596 136.849  0.00  0.00    +0.000 C 
ENDBRANCH   8  10
BRANCH   5  11
ATOM     11  O   UNL     1     110.004 127.298 137.984  0.00  0.00    +0.000 OA
BRANCH  11  15
ATOM     12  O   UNL     1     109.957 128.692 136.305  0.00  0.00    +0.000 OA
ATOM     13  O   UNL     1     108.832 126.616 137.045  0.00  0.00    +0.000 OA
ATOM     14  O   UNL     1     108.409 127.318 135.613  0.00  0.00    +0.000 OA
ATOM     15  C   UNL     1     109.793 127.649 137.268  0.00  0.00    +0.000 C 
ATOM     16  C   UNL     1     109.206 127.308 136.798  0.00  0.00    +0.000 C 
ATOM     17  C   UNL     1     108.995 127.659 136.082  0.00  0.00    +0.000 C 
ATOM     18  C   UNL     1     110.168 128.341 137.021  0.00  0.00    +0.000 C 
ATOM     19  C   UNL     1     109.371 128.351 135.836  0.00  0.00    +0.000 C 
BRANCH  19  21
ATOM     20  O   UNL     1     108.829 129.459 135.113  0.00  0.00    +0.000 OA
ATOM     21  C   UNL     1     109.160 128.702 135.120  0.00  0.00    +0.000 C 
ENDBRANCH  19  21
BRANCH  18  22
ATOM     22  O   UNL     1     110.755 128.682 137.491  0.00  0.00    +0.000 OA
BRANCH  22  27
ATOM     23  O   UNL     1     111.418 130.761 137.519  0.00  0.00    +0.000 OA
ATOM     24  O   UNL     1     109.454 129.415 138.193  0.00  0.00    +0.000 OA
ATOM     25  O   UNL     1     108.779 130.593 138.683  0.00  0.00    +0.000 OA
ATOM     26  O   UNL     1     110.118 133.181 138.487  0.00  0.00    +0.000 OA
ATOM     27  C   UNL     1     110.759 129.497 137.618  0.00  0.00    +0.000 A 
ATOM     28  C   UNL     1     111.414 129.946 137.393  0.00  0.00    +0.000 A 
ATOM     29  C   UNL     1     110.108 129.864 137.969  0.00  0.00    +0.000 A 
ATOM     30  C   UNL     1     110.113 130.679 138.095  0.00  0.00    +0.000 A 
ATOM     31  C   UNL     1     110.768 131.128 137.870  0.00  0.00    +0.000 A 
ATOM     32  C   UNL     1     109.429 131.050 138.462  0.00  0.00    +0.000 A 
ATOM     33  C   UNL     1     110.785 131.978 137.997  0.00  0.00    +0.000 A 
ATOM     34  C   UNL     1     109.428 131.898 138.596  0.00  0.00    +0.000 A 
ATOM     35  C   UNL     1     110.111 132.366 138.362  0.00  0.00    +0.000 A 
BRANCH  28  38
ATOM     36  O   UNL     1     112.899 129.252 135.051  0.00  0.00    +0.000 OA
ATOM     37  O   UNL     1     114.016 128.480 135.989  0.00  0.00    +0.000 OA
ATOM     38  C   UNL     1     112.064 129.579 137.042  0.00  0.00    +0.000 A 
ATOM     39  C   UNL     1     112.156 129.599 136.223  0.00  0.00    +0.000 A 
ATOM     40  C   UNL     1     112.623 129.193 137.511  0.00  0.00    +0.000 A 
ATOM     41  C   UNL     1     112.806 129.232 135.872  0.00  0.00    +0.000 A 
ATOM     42  C   UNL     1     113.273 128.827 137.160  0.00  0.00    +0.000 A 
ATOM     43  C   UNL     1     113.365 128.846 136.340  0.00  0.00    +0.000 A 
ENDBRANCH  28  38
ENDBRANCH  22  27
ENDBRANCH  18  22
ENDBRANCH  11  15
ENDBRANCH   5  11
BRANCH   4  44
ATOM     44  O   UNL     1     109.684 126.156 139.132  0.00  0.00    +0.000 OA
BRANCH  44  49
ATOM     45  O   UNL     1     110.690 126.574 140.057  0.00  0.00    +0.000 OA
ATOM     46  O   UNL     1     108.546 126.256 140.323  0.00  0.00    +0.000 OA
ATOM     47  O   UNL     1     108.983 126.724 141.843  0.00  0.00    +0.000 OA
ATOM     48  O   UNL     1     110.557 127.092 142.174  0.00  0.00    +0.000 OA
ATOM     49  C   UNL     1     109.902 126.390 139.892  0.00  0.00    +0.000 C 
ATOM     50  C   UNL     1     109.334 126.440 140.487  0.00  0.00    +0.000 C 
ATOM     51  C   UNL     1     109.552 126.674 141.247  0.00  0.00    +0.000 C 
ATOM     52  C   UNL     1     110.339 126.858 141.413  0.00  0.00    +0.000 C 
ATOM     53  C   UNL     1     110.908 126.808 140.817  0.00  0.00    +0.000 C 
BRANCH  53  54
ATOM     54  C   UNL     1     111.695 126.992 140.983  0.00  0.00    +0.000 C 
BRANCH  54  55
ATOM     55  O   UNL     1     112.089 127.560 140.532  0.00  0.00    +0.000 OA
BRANCH  55  57
ATOM     56  O   UNL     1     113.417 127.081 140.754  0.00  0.00    +0.000 OA
ATOM     57  C   UNL     1     112.889 127.709 140.665  0.00  0.00    +0.000 C 
BRANCH  57  58
ATOM     58  C   UNL     1     113.162 128.487 140.708  0.00  0.00    +0.000 C 
ATOM     59  C   UNL     1     113.973 128.638 140.737  0.00  0.00    +0.000 C 
BRANCH  59  62
ATOM     60  O   UNL     1     113.650 131.324 141.658  0.00  0.00    +0.000 OA
ATOM     61  O   UNL     1     115.060 131.749 140.913  0.00  0.00    +0.000 OA
ATOM     62  C   UNL     1     114.245 129.415 140.781  0.00  0.00    +0.000 A 
ATOM     63  C   UNL     1     113.811 129.981 141.198  0.00  0.00    +0.000 A 
ATOM     64  C   UNL     1     114.950 129.627 140.409  0.00  0.00    +0.000 A 
ATOM     65  C   UNL     1     114.084 130.758 141.241  0.00  0.00    +0.000 A 
ATOM     66  C   UNL     1     115.221 130.405 140.453  0.00  0.00    +0.000 A 
ATOM     67  C   UNL     1     114.789 130.971 140.869  0.00  0.00    +0.000 A 
ENDBRANCH  59  62
ENDBRANCH  57  58
ENDBRANCH  55  57
ENDBRANCH  54  55
ENDBRANCH  53  54
ENDBRANCH  44  49
ENDBRANCH   4  44
TORSDOF 14
ENDMDL
MODEL 3
REMARK VINA RESULT:     -10.7      1.743      5.802
REMARK  Name = 44259200
REMARK  14 active torsions:
REMARK  status: ('A' for Active; 'I' for Inactive)
REMARK    1  A    between atoms: O_1  and  C_27
REMARK    2  A    between atoms: O_1  and  C_30
REMARK    3  A    between atoms: O_2  and  C_26
REMARK    4  A    between atoms: O_2  and  C_33
REMARK    5  A    between atoms: O_9  and  C_36
REMARK    6  A    between atoms: O_9  and  C_44
REMARK    7  A    between atoms: O_15  and  C_43
REMARK    8  A    between atoms: O_15  and  C_47
REMARK    9  A    between atoms: C_31  and  C_41
REMARK   10  A    between atoms: C_38  and  C_42
REMARK   11  A    between atoms: C_40  and  C_43
REMARK   12  A    between atoms: C_45  and  C_49
REMARK   13  A    between atoms: C_47  and  C_52
REMARK   14  A    between atoms: C_60  and  C_62
REMARK                            x       y       z     vdW  Elec       q    Type
REMARK                         _______ _______ _______ _____ _____    ______ ____
ROOT
ATOM      1  O   UNL     1     110.389 126.607 137.945  0.00  0.00    +0.000 OA
ATOM      2  O   UNL     1     111.486 124.408 138.242  0.00  0.00    +0.000 OA
ATOM      3  O   UNL     1     110.109 124.763 139.079  0.00  0.00    +0.000 OA
ATOM      4  C   UNL     1     111.443 125.697 137.626  0.00  0.00    +0.000 C 
ATOM      5  C   UNL     1     111.077 126.430 137.527  0.00  0.00    +0.000 C 
ATOM      6  C   UNL     1     111.120 125.141 138.143  0.00  0.00    +0.000 C 
ATOM      7  C   UNL     1     110.431 125.319 138.562  0.00  0.00    +0.000 C 
ATOM      8  C   UNL     1     110.065 126.052 138.462  0.00  0.00    +0.000 C 
ENDROOT
BRANCH   8  10
ATOM      9  O   UNL     1     108.674 126.376 138.474  0.00  0.00    +0.000 OA
ATOM     10  C   UNL     1     109.377 126.228 138.880  0.00  0.00    +0.000 C 
ENDBRANCH   8  10
BRANCH   5  11
ATOM     11  O   UNL     1     111.401 126.985 137.009  0.00  0.00    +0.000 OA
BRANCH  11  15
ATOM     12  O   UNL     1     110.283 128.720 136.297  0.00  0.00    +0.000 OA
ATOM     13  O   UNL     1     110.660 126.353 135.677  0.00  0.00    +0.000 OA
ATOM     14  O   UNL     1     109.668 127.299 134.758  0.00  0.00    +0.000 OA
ATOM     15  C   UNL     1     110.905 127.458 136.550  0.00  0.00    +0.000 C 
ATOM     16  C   UNL     1     110.534 127.142 135.883  0.00  0.00    +0.000 C 
ATOM     17  C   UNL     1     110.038 127.615 135.424  0.00  0.00    +0.000 C 
ATOM     18  C   UNL     1     110.779 128.247 136.756  0.00  0.00    +0.000 C 
ATOM     19  C   UNL     1     109.913 128.404 135.631  0.00  0.00    +0.000 C 
BRANCH  19  21
ATOM     20  O   UNL     1     108.666 129.081 135.450  0.00  0.00    +0.000 OA
ATOM     21  C   UNL     1     109.417 128.877 135.172  0.00  0.00    +0.000 C 
ENDBRANCH  19  21
BRANCH  18  22
ATOM     22  O   UNL     1     111.149 128.563 137.423  0.00  0.00    +0.000 OA
BRANCH  22  27
ATOM     23  O   UNL     1     111.764 130.628 137.771  0.00  0.00    +0.000 OA
ATOM     24  O   UNL     1     112.421 128.691 136.379  0.00  0.00    +0.000 OA
ATOM     25  O   UNL     1     113.491 129.449 135.777  0.00  0.00    +0.000 OA
ATOM     26  O   UNL     1     113.903 132.221 136.601  0.00  0.00    +0.000 OA
ATOM     27  C   UNL     1     111.566 129.272 137.364  0.00  0.00    +0.000 A 
ATOM     28  C   UNL     1     111.347 129.918 137.829  0.00  0.00    +0.000 A 
ATOM     29  C   UNL     1     112.202 129.336 136.842  0.00  0.00    +0.000 A 
ATOM     30  C   UNL     1     112.618 130.046 136.785  0.00  0.00    +0.000 A 
ATOM     31  C   UNL     1     112.399 130.692 137.249  0.00  0.00    +0.000 A 
ATOM     32  C   UNL     1     113.279 130.101 136.237  0.00  0.00    +0.000 A 
ATOM     33  C   UNL     1     112.825 131.437 137.198  0.00  0.00    +0.000 A 
ATOM     34  C   UNL     1     113.716 130.837 136.173  0.00  0.00    +0.000 A 
ATOM     35  C   UNL     1     113.488 131.510 136.657  0.00  0.00    +0.000 A 
BRANCH  28  38
ATOM     36  O   UNL     1     108.601 130.403 138.457  0.00  0.00    +0.000 OA
ATOM     37  O   UNL     1     108.804 129.662 139.917  0.00  0.00    +0.000 OA
ATOM     38  C   UNL     1     110.711 129.854 138.351  0.00  0.00    +0.000 A 
ATOM     39  C   UNL     1     109.975 130.160 138.143  0.00  0.00    +0.000 A 
ATOM     40  C   UNL     1     110.813 129.484 139.081  0.00  0.00    +0.000 A 
ATOM     41  C   UNL     1     109.339 130.096 138.665  0.00  0.00    +0.000 A 
ATOM     42  C   UNL     1     110.178 129.420 139.603  0.00  0.00    +0.000 A 
ATOM     43  C   UNL     1     109.440 129.726 139.395  0.00  0.00    +0.000 A 
ENDBRANCH  28  38
ENDBRANCH  22  27
ENDBRANCH  18  22
ENDBRANCH  11  15
ENDBRANCH   5  11
BRANCH   4  44
ATOM     44  O   UNL     1     112.132 125.520 137.208  0.00  0.00    +0.000 OA
BRANCH  44  49
ATOM     45  O   UNL     1     112.939 125.983 138.292  0.00  0.00    +0.000 OA
ATOM     46  O   UNL     1     113.453 124.796 136.533  0.00  0.00    +0.000 OA
ATOM     47  O   UNL     1     114.921 124.898 137.280  0.00  0.00    +0.000 OA
ATOM     48  O   UNL     1     115.068 125.723 138.701  0.00  0.00    +0.000 OA
ATOM     49  C   UNL     1     112.866 125.570 137.581  0.00  0.00    +0.000 C 
ATOM     50  C   UNL     1     113.526 125.209 137.244  0.00  0.00    +0.000 C 
ATOM     51  C   UNL     1     114.260 125.260 137.617  0.00  0.00    +0.000 C 
ATOM     52  C   UNL     1     114.334 125.672 138.327  0.00  0.00    +0.000 C 
ATOM     53  C   UNL     1     113.673 126.034 138.665  0.00  0.00    +0.000 C 
BRANCH  53  54
ATOM     54  C   UNL     1     113.747 126.447 139.375  0.00  0.00    +0.000 C 
BRANCH  54  55
ATOM     55  O   UNL     1     113.527 127.241 139.416  0.00  0.00    +0.000 OA
BRANCH  55  57
ATOM     56  O   UNL     1     113.140 127.328 140.789  0.00  0.00    +0.000 OA
ATOM     57  C   UNL     1     113.544 127.637 140.139  0.00  0.00    +0.000 C 
BRANCH  57  58
ATOM     58  C   UNL     1     113.965 128.344 140.212  0.00  0.00    +0.000 C 
ATOM     59  C   UNL     1     113.597 129.012 140.525  0.00  0.00    +0.000 C 
BRANCH  59  62
ATOM     60  O   UNL     1     114.069 131.483 141.882  0.00  0.00    +0.000 OA
ATOM     61  O   UNL     1     115.282 131.834 140.820  0.00  0.00    +0.000 OA
ATOM     62  C   UNL     1     114.019 129.717 140.598  0.00  0.00    +0.000 A 
ATOM     63  C   UNL     1     113.833 130.248 141.204  0.00  0.00    +0.000 A 
ATOM     64  C   UNL     1     114.625 129.893 140.067  0.00  0.00    +0.000 A 
ATOM     65  C   UNL     1     114.255 130.953 141.277  0.00  0.00    +0.000 A 
ATOM     66  C   UNL     1     115.046 130.599 140.141  0.00  0.00    +0.000 A 
ATOM     67  C   UNL     1     114.861 131.129 140.745  0.00  0.00    +0.000 A 
ENDBRANCH  59  62
ENDBRANCH  57  58
ENDBRANCH  55  57
ENDBRANCH  54  55
ENDBRANCH  53  54
ENDBRANCH  44  49
ENDBRANCH   4  44
TORSDOF 14
ENDMDL
MODEL 4
REMARK VINA RESULT:     -10.6      1.410      3.686
REMARK  Name = 44259200
REMARK  14 active torsions:
REMARK  status: ('A' for Active; 'I' for Inactive)
REMARK    1  A    between atoms: O_1  and  C_27
REMARK    2  A    between atoms: O_1  and  C_30
REMARK    3  A    between atoms: O_2  and  C_26
REMARK    4  A    between atoms: O_2  and  C_33
REMARK    5  A    between atoms: O_9  and  C_36
REMARK    6  A    between atoms: O_9  and  C_44
REMARK    7  A    between atoms: O_15  and  C_43
REMARK    8  A    between atoms: O_15  and  C_47
REMARK    9  A    between atoms: C_31  and  C_41
REMARK   10  A    between atoms: C_38  and  C_42
REMARK   11  A    between atoms: C_40  and  C_43
REMARK   12  A    between atoms: C_45  and  C_49
REMARK   13  A    between atoms: C_47  and  C_52
REMARK   14  A    between atoms: C_60  and  C_62
REMARK                            x       y       z     vdW  Elec       q    Type
REMARK                         _______ _______ _______ _____ _____    ______ ____
ROOT
ATOM      1  O   UNL     1     110.184 129.245 140.072  0.00  0.00    +0.000 OA
ATOM      2  O   UNL     1     111.091 131.467 140.672  0.00  0.00    +0.000 OA
ATOM      3  O   UNL     1     109.475 131.284 140.395  0.00  0.00    +0.000 OA
ATOM      4  C   UNL     1     111.294 130.077 140.411  0.00  0.00    +0.000 C 
ATOM      5  C   UNL     1     110.991 129.336 140.210  0.00  0.00    +0.000 C 
ATOM      6  C   UNL     1     110.789 130.727 140.472  0.00  0.00    +0.000 C 
ATOM      7  C   UNL     1     109.980 130.635 140.333  0.00  0.00    +0.000 C 
ATOM      8  C   UNL     1     109.677 129.894 140.133  0.00  0.00    +0.000 C 
ENDROOT
BRANCH   8  10
ATOM      9  O   UNL     1     108.407 129.371 140.523  0.00  0.00    +0.000 OA
ATOM     10  C   UNL     1     108.870 129.802 139.994  0.00  0.00    +0.000 C 
ENDBRANCH   8  10
BRANCH   5  11
ATOM     11  O   UNL     1     111.497 128.687 140.149  0.00  0.00    +0.000 OA
BRANCH  11  15
ATOM     12  O   UNL     1     110.840 126.643 139.754  0.00  0.00    +0.000 OA
ATOM     13  O   UNL     1     111.063 128.201 141.665  0.00  0.00    +0.000 OA
ATOM     14  O   UNL     1     110.480 126.676 141.907  0.00  0.00    +0.000 OA
ATOM     15  C   UNL     1     111.206 127.925 140.270  0.00  0.00    +0.000 C 
ATOM     16  C   UNL     1     110.988 127.681 141.028  0.00  0.00    +0.000 C 
ATOM     17  C   UNL     1     110.697 126.919 141.149  0.00  0.00    +0.000 C 
ATOM     18  C   UNL     1     111.131 127.406 139.634  0.00  0.00    +0.000 C 
ATOM     19  C   UNL     1     110.623 126.400 140.512  0.00  0.00    +0.000 C 
BRANCH  19  21
ATOM     20  O   UNL     1     109.583 125.433 140.352  0.00  0.00    +0.000 OA
ATOM     21  C   UNL     1     110.332 125.638 140.633  0.00  0.00    +0.000 C 
ENDBRANCH  19  21
BRANCH  18  22
ATOM     22  O   UNL     1     111.349 127.649 138.875  0.00  0.00    +0.000 OA
BRANCH  22  27
ATOM     23  O   UNL     1     111.935 126.450 137.149  0.00  0.00    +0.000 OA
ATOM     24  O   UNL     1     112.775 127.013 139.407  0.00  0.00    +0.000 OA
ATOM     25  O   UNL     1     113.942 126.188 139.210  0.00  0.00    +0.000 OA
ATOM     26  O   UNL     1     114.265 124.766 136.679  0.00  0.00    +0.000 OA
ATOM     27  C   UNL     1     111.782 127.144 138.389  0.00  0.00    +0.000 A 
ATOM     28  C   UNL     1     111.502 126.956 137.635  0.00  0.00    +0.000 A 
ATOM     29  C   UNL     1     112.495 126.825 138.655  0.00  0.00    +0.000 A 
ATOM     30  C   UNL     1     112.928 126.320 138.167  0.00  0.00    +0.000 A 
ATOM     31  C   UNL     1     112.648 126.132 137.414  0.00  0.00    +0.000 A 
ATOM     32  C   UNL     1     113.670 125.994 138.455  0.00  0.00    +0.000 A 
ATOM     33  C   UNL     1     113.090 125.607 136.897  0.00  0.00    +0.000 A 
ATOM     34  C   UNL     1     114.126 125.468 137.953  0.00  0.00    +0.000 A 
ATOM     35  C   UNL     1     113.834 125.272 137.168  0.00  0.00    +0.000 A 
BRANCH  28  38
ATOM     36  O   UNL     1     108.690 126.699 137.190  0.00  0.00    +0.000 OA
ATOM     37  O   UNL     1     108.649 128.228 136.571  0.00  0.00    +0.000 OA
ATOM     38  C   UNL     1     110.788 127.274 137.369  0.00  0.00    +0.000 A 
ATOM     39  C   UNL     1     110.097 126.828 137.413  0.00  0.00    +0.000 A 
ATOM     40  C   UNL     1     110.768 128.039 137.060  0.00  0.00    +0.000 A 
ATOM     41  C   UNL     1     109.383 127.146 137.147  0.00  0.00    +0.000 A 
ATOM     42  C   UNL     1     110.055 128.357 136.794  0.00  0.00    +0.000 A 
ATOM     43  C   UNL     1     109.362 127.910 136.837  0.00  0.00    +0.000 A 
ENDBRANCH  28  38
ENDBRANCH  22  27
ENDBRANCH  18  22
ENDBRANCH  11  15
ENDBRANCH   5  11
BRANCH   4  44
ATOM     44  O   UNL     1     112.102 130.169 140.550  0.00  0.00    +0.000 OA
BRANCH  44  49
ATOM     45  O   UNL     1     112.303 130.587 139.198  0.00  0.00    +0.000 OA
ATOM     46  O   UNL     1     113.734 130.035 140.752  0.00  0.00    +0.000 OA
ATOM     47  O   UNL     1     114.752 130.385 139.501  0.00  0.00    +0.000 OA
ATOM     48  O   UNL     1     114.138 130.871 138.049  0.00  0.00    +0.000 OA
ATOM     49  C   UNL     1     112.611 130.344 139.924  0.00  0.00    +0.000 C 
ATOM     50  C   UNL     1     113.427 130.277 140.026  0.00  0.00    +0.000 C 
ATOM     51  C   UNL     1     113.935 130.453 139.400  0.00  0.00    +0.000 C 
ATOM     52  C   UNL     1     113.629 130.695 138.674  0.00  0.00    +0.000 C 
ATOM     53  C   UNL     1     112.812 130.762 138.573  0.00  0.00    +0.000 C 
BRANCH  53  54
ATOM     54  C   UNL     1     112.506 131.005 137.847  0.00  0.00    +0.000 C 
BRANCH  54  55
ATOM     55  O   UNL     1     111.901 131.566 137.821  0.00  0.00    +0.000 OA
BRANCH  55  57
ATOM     56  O   UNL     1     112.054 132.258 136.580  0.00  0.00    +0.000 OA
ATOM     57  C   UNL     1     111.593 131.807 137.095  0.00  0.00    +0.000 C 
BRANCH  57  58
ATOM     58  C   UNL     1     110.823 131.598 136.884  0.00  0.00    +0.000 C 
ATOM     59  C   UNL     1     110.271 132.184 136.704  0.00  0.00    +0.000 C 
BRANCH  59  62
ATOM     60  O   UNL     1     108.387 131.363 134.718  0.00  0.00    +0.000 OA
ATOM     61  O   UNL     1     107.194 131.342 135.858  0.00  0.00    +0.000 OA
ATOM     62  C   UNL     1     109.502 131.973 136.493  0.00  0.00    +0.000 A 
ATOM     63  C   UNL     1     109.329 131.773 135.711  0.00  0.00    +0.000 A 
ATOM     64  C   UNL     1     108.905 131.963 137.063  0.00  0.00    +0.000 A 
ATOM     65  C   UNL     1     108.560 131.563 135.500  0.00  0.00    +0.000 A 
ATOM     66  C   UNL     1     108.136 131.753 136.851  0.00  0.00    +0.000 A 
ATOM     67  C   UNL     1     107.963 131.553 136.070  0.00  0.00    +0.000 A 
ENDBRANCH  59  62
ENDBRANCH  57  58
ENDBRANCH  55  57
ENDBRANCH  54  55
ENDBRANCH  53  54
ENDBRANCH  44  49
ENDBRANCH   4  44
TORSDOF 14
ENDMDL
MODEL 5
REMARK VINA RESULT:     -10.6      1.772      5.340
REMARK  Name = 44259200
REMARK  14 active torsions:
REMARK  status: ('A' for Active; 'I' for Inactive)
REMARK    1  A    between atoms: O_1  and  C_27
REMARK    2  A    between atoms: O_1  and  C_30
REMARK    3  A    between atoms: O_2  and  C_26
REMARK    4  A    between atoms: O_2  and  C_33
REMARK    5  A    between atoms: O_9  and  C_36
REMARK    6  A    between atoms: O_9  and  C_44
REMARK    7  A    between atoms: O_15  and  C_43
REMARK    8  A    between atoms: O_15  and  C_47
REMARK    9  A    between atoms: C_31  and  C_41
REMARK   10  A    between atoms: C_38  and  C_42
REMARK   11  A    between atoms: C_40  and  C_43
REMARK   12  A    between atoms: C_45  and  C_49
REMARK   13  A    between atoms: C_47  and  C_52
REMARK   14  A    between atoms: C_60  and  C_62
REMARK                            x       y       z     vdW  Elec       q    Type
REMARK                         _______ _______ _______ _____ _____    ______ ____
ROOT
ATOM      1  O   UNL     1     110.038 129.602 138.927  0.00  0.00    +0.000 OA
ATOM      2  O   UNL     1     110.860 131.935 139.008  0.00  0.00    +0.000 OA
ATOM      3  O   UNL     1     109.630 131.458 140.000  0.00  0.00    +0.000 OA
ATOM      4  C   UNL     1     110.926 130.618 138.459  0.00  0.00    +0.000 C 
ATOM      5  C   UNL     1     110.652 129.840 138.432  0.00  0.00    +0.000 C 
ATOM      6  C   UNL     1     110.586 131.157 138.981  0.00  0.00    +0.000 C 
ATOM      7  C   UNL     1     109.971 130.919 139.478  0.00  0.00    +0.000 C 
ATOM      8  C   UNL     1     109.697 130.141 139.451  0.00  0.00    +0.000 C 
ENDROOT
BRANCH   8  10
ATOM      9  O   UNL     1     108.321 129.809 139.643  0.00  0.00    +0.000 OA
ATOM     10  C   UNL     1     109.083 129.903 139.946  0.00  0.00    +0.000 C 
ENDBRANCH   8  10
BRANCH   5  11
ATOM     11  O   UNL     1     110.994 129.301 137.908  0.00  0.00    +0.000 OA
BRANCH  11  15
ATOM     12  O   UNL     1     110.311 127.241 137.669  0.00  0.00    +0.000 OA
ATOM     13  O   UNL     1     109.761 129.503 136.830  0.00  0.00    +0.000 OA
ATOM     14  O   UNL     1     108.896 128.197 136.311  0.00  0.00    +0.000 OA
ATOM     15  C   UNL     1     110.561 128.648 137.649  0.00  0.00    +0.000 C 
ATOM     16  C   UNL     1     109.944 128.749 137.109  0.00  0.00    +0.000 C 
ATOM     17  C   UNL     1     109.511 128.096 136.850  0.00  0.00    +0.000 C 
ATOM     18  C   UNL     1     110.744 127.894 137.929  0.00  0.00    +0.000 C 
ATOM     19  C   UNL     1     109.696 127.342 137.131  0.00  0.00    +0.000 C 
BRANCH  19  21
ATOM     20  O   UNL     1     108.750 126.302 137.390  0.00  0.00    +0.000 OA
ATOM     21  C   UNL     1     109.263 126.689 136.871  0.00  0.00    +0.000 C 
ENDBRANCH  19  21
BRANCH  18  22
ATOM     22  O   UNL     1     111.361 127.793 138.468  0.00  0.00    +0.000 OA
BRANCH  22  27
ATOM     23  O   UNL     1     112.577 126.023 138.856  0.00  0.00    +0.000 OA
ATOM     24  O   UNL     1     112.198 127.673 137.052  0.00  0.00    +0.000 OA
ATOM     25  O   UNL     1     113.167 127.017 136.208  0.00  0.00    +0.000 OA
ATOM     26  O   UNL     1     114.545 124.644 137.210  0.00  0.00    +0.000 OA
ATOM     27  C   UNL     1     111.906 127.183 138.361  0.00  0.00    +0.000 A 
ATOM     28  C   UNL     1     112.032 126.632 138.963  0.00  0.00    +0.000 A 
ATOM     29  C   UNL     1     112.325 127.123 137.653  0.00  0.00    +0.000 A 
ATOM     30  C   UNL     1     112.870 126.513 137.546  0.00  0.00    +0.000 A 
ATOM     31  C   UNL     1     112.996 125.963 138.147  0.00  0.00    +0.000 A 
ATOM     32  C   UNL     1     113.300 126.461 136.804  0.00  0.00    +0.000 A 
ATOM     33  C   UNL     1     113.561 125.323 138.049  0.00  0.00    +0.000 A 
ATOM     34  C   UNL     1     113.869 125.829 136.686  0.00  0.00    +0.000 A 
ATOM     35  C   UNL     1     114.001 125.255 137.314  0.00  0.00    +0.000 A 
BRANCH  28  38
ATOM     36  O   UNL     1     109.866 125.806 140.635  0.00  0.00    +0.000 OA
ATOM     37  O   UNL     1     110.357 126.871 141.796  0.00  0.00    +0.000 OA
ATOM     38  C   UNL     1     111.613 126.692 139.671  0.00  0.00    +0.000 A 
ATOM     39  C   UNL     1     110.950 126.220 139.799  0.00  0.00    +0.000 A 
ATOM     40  C   UNL     1     111.859 127.225 140.252  0.00  0.00    +0.000 A 
ATOM     41  C   UNL     1     110.531 126.279 140.507  0.00  0.00    +0.000 A 
ATOM     42  C   UNL     1     111.440 127.284 140.960  0.00  0.00    +0.000 A 
ATOM     43  C   UNL     1     110.775 126.811 141.088  0.00  0.00    +0.000 A 
ENDBRANCH  28  38
ENDBRANCH  22  27
ENDBRANCH  18  22
ENDBRANCH  11  15
ENDBRANCH   5  11
BRANCH   4  44
ATOM     44  O   UNL     1     111.541 130.856 137.962  0.00  0.00    +0.000 OA
BRANCH  44  49
ATOM     45  O   UNL     1     112.492 130.612 139.000  0.00  0.00    +0.000 OA
ATOM     46  O   UNL     1     112.771 131.041 136.878  0.00  0.00    +0.000 OA
ATOM     47  O   UNL     1     114.338 130.889 137.373  0.00  0.00    +0.000 OA
ATOM     48  O   UNL     1     114.674 130.553 138.953  0.00  0.00    +0.000 OA
ATOM     49  C   UNL     1     112.325 130.780 138.210  0.00  0.00    +0.000 C 
ATOM     50  C   UNL     1     112.939 130.873 137.668  0.00  0.00    +0.000 C 
ATOM     51  C   UNL     1     113.722 130.797 137.916  0.00  0.00    +0.000 C 
ATOM     52  C   UNL     1     113.891 130.629 138.706  0.00  0.00    +0.000 C 
ATOM     53  C   UNL     1     113.275 130.536 139.248  0.00  0.00    +0.000 C 
BRANCH  53  54
ATOM     54  C   UNL     1     113.444 130.368 140.038  0.00  0.00    +0.000 C 
BRANCH  54  55
ATOM     55  O   UNL     1     113.073 130.795 140.639  0.00  0.00    +0.000 OA
BRANCH  55  57
ATOM     56  O   UNL     1     113.946 130.742 141.768  0.00  0.00    +0.000 OA
ATOM     57  C   UNL     1     113.209 130.599 141.428  0.00  0.00    +0.000 C 
BRANCH  57  58
ATOM     58  C   UNL     1     112.605 130.259 141.878  0.00  0.00    +0.000 C 
ATOM     59  C   UNL     1     112.418 130.571 142.618  0.00  0.00    +0.000 C 
BRANCH  59  62
ATOM     60  O   UNL     1     111.570 128.716 144.620  0.00  0.00    +0.000 OA
ATOM     61  O   UNL     1     110.009 129.209 144.416  0.00  0.00    +0.000 OA
ATOM     62  C   UNL     1     111.815 130.231 143.067  0.00  0.00    +0.000 A 
ATOM     63  C   UNL     1     111.994 129.643 143.619  0.00  0.00    +0.000 A 
ATOM     64  C   UNL     1     111.035 130.477 142.965  0.00  0.00    +0.000 A 
ATOM     65  C   UNL     1     111.391 129.303 144.068  0.00  0.00    +0.000 A 
ATOM     66  C   UNL     1     110.433 130.136 143.415  0.00  0.00    +0.000 A 
ATOM     67  C   UNL     1     110.611 129.550 143.966  0.00  0.00    +0.000 A 
ENDBRANCH  59  62
ENDBRANCH  57  58
ENDBRANCH  55  57
ENDBRANCH  54  55
ENDBRANCH  53  54
ENDBRANCH  44  49
ENDBRANCH   4  44
TORSDOF 14
ENDMDL
MODEL 6
REMARK VINA RESULT:     -10.6      1.368      5.340
REMARK  Name = 44259200
REMARK  14 active torsions:
REMARK  status: ('A' for Active; 'I' for Inactive)
REMARK    1  A    between atoms: O_1  and  C_27
REMARK    2  A    between atoms: O_1  and  C_30
REMARK    3  A    between atoms: O_2  and  C_26
REMARK    4  A    between atoms: O_2  and  C_33
REMARK    5  A    between atoms: O_9  and  C_36
REMARK    6  A    between atoms: O_9  and  C_44
REMARK    7  A    between atoms: O_15  and  C_43
REMARK    8  A    between atoms: O_15  and  C_47
REMARK    9  A    between atoms: C_31  and  C_41
REMARK   10  A    between atoms: C_38  and  C_42
REMARK   11  A    between atoms: C_40  and  C_43
REMARK   12  A    between atoms: C_45  and  C_49
REMARK   13  A    between atoms: C_47  and  C_52
REMARK   14  A    between atoms: C_60  and  C_62
REMARK                            x       y       z     vdW  Elec       q    Type
REMARK                         _______ _______ _______ _____ _____    ______ ____
ROOT
ATOM      1  O   UNL     1     110.318 128.023 136.489  0.00  0.00    +0.000 OA
ATOM      2  O   UNL     1     108.378 129.318 135.660  0.00  0.00    +0.000 OA
ATOM      3  O   UNL     1     108.292 127.673 135.755  0.00  0.00    +0.000 OA
ATOM      4  C   UNL     1     109.715 129.277 136.165  0.00  0.00    +0.000 C 
ATOM      5  C   UNL     1     110.361 128.845 136.442  0.00  0.00    +0.000 C 
ATOM      6  C   UNL     1     109.025 128.886 135.936  0.00  0.00    +0.000 C 
ATOM      7  C   UNL     1     108.982 128.063 135.984  0.00  0.00    +0.000 C 
ATOM      8  C   UNL     1     109.628 127.631 136.260  0.00  0.00    +0.000 C 
ENDROOT
BRANCH   8  10
ATOM      9  O   UNL     1     110.104 126.343 135.868  0.00  0.00    +0.000 OA
ATOM     10  C   UNL     1     109.585 126.810 136.307  0.00  0.00    +0.000 C 
ENDBRANCH   8  10
BRANCH   5  11
ATOM     11  O   UNL     1     111.050 129.236 136.671  0.00  0.00    +0.000 OA
BRANCH  11  15
ATOM     12  O   UNL     1     112.991 128.265 136.905  0.00  0.00    +0.000 OA
ATOM     13  O   UNL     1     111.591 129.238 135.111  0.00  0.00    +0.000 OA
ATOM     14  O   UNL     1     113.065 128.591 134.749  0.00  0.00    +0.000 OA
ATOM     15  C   UNL     1     111.787 128.913 136.489  0.00  0.00    +0.000 C 
ATOM     16  C   UNL     1     112.058 128.913 135.709  0.00  0.00    +0.000 C 
ATOM     17  C   UNL     1     112.795 128.590 135.528  0.00  0.00    +0.000 C 
ATOM     18  C   UNL     1     112.254 128.588 137.087  0.00  0.00    +0.000 C 
ATOM     19  C   UNL     1     113.261 128.266 136.126  0.00  0.00    +0.000 C 
BRANCH  19  21
ATOM     20  O   UNL     1     114.163 127.156 136.138  0.00  0.00    +0.000 OA
ATOM     21  C   UNL     1     113.998 127.942 135.945  0.00  0.00    +0.000 C 
ENDBRANCH  19  21
BRANCH  18  22
ATOM     22  O   UNL     1     111.984 128.588 137.867  0.00  0.00    +0.000 OA
BRANCH  22  27
ATOM     23  O   UNL     1     113.134 128.483 139.718  0.00  0.00    +0.000 OA
ATOM     24  O   UNL     1     112.746 130.051 137.844  0.00  0.00    +0.000 OA
ATOM     25  O   UNL     1     113.642 131.018 138.429  0.00  0.00    +0.000 OA
ATOM     26  O   UNL     1     114.955 130.386 140.961  0.00  0.00    +0.000 OA
ATOM     27  C   UNL     1     112.494 128.797 138.480  0.00  0.00    +0.000 A 
ATOM     28  C   UNL     1     112.624 128.274 139.105  0.00  0.00    +0.000 A 
ATOM     29  C   UNL     1     112.876 129.528 138.468  0.00  0.00    +0.000 A 
ATOM     30  C   UNL     1     113.386 129.737 139.082  0.00  0.00    +0.000 A 
ATOM     31  C   UNL     1     113.516 129.214 139.707  0.00  0.00    +0.000 A 
ATOM     32  C   UNL     1     113.778 130.502 139.059  0.00  0.00    +0.000 A 
ATOM     33  C   UNL     1     114.045 129.420 140.352  0.00  0.00    +0.000 A 
ATOM     34  C   UNL     1     114.310 130.725 139.694  0.00  0.00    +0.000 A 
ATOM     35  C   UNL     1     114.445 130.180 140.346  0.00  0.00    +0.000 A 
BRANCH  28  38
ATOM     36  O   UNL     1     110.321 126.692 139.709  0.00  0.00    +0.000 OA
ATOM     37  O   UNL     1     111.099 125.348 139.151  0.00  0.00    +0.000 OA
ATOM     38  C   UNL     1     112.242 127.542 139.117  0.00  0.00    +0.000 A 
ATOM     39  C   UNL     1     111.473 127.483 139.407  0.00  0.00    +0.000 A 
ATOM     40  C   UNL     1     112.632 126.870 138.838  0.00  0.00    +0.000 A 
ATOM     41  C   UNL     1     111.092 126.752 139.418  0.00  0.00    +0.000 A 
ATOM     42  C   UNL     1     112.251 126.139 138.850  0.00  0.00    +0.000 A 
ATOM     43  C   UNL     1     111.480 126.079 139.140  0.00  0.00    +0.000 A 
ENDBRANCH  28  38
ENDBRANCH  22  27
ENDBRANCH  18  22
ENDBRANCH  11  15
ENDBRANCH   5  11
BRANCH   4  44
ATOM     44  O   UNL     1     109.758 130.100 136.118  0.00  0.00    +0.000 OA
BRANCH  44  49
ATOM     45  O   UNL     1     109.273 130.310 137.445  0.00  0.00    +0.000 OA
ATOM     46  O   UNL     1     109.109 131.544 135.651  0.00  0.00    +0.000 OA
ATOM     47  O   UNL     1     108.300 132.477 136.745  0.00  0.00    +0.000 OA
ATOM     48  O   UNL     1     108.140 131.966 138.306  0.00  0.00    +0.000 OA
ATOM     49  C   UNL     1     109.353 130.566 136.665  0.00  0.00    +0.000 C 
ATOM     50  C   UNL     1     109.029 131.288 136.432  0.00  0.00    +0.000 C 
ATOM     51  C   UNL     1     108.625 131.754 136.979  0.00  0.00    +0.000 C 
ATOM     52  C   UNL     1     108.544 131.500 137.759  0.00  0.00    +0.000 C 
ATOM     53  C   UNL     1     108.869 130.777 137.992  0.00  0.00    +0.000 C 
BRANCH  53  54
ATOM     54  C   UNL     1     108.788 130.522 138.773  0.00  0.00    +0.000 C 
BRANCH  54  55
ATOM     55  O   UNL     1     109.454 130.290 139.201  0.00  0.00    +0.000 OA
BRANCH  55  57
ATOM     56  O   UNL     1     108.751 129.648 140.267  0.00  0.00    +0.000 OA
ATOM     57  C   UNL     1     109.385 130.105 140.002  0.00  0.00    +0.000 C 
BRANCH  57  58
ATOM     58  C   UNL     1     109.951 130.377 140.539  0.00  0.00    +0.000 C 
ATOM     59  C   UNL     1     110.070 129.975 141.249  0.00  0.00    +0.000 C 
BRANCH  59  62
ATOM     60  O   UNL     1     111.641 132.112 142.317  0.00  0.00    +0.000 OA
ATOM     61  O   UNL     1     112.331 131.067 143.391  0.00  0.00    +0.000 OA
ATOM     62  C   UNL     1     110.636 130.248 141.785  0.00  0.00    +0.000 A 
ATOM     63  C   UNL     1     110.855 131.044 141.783  0.00  0.00    +0.000 A 
ATOM     64  C   UNL     1     110.981 129.725 142.322  0.00  0.00    +0.000 A 
ATOM     65  C   UNL     1     111.421 131.316 142.319  0.00  0.00    +0.000 A 
ATOM     66  C   UNL     1     111.546 129.999 142.857  0.00  0.00    +0.000 A 
ATOM     67  C   UNL     1     111.766 130.793 142.856  0.00  0.00    +0.000 A 
ENDBRANCH  59  62
ENDBRANCH  57  58
ENDBRANCH  55  57
ENDBRANCH  54  55
ENDBRANCH  53  54
ENDBRANCH  44  49
ENDBRANCH   4  44
TORSDOF 14
ENDMDL
MODEL 7
REMARK VINA RESULT:     -10.5      1.764      4.602
REMARK  Name = 44259200
REMARK  14 active torsions:
REMARK  status: ('A' for Active; 'I' for Inactive)
REMARK    1  A    between atoms: O_1  and  C_27
REMARK    2  A    between atoms: O_1  and  C_30
REMARK    3  A    between atoms: O_2  and  C_26
REMARK    4  A    between atoms: O_2  and  C_33
REMARK    5  A    between atoms: O_9  and  C_36
REMARK    6  A    between atoms: O_9  and  C_44
REMARK    7  A    between atoms: O_15  and  C_43
REMARK    8  A    between atoms: O_15  and  C_47
REMARK    9  A    between atoms: C_31  and  C_41
REMARK   10  A    between atoms: C_38  and  C_42
REMARK   11  A    between atoms: C_40  and  C_43
REMARK   12  A    between atoms: C_45  and  C_49
REMARK   13  A    between atoms: C_47  and  C_52
REMARK   14  A    between atoms: C_60  and  C_62
REMARK                            x       y       z     vdW  Elec       q    Type
REMARK                         _______ _______ _______ _____ _____    ______ ____
ROOT
ATOM      1  O   UNL     1     110.701 127.055 140.201  0.00  0.00    +0.000 OA
ATOM      2  O   UNL     1     110.417 124.782 139.263  0.00  0.00    +0.000 OA
ATOM      3  O   UNL     1     109.476 125.278 140.525  0.00  0.00    +0.000 OA
ATOM      4  C   UNL     1     111.076 126.050 139.257  0.00  0.00    +0.000 C 
ATOM      5  C   UNL     1     111.171 126.808 139.570  0.00  0.00    +0.000 C 
ATOM      6  C   UNL     1     110.512 125.540 139.575  0.00  0.00    +0.000 C 
ATOM      7  C   UNL     1     110.041 125.788 140.207  0.00  0.00    +0.000 C 
ATOM      8  C   UNL     1     110.136 126.546 140.519  0.00  0.00    +0.000 C 
ENDROOT
BRANCH   8  10
ATOM      9  O   UNL     1     110.014 126.990 141.872  0.00  0.00    +0.000 OA
ATOM     10  C   UNL     1     109.666 126.793 141.150  0.00  0.00    +0.000 C 
ENDBRANCH   8  10
BRANCH   5  11
ATOM     11  O   UNL     1     111.737 127.317 139.251  0.00  0.00    +0.000 OA
BRANCH  11  15
ATOM     12  O   UNL     1     112.434 129.132 140.244  0.00  0.00    +0.000 OA
ATOM     13  O   UNL     1     112.908 126.703 140.238  0.00  0.00    +0.000 OA
ATOM     14  O   UNL     1     113.763 127.709 141.228  0.00  0.00    +0.000 OA
ATOM     15  C   UNL     1     112.164 127.820 139.746  0.00  0.00    +0.000 C 
ATOM     16  C   UNL     1     112.751 127.513 140.240  0.00  0.00    +0.000 C 
ATOM     17  C   UNL     1     113.178 128.015 140.735  0.00  0.00    +0.000 C 
ATOM     18  C   UNL     1     112.007 128.629 139.748  0.00  0.00    +0.000 C 
ATOM     19  C   UNL     1     113.019 128.825 140.736  0.00  0.00    +0.000 C 
BRANCH  19  21
ATOM     20  O   UNL     1     113.919 129.923 140.908  0.00  0.00    +0.000 OA
ATOM     21  C   UNL     1     113.447 129.328 141.231  0.00  0.00    +0.000 C 
ENDBRANCH  19  21
BRANCH  18  22
ATOM     22  O   UNL     1     111.420 128.936 139.255  0.00  0.00    +0.000 OA
BRANCH  22  27
ATOM     23  O   UNL     1     111.268 130.951 138.429  0.00  0.00    +0.000 OA
ATOM     24  O   UNL     1     112.656 128.920 138.161  0.00  0.00    +0.000 OA
ATOM     25  O   UNL     1     113.453 129.563 137.145  0.00  0.00    +0.000 OA
ATOM     26  O   UNL     1     112.832 132.314 136.385  0.00  0.00    +0.000 OA
ATOM     27  C   UNL     1     111.576 129.605 138.797  0.00  0.00    +0.000 A 
ATOM     28  C   UNL     1     111.113 130.282 138.886  0.00  0.00    +0.000 A 
ATOM     29  C   UNL     1     112.194 129.596 138.250  0.00  0.00    +0.000 A 
ATOM     30  C   UNL     1     112.348 130.266 137.793  0.00  0.00    +0.000 A 
ATOM     31  C   UNL     1     111.886 130.943 137.882  0.00  0.00    +0.000 A 
ATOM     32  C   UNL     1     112.995 130.245 137.227  0.00  0.00    +0.000 A 
ATOM     33  C   UNL     1     112.038 131.646 137.412  0.00  0.00    +0.000 A 
ATOM     34  C   UNL     1     113.162 130.938 136.748  0.00  0.00    +0.000 A 
ATOM     35  C   UNL     1     112.679 131.644 136.841  0.00  0.00    +0.000 A 
BRANCH  28  38
ATOM     36  O   UNL     1     108.415 129.646 139.582  0.00  0.00    +0.000 OA
ATOM     37  O   UNL     1     108.641 130.316 141.073  0.00  0.00    +0.000 OA
ATOM     38  C   UNL     1     110.495 130.291 139.433  0.00  0.00    +0.000 A 
ATOM     39  C   UNL     1     109.764 129.964 139.234  0.00  0.00    +0.000 A 
ATOM     40  C   UNL     1     110.609 130.626 140.178  0.00  0.00    +0.000 A 
ATOM     41  C   UNL     1     109.147 129.973 139.781  0.00  0.00    +0.000 A 
ATOM     42  C   UNL     1     109.991 130.634 140.725  0.00  0.00    +0.000 A 
ATOM     43  C   UNL     1     109.259 130.307 140.526  0.00  0.00    +0.000 A 
ENDBRANCH  28  38
ENDBRANCH  22  27
ENDBRANCH  18  22
ENDBRANCH  11  15
ENDBRANCH   5  11
BRANCH   4  44
ATOM     44  O   UNL     1     111.547 125.802 138.626  0.00  0.00    +0.000 OA
BRANCH  44  49
ATOM     45  O   UNL     1     110.586 126.207 137.649  0.00  0.00    +0.000 OA
ATOM     46  O   UNL     1     112.162 124.698 137.565  0.00  0.00    +0.000 OA
ATOM     47  O   UNL     1     111.508 124.551 136.057  0.00  0.00    +0.000 OA
ATOM     48  O   UNL     1     110.240 125.508 135.610  0.00  0.00    +0.000 OA
ATOM     49  C   UNL     1     111.220 125.728 137.872  0.00  0.00    +0.000 C 
ATOM     50  C   UNL     1     111.528 125.177 137.342  0.00  0.00    +0.000 C 
ATOM     51  C   UNL     1     111.201 125.103 136.588  0.00  0.00    +0.000 C 
ATOM     52  C   UNL     1     110.567 125.581 136.364  0.00  0.00    +0.000 C 
ATOM     53  C   UNL     1     110.260 126.134 136.895  0.00  0.00    +0.000 C 
BRANCH  53  54
ATOM     54  C   UNL     1     109.626 126.612 136.671  0.00  0.00    +0.000 C 
BRANCH  54  55
ATOM     55  O   UNL     1     109.736 127.425 136.576  0.00  0.00    +0.000 OA
BRANCH  55  57
ATOM     56  O   UNL     1     108.341 127.582 136.310  0.00  0.00    +0.000 OA
ATOM     57  C   UNL     1     109.093 127.909 136.397  0.00  0.00    +0.000 C 
BRANCH  57  58
ATOM     58  C   UNL     1     109.203 128.722 136.305  0.00  0.00    +0.000 C 
ATOM     59  C   UNL     1     108.820 129.123 135.694  0.00  0.00    +0.000 C 
BRANCH  59  62
ATOM     60  O   UNL     1     108.260 131.803 136.515  0.00  0.00    +0.000 OA
ATOM     61  O   UNL     1     109.258 132.374 135.332  0.00  0.00    +0.000 OA
ATOM     62  C   UNL     1     108.930 129.936 135.603  0.00  0.00    +0.000 A 
ATOM     63  C   UNL     1     108.540 130.463 136.105  0.00  0.00    +0.000 A 
ATOM     64  C   UNL     1     109.429 130.221 135.011  0.00  0.00    +0.000 A 
ATOM     65  C   UNL     1     108.650 131.275 136.014  0.00  0.00    +0.000 A 
ATOM     66  C   UNL     1     109.538 131.034 134.921  0.00  0.00    +0.000 A 
ATOM     67  C   UNL     1     109.149 131.561 135.422  0.00  0.00    +0.000 A 
ENDBRANCH  59  62
ENDBRANCH  57  58
ENDBRANCH  55  57
ENDBRANCH  54  55
ENDBRANCH  53  54
ENDBRANCH  44  49
ENDBRANCH   4  44
TORSDOF 14
ENDMDL
MODEL 8
REMARK VINA RESULT:     -10.5      1.893      4.689
REMARK  Name = 44259200
REMARK  14 active torsions:
REMARK  status: ('A' for Active; 'I' for Inactive)
REMARK    1  A    between atoms: O_1  and  C_27
REMARK    2  A    between atoms: O_1  and  C_30
REMARK    3  A    between atoms: O_2  and  C_26
REMARK    4  A    between atoms: O_2  and  C_33
REMARK    5  A    between atoms: O_9  and  C_36
REMARK    6  A    between atoms: O_9  and  C_44
REMARK    7  A    between atoms: O_15  and  C_43
REMARK    8  A    between atoms: O_15  and  C_47
REMARK    9  A    between atoms: C_31  and  C_41
REMARK   10  A    between atoms: C_38  and  C_42
REMARK   11  A    between atoms: C_40  and  C_43
REMARK   12  A    between atoms: C_45  and  C_49
REMARK   13  A    between atoms: C_47  and  C_52
REMARK   14  A    between atoms: C_60  and  C_62
REMARK                            x       y       z     vdW  Elec       q    Type
REMARK                         _______ _______ _______ _____ _____    ______ ____
ROOT
ATOM      1  O   UNL     1     109.921 129.936 139.250  0.00  0.00    +0.000 OA
ATOM      2  O   UNL     1     108.443 129.203 141.095  0.00  0.00    +0.000 OA
ATOM      3  O   UNL     1     108.939 130.775 141.010  0.00  0.00    +0.000 OA
ATOM      4  C   UNL     1     109.180 128.907 139.907  0.00  0.00    +0.000 C 
ATOM      5  C   UNL     1     109.673 129.151 139.292  0.00  0.00    +0.000 C 
ATOM      6  C   UNL     1     108.935 129.447 140.480  0.00  0.00    +0.000 C 
ATOM      7  C   UNL     1     109.184 130.234 140.437  0.00  0.00    +0.000 C 
ATOM      8  C   UNL     1     109.676 130.478 139.822  0.00  0.00    +0.000 C 
ENDROOT
BRANCH   8  10
ATOM      9  O   UNL     1     110.713 131.455 139.927  0.00  0.00    +0.000 OA
ATOM     10  C   UNL     1     109.924 131.263 139.780  0.00  0.00    +0.000 C 
ENDBRANCH   8  10
BRANCH   5  11
ATOM     11  O   UNL     1     109.917 128.609 138.720  0.00  0.00    +0.000 OA
BRANCH  11  15
ATOM     12  O   UNL     1     111.142 129.081 136.976  0.00  0.00    +0.000 OA
ATOM     13  O   UNL     1     108.783 129.248 137.706  0.00  0.00    +0.000 OA
ATOM     14  O   UNL     1     109.223 129.776 136.205  0.00  0.00    +0.000 OA
ATOM     15  C   UNL     1     110.136 128.873 137.970  0.00  0.00    +0.000 C 
ATOM     16  C   UNL     1     109.569 129.193 137.462  0.00  0.00    +0.000 C 
ATOM     17  C   UNL     1     109.789 129.457 136.712  0.00  0.00    +0.000 C 
ATOM     18  C   UNL     1     110.922 128.817 137.726  0.00  0.00    +0.000 C 
ATOM     19  C   UNL     1     110.576 129.400 136.469  0.00  0.00    +0.000 C 
BRANCH  19  21
ATOM     20  O   UNL     1     111.385 130.237 135.639  0.00  0.00    +0.000 OA
ATOM     21  C   UNL     1     110.796 129.664 135.719  0.00  0.00    +0.000 C 
ENDBRANCH  19  21
BRANCH  18  22
ATOM     22  O   UNL     1     111.490 128.497 138.234  0.00  0.00    +0.000 OA
BRANCH  22  27
ATOM     23  O   UNL     1     113.416 127.584 137.765  0.00  0.00    +0.000 OA
ATOM     24  O   UNL     1     111.005 127.142 137.426  0.00  0.00    +0.000 OA
ATOM     25  O   UNL     1     111.299 125.919 136.720  0.00  0.00    +0.000 OA
ATOM     26  O   UNL     1     114.086 125.128 136.352  0.00  0.00    +0.000 OA
ATOM     27  C   UNL     1     112.050 127.967 137.943  0.00  0.00    +0.000 A 
ATOM     28  C   UNL     1     112.855 128.115 138.056  0.00  0.00    +0.000 A 
ATOM     29  C   UNL     1     111.808 127.290 137.539  0.00  0.00    +0.000 A 
ATOM     30  C   UNL     1     112.370 126.760 137.248  0.00  0.00    +0.000 A 
ATOM     31  C   UNL     1     113.173 126.907 137.361  0.00  0.00    +0.000 A 
ATOM     32  C   UNL     1     112.105 126.058 136.829  0.00  0.00    +0.000 A 
ATOM     33  C   UNL     1     113.768 126.363 137.063  0.00  0.00    +0.000 A 
ATOM     34  C   UNL     1     112.684 125.502 136.524  0.00  0.00    +0.000 A 
ATOM     35  C   UNL     1     113.523 125.656 136.641  0.00  0.00    +0.000 A 
BRANCH  28  38
ATOM     36  O   UNL     1     113.841 130.797 138.022  0.00  0.00    +0.000 OA
ATOM     37  O   UNL     1     113.824 130.824 139.672  0.00  0.00    +0.000 OA
ATOM     38  C   UNL     1     113.097 128.792 138.460  0.00  0.00    +0.000 A 
ATOM     39  C   UNL     1     113.348 129.455 138.039  0.00  0.00    +0.000 A 
ATOM     40  C   UNL     1     113.089 128.805 139.285  0.00  0.00    +0.000 A 
ATOM     41  C   UNL     1     113.590 130.132 138.443  0.00  0.00    +0.000 A 
ATOM     42  C   UNL     1     113.331 129.482 139.689  0.00  0.00    +0.000 A 
ATOM     43  C   UNL     1     113.582 130.146 139.268  0.00  0.00    +0.000 A 
ENDBRANCH  28  38
ENDBRANCH  22  27
ENDBRANCH  18  22
ENDBRANCH  11  15
ENDBRANCH   5  11
BRANCH   4  44
ATOM     44  O   UNL     1     108.931 128.120 139.950  0.00  0.00    +0.000 OA
BRANCH  44  49
ATOM     45  O   UNL     1     109.984 127.827 140.870  0.00  0.00    +0.000 OA
ATOM     46  O   UNL     1     108.589 126.511 139.826  0.00  0.00    +0.000 OA
ATOM     47  O   UNL     1     109.472 125.412 140.685  0.00  0.00    +0.000 OA
ATOM     48  O   UNL     1     110.695 125.922 141.666  0.00  0.00    +0.000 OA
ATOM     49  C   UNL     1     109.372 127.571 140.379  0.00  0.00    +0.000 C 
ATOM     50  C   UNL     1     109.201 126.767 140.317  0.00  0.00    +0.000 C 
ATOM     51  C   UNL     1     109.642 126.217 140.746  0.00  0.00    +0.000 C 
ATOM     52  C   UNL     1     110.254 126.472 141.237  0.00  0.00    +0.000 C 
ATOM     53  C   UNL     1     110.425 127.277 141.299  0.00  0.00    +0.000 C 
BRANCH  53  54
ATOM     54  C   UNL     1     111.037 127.532 141.790  0.00  0.00    +0.000 C 
BRANCH  54  55
ATOM     55  O   UNL     1     110.873 128.025 142.432  0.00  0.00    +0.000 OA
BRANCH  55  57
ATOM     56  O   UNL     1     112.018 127.984 143.285  0.00  0.00    +0.000 OA
ATOM     57  C   UNL     1     111.488 128.413 142.821  0.00  0.00    +0.000 C 
BRANCH  57  58
ATOM     58  C   UNL     1     111.572 129.231 142.745  0.00  0.00    +0.000 C 
ATOM     59  C   UNL     1     111.614 129.704 143.419  0.00  0.00    +0.000 C 
BRANCH  59  62
ATOM     60  O   UNL     1     110.647 132.348 143.916  0.00  0.00    +0.000 OA
ATOM     61  O   UNL     1     111.948 132.973 143.117  0.00  0.00    +0.000 OA
ATOM     62  C   UNL     1     111.698 130.521 143.344  0.00  0.00    +0.000 A 
ATOM     63  C   UNL     1     111.130 131.026 143.668  0.00  0.00    +0.000 A 
ATOM     64  C   UNL     1     112.348 130.834 142.944  0.00  0.00    +0.000 A 
ATOM     65  C   UNL     1     111.215 131.843 143.592  0.00  0.00    +0.000 A 
ATOM     66  C   UNL     1     112.432 131.652 142.869  0.00  0.00    +0.000 A 
ATOM     67  C   UNL     1     111.865 132.156 143.192  0.00  0.00    +0.000 A 
ENDBRANCH  59  62
ENDBRANCH  57  58
ENDBRANCH  55  57
ENDBRANCH  54  55
ENDBRANCH  53  54
ENDBRANCH  44  49
ENDBRANCH   4  44
TORSDOF 14
ENDMDL
MODEL 9
REMARK VINA RESULT:     -10.3      1.464      4.253
REMARK  Name = 44259200
REMARK  14 active torsions:
REMARK  status: ('A' for Active; 'I' for Inactive)
REMARK    1  A    between atoms: O_1  and  C_27
REMARK    2  A    between atoms: O_1  and  C_30
REMARK    3  A    between atoms: O_2  and  C_26
REMARK    4  A    between atoms: O_2  and  C_33
REMARK    5  A    between atoms: O_9  and  C_36
REMARK    6  A    between atoms: O_9  and  C_44
REMARK    7  A    between atoms: O_15  and  C_43
REMARK    8  A    between atoms: O_15  and  C_47
REMARK    9  A    between atoms: C_31  and  C_41
REMARK   10  A    between atoms: C_38  and  C_42
REMARK   11  A    between atoms: C_40  and  C_43
REMARK   12  A    between atoms: C_45  and  C_49
REMARK   13  A    between atoms: C_47  and  C_52
REMARK   14  A    between atoms: C_60  and  C_62
REMARK                            x       y       z     vdW  Elec       q    Type
REMARK                         _______ _______ _______ _____ _____    ______ ____
ROOT
ATOM      1  O   UNL     1     112.953 130.379 139.211  0.00  0.00    +0.000 OA
ATOM      2  O   UNL     1     112.879 130.037 141.661  0.00  0.00    +0.000 OA
ATOM      3  O   UNL     1     114.230 130.671 140.957  0.00  0.00    +0.000 OA
ATOM      4  C   UNL     1     112.253 129.948 140.379  0.00  0.00    +0.000 C 
ATOM      5  C   UNL     1     112.278 130.062 139.563  0.00  0.00    +0.000 C 
ATOM      6  C   UNL     1     112.904 130.151 140.844  0.00  0.00    +0.000 C 
ATOM      7  C   UNL     1     113.580 130.468 140.492  0.00  0.00    +0.000 C 
ATOM      8  C   UNL     1     113.604 130.582 139.675  0.00  0.00    +0.000 C 
ENDROOT
BRANCH   8  10
ATOM      9  O   UNL     1     114.832 130.400 138.969  0.00  0.00    +0.000 OA
ATOM     10  C   UNL     1     114.279 130.899 139.324  0.00  0.00    +0.000 C 
ENDBRANCH   8  10
BRANCH   5  11
ATOM     11  O   UNL     1     111.627 129.859 139.099  0.00  0.00    +0.000 OA
BRANCH  11  15
ATOM     12  O   UNL     1     111.257 130.592 137.076  0.00  0.00    +0.000 OA
ATOM     13  O   UNL     1     110.971 131.340 139.417  0.00  0.00    +0.000 OA
ATOM     14  O   UNL     1     110.507 132.321 138.175  0.00  0.00    +0.000 OA
ATOM     15  C   UNL     1     111.394 130.350 138.477  0.00  0.00    +0.000 C 
ATOM     16  C   UNL     1     111.066 131.091 138.637  0.00  0.00    +0.000 C 
ATOM     17  C   UNL     1     110.834 131.581 138.015  0.00  0.00    +0.000 C 
ATOM     18  C   UNL     1     111.490 130.101 137.697  0.00  0.00    +0.000 C 
ATOM     19  C   UNL     1     110.930 131.331 137.235  0.00  0.00    +0.000 C 
BRANCH  19  21
ATOM     20  O   UNL     1     110.057 131.610 136.137  0.00  0.00    +0.000 OA
ATOM     21  C   UNL     1     110.698 131.822 136.614  0.00  0.00    +0.000 C 
ENDBRANCH  19  21
BRANCH  18  22
ATOM     22  O   UNL     1     111.818 129.360 137.537  0.00  0.00    +0.000 OA
BRANCH  22  27
ATOM     23  O   UNL     1     111.468 128.089 135.798  0.00  0.00    +0.000 OA
ATOM     24  O   UNL     1     110.280 128.841 137.835  0.00  0.00    +0.000 OA
ATOM     25  O   UNL     1     109.114 128.072 137.473  0.00  0.00    +0.000 OA
ATOM     26  O   UNL     1     109.151 126.513 135.003  0.00  0.00    +0.000 OA
ATOM     27  C   UNL     1     111.445 128.850 137.008  0.00  0.00    +0.000 A 
ATOM     28  C   UNL     1     111.841 128.599 136.328  0.00  0.00    +0.000 A 
ATOM     29  C   UNL     1     110.676 128.590 137.156  0.00  0.00    +0.000 A 
ATOM     30  C   UNL     1     110.303 128.080 136.625  0.00  0.00    +0.000 A 
ATOM     31  C   UNL     1     110.699 127.829 135.947  0.00  0.00    +0.000 A 
ATOM     32  C   UNL     1     109.502 127.816 136.791  0.00  0.00    +0.000 A 
ATOM     33  C   UNL     1     110.322 127.298 135.387  0.00  0.00    +0.000 A 
ATOM     34  C   UNL     1     109.109 127.285 136.243  0.00  0.00    +0.000 A 
ATOM     35  C   UNL     1     109.521 127.024 135.536  0.00  0.00    +0.000 A 
BRANCH  28  38
ATOM     36  O   UNL     1     113.648 130.302 134.912  0.00  0.00    +0.000 OA
ATOM     37  O   UNL     1     114.916 129.638 135.733  0.00  0.00    +0.000 OA
ATOM     38  C   UNL     1     112.610 128.859 136.179  0.00  0.00    +0.000 A 
ATOM     39  C   UNL     1     112.744 129.450 135.621  0.00  0.00    +0.000 A 
ATOM     40  C   UNL     1     113.244 128.527 136.590  0.00  0.00    +0.000 A 
ATOM     41  C   UNL     1     113.513 129.710 135.472  0.00  0.00    +0.000 A 
ATOM     42  C   UNL     1     114.012 128.787 136.442  0.00  0.00    +0.000 A 
ATOM     43  C   UNL     1     114.147 129.379 135.882  0.00  0.00    +0.000 A 
ENDBRANCH  28  38
ENDBRANCH  22  27
ENDBRANCH  18  22
ENDBRANCH  11  15
ENDBRANCH   5  11
BRANCH   4  44
ATOM     44  O   UNL     1     111.578 129.631 140.732  0.00  0.00    +0.000 OA
BRANCH  44  49
ATOM     45  O   UNL     1     112.072 128.297 140.604  0.00  0.00    +0.000 OA
ATOM     46  O   UNL     1     110.546 129.136 141.921  0.00  0.00    +0.000 OA
ATOM     47  O   UNL     1     110.524 127.554 142.388  0.00  0.00    +0.000 OA
ATOM     48  O   UNL     1     111.533 126.466 141.665  0.00  0.00    +0.000 OA
ATOM     49  C   UNL     1     111.566 128.840 140.965  0.00  0.00    +0.000 C 
ATOM     50  C   UNL     1     111.051 128.593 141.559  0.00  0.00    +0.000 C 
ATOM     51  C   UNL     1     111.040 127.802 141.793  0.00  0.00    +0.000 C 
ATOM     52  C   UNL     1     111.544 127.258 141.432  0.00  0.00    +0.000 C 
ATOM     53  C   UNL     1     112.061 127.506 140.837  0.00  0.00    +0.000 C 
BRANCH  53  54
ATOM     54  C   UNL     1     112.565 126.961 140.476  0.00  0.00    +0.000 C 
BRANCH  54  55
ATOM     55  O   UNL     1     112.627 126.940 139.653  0.00  0.00    +0.000 OA
BRANCH  55  57
ATOM     56  O   UNL     1     113.933 126.409 139.418  0.00  0.00    +0.000 OA
ATOM     57  C   UNL     1     113.118 126.384 139.292  0.00  0.00    +0.000 C 
BRANCH  57  58
ATOM     58  C   UNL     1     112.793 125.803 138.804  0.00  0.00    +0.000 C 
ATOM     59  C   UNL     1     113.062 125.720 138.028  0.00  0.00    +0.000 C 
BRANCH  59  62
ATOM     60  O   UNL     1     113.352 123.817 135.915  0.00  0.00    +0.000 OA
ATOM     61  O   UNL     1     111.765 123.396 136.076  0.00  0.00    +0.000 OA
ATOM     62  C   UNL     1     112.737 125.139 137.541  0.00  0.00    +0.000 A 
ATOM     63  C   UNL     1     113.207 124.768 136.972  0.00  0.00    +0.000 A 
ATOM     64  C   UNL     1     111.943 124.928 137.621  0.00  0.00    +0.000 A 
ATOM     65  C   UNL     1     112.882 124.188 136.484  0.00  0.00    +0.000 A 
ATOM     66  C   UNL     1     111.620 124.347 137.133  0.00  0.00    +0.000 A 
ATOM     67  C   UNL     1     112.089 123.977 136.565  0.00  0.00    +0.000 A 
ENDBRANCH  59  62
ENDBRANCH  57  58
ENDBRANCH  55  57
ENDBRANCH  54  55
ENDBRANCH  53  54
ENDBRANCH  44  49
ENDBRANCH   4  44
TORSDOF 14
ENDMDL
MODEL 10
REMARK VINA RESULT:     -10.3      1.992      4.919
REMARK  Name = 44259200
REMARK  14 active torsions:
REMARK  status: ('A' for Active; 'I' for Inactive)
REMARK    1  A    between atoms: O_1  and  C_27
REMARK    2  A    between atoms: O_1  and  C_30
REMARK    3  A    between atoms: O_2  and  C_26
REMARK    4  A    between atoms: O_2  and  C_33
REMARK    5  A    between atoms: O_9  and  C_36
REMARK    6  A    between atoms: O_9  and  C_44
REMARK    7  A    between atoms: O_15  and  C_43
REMARK    8  A    between atoms: O_15  and  C_47
REMARK    9  A    between atoms: C_31  and  C_41
REMARK   10  A    between atoms: C_38  and  C_42
REMARK   11  A    between atoms: C_40  and  C_43
REMARK   12  A    between atoms: C_45  and  C_49
REMARK   13  A    between atoms: C_47  and  C_52
REMARK   14  A    between atoms: C_60  and  C_62
REMARK                            x       y       z     vdW  Elec       q    Type
REMARK                         _______ _______ _______ _____ _____    ______ ____
ROOT
ATOM      1  O   UNL     1     111.939 128.056 136.571  0.00  0.00    +0.000 OA
ATOM      2  O   UNL     1     111.052 129.839 135.102  0.00  0.00    +0.000 OA
ATOM      3  O   UNL     1     112.674 129.734 135.385  0.00  0.00    +0.000 OA
ATOM      4  C   UNL     1     110.833 128.702 135.940  0.00  0.00    +0.000 C 
ATOM      5  C   UNL     1     111.129 128.108 136.430  0.00  0.00    +0.000 C 
ATOM      6  C   UNL     1     111.348 129.244 135.592  0.00  0.00    +0.000 C 
ATOM      7  C   UNL     1     112.159 129.192 135.733  0.00  0.00    +0.000 C 
ATOM      8  C   UNL     1     112.455 128.598 136.223  0.00  0.00    +0.000 C 
ENDROOT
BRANCH   8  10
ATOM      9  O   UNL     1     113.681 127.870 136.138  0.00  0.00    +0.000 OA
ATOM     10  C   UNL     1     113.266 128.546 136.364  0.00  0.00    +0.000 C 
ENDBRANCH   8  10
BRANCH   5  11
ATOM     11  O   UNL     1     110.613 127.566 136.778  0.00  0.00    +0.000 OA
BRANCH  11  15
ATOM     12  O   UNL     1     111.252 125.692 137.699  0.00  0.00    +0.000 OA
ATOM     13  O   UNL     1     110.701 126.583 135.456  0.00  0.00    +0.000 OA
ATOM     14  O   UNL     1     111.156 125.006 135.629  0.00  0.00    +0.000 OA
ATOM     15  C   UNL     1     110.841 126.778 136.865  0.00  0.00    +0.000 C 
ATOM     16  C   UNL     1     110.884 126.286 136.203  0.00  0.00    +0.000 C 
ATOM     17  C   UNL     1     111.112 125.497 136.290  0.00  0.00    +0.000 C 
ATOM     18  C   UNL     1     111.025 126.481 137.612  0.00  0.00    +0.000 C 
ATOM     19  C   UNL     1     111.296 125.201 137.038  0.00  0.00    +0.000 C 
BRANCH  19  21
ATOM     20  O   UNL     1     112.302 124.228 137.326  0.00  0.00    +0.000 OA
ATOM     21  C   UNL     1     111.523 124.413 137.124  0.00  0.00    +0.000 C 
ENDBRANCH  19  21
BRANCH  18  22
ATOM     22  O   UNL     1     110.981 126.973 138.274  0.00  0.00    +0.000 OA
BRANCH  22  27
ATOM     23  O   UNL     1     110.665 126.430 140.364  0.00  0.00    +0.000 OA
ATOM     24  O   UNL     1     109.415 126.454 138.228  0.00  0.00    +0.000 OA
ATOM     25  O   UNL     1     108.241 125.922 138.875  0.00  0.00    +0.000 OA
ATOM     26  O   UNL     1     108.333 125.355 141.739  0.00  0.00    +0.000 OA
ATOM     27  C   UNL     1     110.614 126.705 138.962  0.00  0.00    +0.000 A 
ATOM     28  C   UNL     1     111.031 126.697 139.675  0.00  0.00    +0.000 A 
ATOM     29  C   UNL     1     109.831 126.446 138.940  0.00  0.00    +0.000 A 
ATOM     30  C   UNL     1     109.466 126.178 139.629  0.00  0.00    +0.000 A 
ATOM     31  C   UNL     1     109.882 126.170 140.341  0.00  0.00    +0.000 A 
ATOM     32  C   UNL     1     108.649 125.910 139.593  0.00  0.00    +0.000 A 
ATOM     33  C   UNL     1     109.512 125.894 141.066  0.00  0.00    +0.000 A 
ATOM     34  C   UNL     1     108.263 125.631 140.306  0.00  0.00    +0.000 A 
ATOM     35  C   UNL     1     108.697 125.622 141.049  0.00  0.00    +0.000 A 
BRANCH  28  38
ATOM     36  O   UNL     1     112.928 128.828 139.845  0.00  0.00    +0.000 OA
ATOM     37  O   UNL     1     114.162 127.736 139.766  0.00  0.00    +0.000 OA
ATOM     38  C   UNL     1     111.814 126.957 139.698  0.00  0.00    +0.000 A 
ATOM     39  C   UNL     1     111.979 127.762 139.760  0.00  0.00    +0.000 A 
ATOM     40  C   UNL     1     112.431 126.410 139.658  0.00  0.00    +0.000 A 
ATOM     41  C   UNL     1     112.762 128.022 139.783  0.00  0.00    +0.000 A 
ATOM     42  C   UNL     1     113.214 126.670 139.681  0.00  0.00    +0.000 A 
ATOM     43  C   UNL     1     113.380 127.476 139.743  0.00  0.00    +0.000 A 
ENDBRANCH  28  38
ENDBRANCH  22  27
ENDBRANCH  18  22
ENDBRANCH  11  15
ENDBRANCH   5  11
BRANCH   4  44
ATOM     44  O   UNL     1     110.021 128.754 135.799  0.00  0.00    +0.000 OA
BRANCH  44  49
ATOM     45  O   UNL     1     109.777 129.618 136.910  0.00  0.00    +0.000 OA
ATOM     46  O   UNL     1     108.738 129.417 135.000  0.00  0.00    +0.000 OA
ATOM     47  O   UNL     1     107.852 130.613 135.712  0.00  0.00    +0.000 OA
ATOM     48  O   UNL     1     108.248 131.146 137.222  0.00  0.00    +0.000 OA
ATOM     49  C   UNL     1     109.578 129.352 136.155  0.00  0.00    +0.000 C 
ATOM     50  C   UNL     1     108.937 129.683 135.755  0.00  0.00    +0.000 C 
ATOM     51  C   UNL     1     108.494 130.281 136.111  0.00  0.00    +0.000 C 
ATOM     52  C   UNL     1     108.691 130.548 136.867  0.00  0.00    +0.000 C 
ATOM     53  C   UNL     1     109.333 130.216 137.266  0.00  0.00    +0.000 C 
BRANCH  53  54
ATOM     54  C   UNL     1     109.531 130.483 138.021  0.00  0.00    +0.000 C 
BRANCH  54  55
ATOM     55  O   UNL     1     109.531 129.957 138.657  0.00  0.00    +0.000 OA
BRANCH  55  57
ATOM     56  O   UNL     1     110.149 130.901 139.534  0.00  0.00    +0.000 OA
ATOM     57  C   UNL     1     109.678 130.233 139.420  0.00  0.00    +0.000 C 
BRANCH  57  58
ATOM     58  C   UNL     1     109.354 129.841 140.071  0.00  0.00    +0.000 C 
ATOM     59  C   UNL     1     109.588 130.047 140.834  0.00  0.00    +0.000 C 
BRANCH  59  62
ATOM     60  O   UNL     1     109.920 128.742 143.355  0.00  0.00    +0.000 OA
ATOM     61  O   UNL     1     108.294 128.477 143.433  0.00  0.00    +0.000 OA
ATOM     62  C   UNL     1     109.264 129.654 141.484  0.00  0.00    +0.000 A 
ATOM     63  C   UNL     1     109.754 129.394 142.095  0.00  0.00    +0.000 A 
ATOM     64  C   UNL     1     108.450 129.522 141.522  0.00  0.00    +0.000 A 
ATOM     65  C   UNL     1     109.430 129.002 142.744  0.00  0.00    +0.000 A 
ATOM     66  C   UNL     1     108.127 129.130 142.172  0.00  0.00    +0.000 A 
ATOM     67  C   UNL     1     108.617 128.870 142.783  0.00  0.00    +0.000 A 
ENDBRANCH  59  62
ENDBRANCH  57  58
ENDBRANCH  55  57
ENDBRANCH  54  55
ENDBRANCH  53  54
ENDBRANCH  44  49
ENDBRANCH   4  44
TORSDOF 14
ENDMDL
