MODEL 1
REMARK VINA RESULT:      -8.4      0.000      0.000
REMARK  Name = 10495449
REMARK  3 active torsions:
REMARK  status: ('A' for Active; 'I' for Inactive)
REMARK    1  A    between atoms: O_2  and  C_15
REMARK    2  A    between atoms: C_6  and  C_12
REMARK    3  A    between atoms: C_14  and  C_17
REMARK                            x       y       z     vdW  Elec       q    Type
REMARK                         _______ _______ _______ _____ _____    ______ ____
ROOT
ATOM      1  O   UNL     1     104.641 124.430 147.508  0.00  0.00    +0.000 OA
ATOM      2  O   UNL     1     107.098 125.061 146.113  0.00  0.00    +0.000 OA
ATOM      3  O   UNL     1     105.918 124.746 145.344  0.00  0.00    +0.000 OA
ATOM      4  C   UNL     1     104.235 124.317 146.759  0.00  0.00    +0.000 C 
ATOM      5  C   UNL     1     104.666 124.424 146.023  0.00  0.00    +0.000 C 
ATOM      6  C   UNL     1     105.886 124.750 146.805  0.00  0.00    +0.000 A 
ATOM      7  C   UNL     1     105.472 124.648 147.511  0.00  0.00    +0.000 A 
ATOM      8  C   UNL     1     105.497 124.642 146.046  0.00  0.00    +0.000 C 
ATOM      9  C   UNL     1     105.857 124.755 148.233  0.00  0.00    +0.000 A 
ATOM     10  C   UNL     1     106.684 124.959 146.820  0.00  0.00    +0.000 A 
ATOM     11  C   UNL     1     107.068 125.066 147.542  0.00  0.00    +0.000 A 
ATOM     12  C   UNL     1     106.655 124.964 148.249  0.00  0.00    +0.000 A 
ATOM     13  C   UNL     1     105.444 124.653 148.940  0.00  0.00    +0.000 C 
ENDROOT
BRANCH   4  14
ATOM     14  C   UNL     1     103.437 124.109 146.746  0.00  0.00    +0.000 A 
ATOM     15  C   UNL     1     102.862 124.663 146.953  0.00  0.00    +0.000 A 
ATOM     16  C   UNL     1     103.214 123.345 146.527  0.00  0.00    +0.000 A 
ATOM     17  C   UNL     1     102.064 124.453 146.940  0.00  0.00    +0.000 A 
ATOM     18  C   UNL     1     102.416 123.136 146.515  0.00  0.00    +0.000 A 
ATOM     19  C   UNL     1     101.841 123.690 146.721  0.00  0.00    +0.000 A 
ENDBRANCH   4  14
BRANCH  12  20
ATOM     20  O   UNL     1     107.039 125.071 148.970  0.00  0.00    +0.000 OA
ATOM     21  C   UNL     1     107.248 124.416 149.427  0.00  0.00    +0.000 C 
ENDBRANCH  12  20
BRANCH  11  23
ATOM     22  O   UNL     1     108.101 126.024 147.301  0.00  0.00    +0.000 OA
ATOM     23  C   UNL     1     107.866 125.275 147.557  0.00  0.00    +0.000 C 
ENDBRANCH  11  23
TORSDOF 3
ENDMDL
MODEL 2
REMARK VINA RESULT:      -8.4      7.257      8.135
REMARK  Name = 10495449
REMARK  3 active torsions:
REMARK  status: ('A' for Active; 'I' for Inactive)
REMARK    1  A    between atoms: O_2  and  C_15
REMARK    2  A    between atoms: C_6  and  C_12
REMARK    3  A    between atoms: C_14  and  C_17
REMARK                            x       y       z     vdW  Elec       q    Type
REMARK                         _______ _______ _______ _____ _____    ______ ____
ROOT
ATOM      1  O   UNL     1     102.996 130.534 142.234  0.00  0.00    +0.000 OA
ATOM      2  O   UNL     1     103.844 128.287 140.619  0.00  0.00    +0.000 OA
ATOM      3  O   UNL     1     102.811 129.160 140.115  0.00  0.00    +0.000 OA
ATOM      4  C   UNL     1     102.429 130.765 141.630  0.00  0.00    +0.000 C 
ATOM      5  C   UNL     1     102.364 130.301 140.910  0.00  0.00    +0.000 C 
ATOM      6  C   UNL     1     103.427 129.396 141.418  0.00  0.00    +0.000 A 
ATOM      7  C   UNL     1     103.489 129.842 142.109  0.00  0.00    +0.000 A 
ATOM      8  C   UNL     1     102.867 129.611 140.804  0.00  0.00    +0.000 C 
ATOM      9  C   UNL     1     104.031 129.625 142.692  0.00  0.00    +0.000 A 
ATOM     10  C   UNL     1     103.906 128.733 141.310  0.00  0.00    +0.000 A 
ATOM     11  C   UNL     1     104.448 128.517 141.894  0.00  0.00    +0.000 A 
ATOM     12  C   UNL     1     104.510 128.963 142.585  0.00  0.00    +0.000 A 
ATOM     13  C   UNL     1     104.094 130.071 143.384  0.00  0.00    +0.000 C 
ENDROOT
BRANCH   4  14
ATOM     14  C   UNL     1     101.951 131.429 141.740  0.00  0.00    +0.000 A 
ATOM     15  C   UNL     1     102.235 132.179 141.546  0.00  0.00    +0.000 A 
ATOM     16  C   UNL     1     101.190 131.342 142.045  0.00  0.00    +0.000 A 
ATOM     17  C   UNL     1     101.756 132.842 141.657  0.00  0.00    +0.000 A 
ATOM     18  C   UNL     1     100.712 132.005 142.156  0.00  0.00    +0.000 A 
ATOM     19  C   UNL     1     100.994 132.755 141.962  0.00  0.00    +0.000 A 
ENDBRANCH   4  14
BRANCH  12  20
ATOM     20  O   UNL     1     105.052 128.746 143.167  0.00  0.00    +0.000 OA
ATOM     21  C   UNL     1     104.784 128.475 143.899  0.00  0.00    +0.000 C 
ENDBRANCH  12  20
BRANCH  11  23
ATOM     22  O   UNL     1     105.598 127.904 141.307  0.00  0.00    +0.000 OA
ATOM     23  C   UNL     1     104.927 127.854 141.785  0.00  0.00    +0.000 C 
ENDBRANCH  11  23
TORSDOF 3
ENDMDL
MODEL 3
REMARK VINA RESULT:      -8.2      1.293      4.392
REMARK  Name = 10495449
REMARK  3 active torsions:
REMARK  status: ('A' for Active; 'I' for Inactive)
REMARK    1  A    between atoms: O_2  and  C_15
REMARK    2  A    between atoms: C_6  and  C_12
REMARK    3  A    between atoms: C_14  and  C_17
REMARK                            x       y       z     vdW  Elec       q    Type
REMARK                         _______ _______ _______ _____ _____    ______ ____
ROOT
ATOM      1  O   UNL     1     105.119 124.458 147.195  0.00  0.00    +0.000 OA
ATOM      2  O   UNL     1     102.476 124.678 148.355  0.00  0.00    +0.000 OA
ATOM      3  O   UNL     1     103.616 125.122 149.122  0.00  0.00    +0.000 OA
ATOM      4  C   UNL     1     105.468 124.795 147.905  0.00  0.00    +0.000 C 
ATOM      5  C   UNL     1     104.960 125.022 148.560  0.00  0.00    +0.000 C 
ATOM      6  C   UNL     1     103.781 124.568 147.780  0.00  0.00    +0.000 A 
ATOM      7  C   UNL     1     104.268 124.351 147.151  0.00  0.00    +0.000 A 
ATOM      8  C   UNL     1     104.111 124.907 148.497  0.00  0.00    +0.000 C 
ATOM      9  C   UNL     1     103.939 124.026 146.468  0.00  0.00    +0.000 A 
ATOM     10  C   UNL     1     102.964 124.461 147.726  0.00  0.00    +0.000 A 
ATOM     11  C   UNL     1     102.636 124.136 147.043  0.00  0.00    +0.000 A 
ATOM     12  C   UNL     1     103.123 123.919 146.413  0.00  0.00    +0.000 A 
ATOM     13  C   UNL     1     104.426 123.809 145.839  0.00  0.00    +0.000 C 
ENDROOT
BRANCH   4  14
ATOM     14  C   UNL     1     106.284 124.902 147.957  0.00  0.00    +0.000 A 
ATOM     15  C   UNL     1     106.664 125.433 147.452  0.00  0.00    +0.000 A 
ATOM     16  C   UNL     1     106.721 124.477 148.513  0.00  0.00    +0.000 A 
ATOM     17  C   UNL     1     107.481 125.538 147.504  0.00  0.00    +0.000 A 
ATOM     18  C   UNL     1     107.538 124.583 148.565  0.00  0.00    +0.000 A 
ATOM     19  C   UNL     1     107.918 125.114 148.061  0.00  0.00    +0.000 A 
ENDBRANCH   4  14
BRANCH  12  20
ATOM     20  O   UNL     1     102.795 123.594 145.731  0.00  0.00    +0.000 OA
ATOM     21  C   UNL     1     102.891 122.791 145.568  0.00  0.00    +0.000 C 
ENDBRANCH  12  20
BRANCH  11  23
ATOM     22  O   UNL     1     101.325 124.681 146.878  0.00  0.00    +0.000 OA
ATOM     23  C   UNL     1     101.820 124.029 146.989  0.00  0.00    +0.000 C 
ENDBRANCH  11  23
TORSDOF 3
ENDMDL
MODEL 4
REMARK VINA RESULT:      -8.2     12.847     13.675
REMARK  Name = 10495449
REMARK  3 active torsions:
REMARK  status: ('A' for Active; 'I' for Inactive)
REMARK    1  A    between atoms: O_2  and  C_15
REMARK    2  A    between atoms: C_6  and  C_12
REMARK    3  A    between atoms: C_14  and  C_17
REMARK                            x       y       z     vdW  Elec       q    Type
REMARK                         _______ _______ _______ _____ _____    ______ ____
ROOT
ATOM      1  O   UNL     1     112.581 126.535 136.312  0.00  0.00    +0.000 OA
ATOM      2  O   UNL     1     109.944 125.943 135.275  0.00  0.00    +0.000 OA
ATOM      3  O   UNL     1     110.779 124.855 135.727  0.00  0.00    +0.000 OA
ATOM      4  C   UNL     1     112.723 125.698 136.452  0.00  0.00    +0.000 C 
ATOM      5  C   UNL     1     112.113 125.126 136.254  0.00  0.00    +0.000 C 
ATOM      6  C   UNL     1     111.246 126.238 135.787  0.00  0.00    +0.000 A 
ATOM      7  C   UNL     1     111.831 126.787 135.977  0.00  0.00    +0.000 A 
ATOM      8  C   UNL     1     111.369 125.398 135.919  0.00  0.00    +0.000 C 
ATOM      9  C   UNL     1     111.700 127.591 135.844  0.00  0.00    +0.000 A 
ATOM     10  C   UNL     1     110.529 126.492 135.465  0.00  0.00    +0.000 A 
ATOM     11  C   UNL     1     110.400 127.296 135.333  0.00  0.00    +0.000 A 
ATOM     12  C   UNL     1     110.985 127.845 135.523  0.00  0.00    +0.000 A 
ATOM     13  C   UNL     1     112.286 128.140 136.034  0.00  0.00    +0.000 C 
ENDROOT
BRANCH   4  14
ATOM     14  C   UNL     1     113.440 125.447 136.773  0.00  0.00    +0.000 A 
ATOM     15  C   UNL     1     113.561 125.483 137.588  0.00  0.00    +0.000 A 
ATOM     16  C   UNL     1     114.035 125.159 136.280  0.00  0.00    +0.000 A 
ATOM     17  C   UNL     1     114.279 125.231 137.910  0.00  0.00    +0.000 A 
ATOM     18  C   UNL     1     114.752 124.907 136.601  0.00  0.00    +0.000 A 
ATOM     19  C   UNL     1     114.874 124.943 137.416  0.00  0.00    +0.000 A 
ENDBRANCH   4  14
BRANCH  12  20
ATOM     20  O   UNL     1     110.855 128.649 135.391  0.00  0.00    +0.000 OA
ATOM     21  C   UNL     1     111.267 129.041 134.794  0.00  0.00    +0.000 C 
ENDBRANCH  12  20
BRANCH  11  23
ATOM     22  O   UNL     1     109.008 127.581 135.485  0.00  0.00    +0.000 OA
ATOM     23  C   UNL     1     109.684 127.550 135.012  0.00  0.00    +0.000 C 
ENDBRANCH  11  23
TORSDOF 3
ENDMDL
MODEL 5
REMARK VINA RESULT:      -8.1      9.962     11.686
REMARK  Name = 10495449
REMARK  3 active torsions:
REMARK  status: ('A' for Active; 'I' for Inactive)
REMARK    1  A    between atoms: O_2  and  C_15
REMARK    2  A    between atoms: C_6  and  C_12
REMARK    3  A    between atoms: C_14  and  C_17
REMARK                            x       y       z     vdW  Elec       q    Type
REMARK                         _______ _______ _______ _____ _____    ______ ____
ROOT
ATOM      1  O   UNL     1     113.482 126.251 138.800  0.00  0.00    +0.000 OA
ATOM      2  O   UNL     1     110.766 126.120 139.791  0.00  0.00    +0.000 OA
ATOM      3  O   UNL     1     111.068 125.548 138.501  0.00  0.00    +0.000 OA
ATOM      4  C   UNL     1     113.249 125.840 138.082  0.00  0.00    +0.000 C 
ATOM      5  C   UNL     1     112.431 125.600 137.978  0.00  0.00    +0.000 C 
ATOM      6  C   UNL     1     112.108 126.186 139.304  0.00  0.00    +0.000 A 
ATOM      7  C   UNL     1     112.894 126.416 139.404  0.00  0.00    +0.000 A 
ATOM      8  C   UNL     1     111.856 125.775 138.593  0.00  0.00    +0.000 C 
ATOM      9  C   UNL     1     113.123 126.811 140.091  0.00  0.00    +0.000 A 
ATOM     10  C   UNL     1     111.551 126.350 139.891  0.00  0.00    +0.000 A 
ATOM     11  C   UNL     1     111.782 126.745 140.578  0.00  0.00    +0.000 A 
ATOM     12  C   UNL     1     112.568 126.975 140.678  0.00  0.00    +0.000 A 
ATOM     13  C   UNL     1     113.909 127.041 140.192  0.00  0.00    +0.000 C 
ENDROOT
BRANCH   4  14
ATOM     14  C   UNL     1     113.807 125.677 137.497  0.00  0.00    +0.000 A 
ATOM     15  C   UNL     1     113.899 126.192 136.859  0.00  0.00    +0.000 A 
ATOM     16  C   UNL     1     114.274 124.999 137.549  0.00  0.00    +0.000 A 
ATOM     17  C   UNL     1     114.458 126.029 136.274  0.00  0.00    +0.000 A 
ATOM     18  C   UNL     1     114.832 124.835 136.964  0.00  0.00    +0.000 A 
ATOM     19  C   UNL     1     114.924 125.350 136.326  0.00  0.00    +0.000 A 
ENDBRANCH   4  14
BRANCH  12  20
ATOM     20  O   UNL     1     112.797 127.369 141.365  0.00  0.00    +0.000 OA
ATOM     21  C   UNL     1     112.949 128.180 141.343  0.00  0.00    +0.000 C 
ENDBRANCH  12  20
BRANCH  11  23
ATOM     22  O   UNL     1     110.936 126.299 141.640  0.00  0.00    +0.000 OA
ATOM     23  C   UNL     1     111.225 126.909 141.164  0.00  0.00    +0.000 C 
ENDBRANCH  11  23
TORSDOF 3
ENDMDL
MODEL 6
REMARK VINA RESULT:      -8.1     12.811     13.791
REMARK  Name = 10495449
REMARK  3 active torsions:
REMARK  status: ('A' for Active; 'I' for Inactive)
REMARK    1  A    between atoms: O_2  and  C_15
REMARK    2  A    between atoms: C_6  and  C_12
REMARK    3  A    between atoms: C_14  and  C_17
REMARK                            x       y       z     vdW  Elec       q    Type
REMARK                         _______ _______ _______ _____ _____    ______ ____
ROOT
ATOM      1  O   UNL     1     112.342 126.040 136.284  0.00  0.00    +0.000 OA
ATOM      2  O   UNL     1     111.465 128.651 135.395  0.00  0.00    +0.000 OA
ATOM      3  O   UNL     1     112.792 128.508 135.945  0.00  0.00    +0.000 OA
ATOM      4  C   UNL     1     113.104 126.365 136.515  0.00  0.00    +0.000 C 
ATOM      5  C   UNL     1     113.259 127.202 136.401  0.00  0.00    +0.000 C 
ATOM      6  C   UNL     1     111.896 127.360 135.833  0.00  0.00    +0.000 A 
ATOM      7  C   UNL     1     111.747 126.556 135.942  0.00  0.00    +0.000 A 
ATOM      8  C   UNL     1     112.651 127.703 136.058  0.00  0.00    +0.000 C 
ATOM      9  C   UNL     1     111.018 126.239 135.722  0.00  0.00    +0.000 A 
ATOM     10  C   UNL     1     111.316 127.847 135.504  0.00  0.00    +0.000 A 
ATOM     11  C   UNL     1     110.588 127.528 135.284  0.00  0.00    +0.000 A 
ATOM     12  C   UNL     1     110.439 126.724 135.393  0.00  0.00    +0.000 A 
ATOM     13  C   UNL     1     110.869 125.435 135.831  0.00  0.00    +0.000 C 
ENDROOT
BRANCH   4  14
ATOM     14  C   UNL     1     113.682 125.877 136.844  0.00  0.00    +0.000 A 
ATOM     15  C   UNL     1     114.203 125.466 136.353  0.00  0.00    +0.000 A 
ATOM     16  C   UNL     1     113.739 125.798 137.663  0.00  0.00    +0.000 A 
ATOM     17  C   UNL     1     114.781 124.978 136.683  0.00  0.00    +0.000 A 
ATOM     18  C   UNL     1     114.317 125.310 137.992  0.00  0.00    +0.000 A 
ATOM     19  C   UNL     1     114.838 124.900 137.502  0.00  0.00    +0.000 A 
ENDBRANCH   4  14
BRANCH  12  20
ATOM     20  O   UNL     1     109.710 126.407 135.174  0.00  0.00    +0.000 OA
ATOM     21  C   UNL     1     109.676 125.803 134.612  0.00  0.00    +0.000 C 
ENDBRANCH  12  20
BRANCH  11  23
ATOM     22  O   UNL     1     109.574 128.524 135.439  0.00  0.00    +0.000 OA
ATOM     23  C   UNL     1     110.008 128.015 134.955  0.00  0.00    +0.000 C 
ENDBRANCH  11  23
TORSDOF 3
ENDMDL
MODEL 7
REMARK VINA RESULT:      -8.1      1.630      4.315
REMARK  Name = 10495449
REMARK  3 active torsions:
REMARK  status: ('A' for Active; 'I' for Inactive)
REMARK    1  A    between atoms: O_2  and  C_15
REMARK    2  A    between atoms: C_6  and  C_12
REMARK    3  A    between atoms: C_14  and  C_17
REMARK                            x       y       z     vdW  Elec       q    Type
REMARK                         _______ _______ _______ _____ _____    ______ ____
ROOT
ATOM      1  O   UNL     1     103.904 124.645 147.462  0.00  0.00    +0.000 OA
ATOM      2  O   UNL     1     102.812 123.173 145.222  0.00  0.00    +0.000 OA
ATOM      3  O   UNL     1     104.230 123.439 145.260  0.00  0.00    +0.000 OA
ATOM      4  C   UNL     1     104.693 124.588 147.126  0.00  0.00    +0.000 C 
ATOM      5  C   UNL     1     104.807 124.179 146.379  0.00  0.00    +0.000 C 
ATOM      6  C   UNL     1     103.349 123.900 146.330  0.00  0.00    +0.000 A 
ATOM      7  C   UNL     1     103.240 124.293 147.047  0.00  0.00    +0.000 A 
ATOM      8  C   UNL     1     104.130 123.833 145.978  0.00  0.00    +0.000 C 
ATOM      9  C   UNL     1     102.485 124.350 147.375  0.00  0.00    +0.000 A 
ATOM     10  C   UNL     1     102.703 123.566 145.940  0.00  0.00    +0.000 A 
ATOM     11  C   UNL     1     101.948 123.624 146.268  0.00  0.00    +0.000 A 
ATOM     12  C   UNL     1     101.839 124.016 146.986  0.00  0.00    +0.000 A 
ATOM     13  C   UNL     1     102.376 124.743 148.092  0.00  0.00    +0.000 C 
ENDROOT
BRANCH   4  14
ATOM     14  C   UNL     1     105.337 124.923 147.517  0.00  0.00    +0.000 A 
ATOM     15  C   UNL     1     105.533 125.714 147.388  0.00  0.00    +0.000 A 
ATOM     16  C   UNL     1     105.786 124.468 148.039  0.00  0.00    +0.000 A 
ATOM     17  C   UNL     1     106.178 126.049 147.780  0.00  0.00    +0.000 A 
ATOM     18  C   UNL     1     106.430 124.803 148.431  0.00  0.00    +0.000 A 
ATOM     19  C   UNL     1     106.626 125.593 148.301  0.00  0.00    +0.000 A 
ENDBRANCH   4  14
BRANCH  12  20
ATOM     20  O   UNL     1     101.085 124.074 147.313  0.00  0.00    +0.000 OA
ATOM     21  C   UNL     1     100.887 123.623 147.975  0.00  0.00    +0.000 C 
ENDBRANCH  12  20
BRANCH  11  23
ATOM     22  O   UNL     1     100.990 123.657 145.208  0.00  0.00    +0.000 OA
ATOM     23  C   UNL     1     101.303 123.289 145.878  0.00  0.00    +0.000 C 
ENDBRANCH  11  23
TORSDOF 3
ENDMDL
MODEL 8
REMARK VINA RESULT:      -8.0      1.664      2.118
REMARK  Name = 10495449
REMARK  3 active torsions:
REMARK  status: ('A' for Active; 'I' for Inactive)
REMARK    1  A    between atoms: O_2  and  C_15
REMARK    2  A    between atoms: C_6  and  C_12
REMARK    3  A    between atoms: C_14  and  C_17
REMARK                            x       y       z     vdW  Elec       q    Type
REMARK                         _______ _______ _______ _____ _____    ______ ____
ROOT
ATOM      1  O   UNL     1     103.291 124.394 146.773  0.00  0.00    +0.000 OA
ATOM      2  O   UNL     1     105.619 124.021 145.094  0.00  0.00    +0.000 OA
ATOM      3  O   UNL     1     104.546 123.059 145.026  0.00  0.00    +0.000 OA
ATOM      4  C   UNL     1     102.937 123.678 146.455  0.00  0.00    +0.000 C 
ATOM      5  C   UNL     1     103.360 123.223 145.863  0.00  0.00    +0.000 C 
ATOM      6  C   UNL     1     104.470 124.208 145.924  0.00  0.00    +0.000 A 
ATOM      7  C   UNL     1     104.063 124.645 146.494  0.00  0.00    +0.000 A 
ATOM      8  C   UNL     1     104.132 123.490 145.595  0.00  0.00    +0.000 C 
ATOM      9  C   UNL     1     104.399 125.333 146.802  0.00  0.00    +0.000 A 
ATOM     10  C   UNL     1     105.212 124.459 145.663  0.00  0.00    +0.000 A 
ATOM     11  C   UNL     1     105.546 125.147 145.972  0.00  0.00    +0.000 A 
ATOM     12  C   UNL     1     105.139 125.584 146.542  0.00  0.00    +0.000 A 
ATOM     13  C   UNL     1     103.992 125.770 147.371  0.00  0.00    +0.000 C 
ENDROOT
BRANCH   4  14
ATOM     14  C   UNL     1     102.195 123.430 146.718  0.00  0.00    +0.000 A 
ATOM     15  C   UNL     1     101.519 123.622 146.286  0.00  0.00    +0.000 A 
ATOM     16  C   UNL     1     102.130 122.988 147.412  0.00  0.00    +0.000 A 
ATOM     17  C   UNL     1     100.777 123.373 146.549  0.00  0.00    +0.000 A 
ATOM     18  C   UNL     1     101.388 122.740 147.674  0.00  0.00    +0.000 A 
ATOM     19  C   UNL     1     100.712 122.932 147.243  0.00  0.00    +0.000 A 
ENDBRANCH   4  14
BRANCH  12  20
ATOM     20  O   UNL     1     105.474 126.271 146.850  0.00  0.00    +0.000 OA
ATOM     21  C   UNL     1     105.176 127.009 146.631  0.00  0.00    +0.000 C 
ENDBRANCH  12  20
BRANCH  11  23
ATOM     22  O   UNL     1     106.966 124.989 145.945  0.00  0.00    +0.000 OA
ATOM     23  C   UNL     1     106.288 125.397 145.711  0.00  0.00    +0.000 C 
ENDBRANCH  11  23
TORSDOF 3
ENDMDL
MODEL 9
REMARK VINA RESULT:      -7.9     10.905     12.390
REMARK  Name = 10495449
REMARK  3 active torsions:
REMARK  status: ('A' for Active; 'I' for Inactive)
REMARK    1  A    between atoms: O_2  and  C_15
REMARK    2  A    between atoms: C_6  and  C_12
REMARK    3  A    between atoms: C_14  and  C_17
REMARK                            x       y       z     vdW  Elec       q    Type
REMARK                         _______ _______ _______ _____ _____    ______ ____
ROOT
ATOM      1  O   UNL     1     113.595 126.210 138.695  0.00  0.00    +0.000 OA
ATOM      2  O   UNL     1     111.221 124.902 137.681  0.00  0.00    +0.000 OA
ATOM      3  O   UNL     1     111.085 125.877 138.736  0.00  0.00    +0.000 OA
ATOM      4  C   UNL     1     113.119 126.663 139.250  0.00  0.00    +0.000 C 
ATOM      5  C   UNL     1     112.267 126.552 139.266  0.00  0.00    +0.000 C 
ATOM      6  C   UNL     1     112.395 125.547 138.180  0.00  0.00    +0.000 A 
ATOM      7  C   UNL     1     113.213 125.653 138.165  0.00  0.00    +0.000 A 
ATOM      8  C   UNL     1     111.903 125.990 138.727  0.00  0.00    +0.000 C 
ATOM      9  C   UNL     1     113.675 125.222 137.634  0.00  0.00    +0.000 A 
ATOM     10  C   UNL     1     112.039 125.009 137.665  0.00  0.00    +0.000 A 
ATOM     11  C   UNL     1     112.501 124.578 137.135  0.00  0.00    +0.000 A 
ATOM     12  C   UNL     1     113.319 124.684 137.120  0.00  0.00    +0.000 A 
ATOM     13  C   UNL     1     114.493 125.328 137.619  0.00  0.00    +0.000 C 
ENDROOT
BRANCH   4  14
ATOM     14  C   UNL     1     113.477 127.200 139.764  0.00  0.00    +0.000 A 
ATOM     15  C   UNL     1     113.445 128.008 139.603  0.00  0.00    +0.000 A 
ATOM     16  C   UNL     1     113.868 126.928 140.438  0.00  0.00    +0.000 A 
ATOM     17  C   UNL     1     113.804 128.545 140.118  0.00  0.00    +0.000 A 
ATOM     18  C   UNL     1     114.226 127.465 140.951  0.00  0.00    +0.000 A 
ATOM     19  C   UNL     1     114.195 128.274 140.792  0.00  0.00    +0.000 A 
ENDBRANCH   4  14
BRANCH  12  20
ATOM     20  O   UNL     1     113.781 124.253 136.590  0.00  0.00    +0.000 OA
ATOM     21  C   UNL     1     114.234 124.646 136.024  0.00  0.00    +0.000 C 
ENDBRANCH  12  20
BRANCH  11  23
ATOM     22  O   UNL     1     111.902 123.302 136.900  0.00  0.00    +0.000 OA
ATOM     23  C   UNL     1     112.145 124.040 136.621  0.00  0.00    +0.000 C 
ENDBRANCH  11  23
TORSDOF 3
ENDMDL
MODEL 10
REMARK VINA RESULT:      -7.9     12.599     13.950
REMARK  Name = 10495449
REMARK  3 active torsions:
REMARK  status: ('A' for Active; 'I' for Inactive)
REMARK    1  A    between atoms: O_2  and  C_15
REMARK    2  A    between atoms: C_6  and  C_12
REMARK    3  A    between atoms: C_14  and  C_17
REMARK                            x       y       z     vdW  Elec       q    Type
REMARK                         _______ _______ _______ _____ _____    ______ ____
ROOT
ATOM      1  O   UNL     1     112.613 127.398 136.116  0.00  0.00    +0.000 OA
ATOM      2  O   UNL     1     113.258 124.653 136.768  0.00  0.00    +0.000 OA
ATOM      3  O   UNL     1     114.291 125.656 136.864  0.00  0.00    +0.000 OA
ATOM      4  C   UNL     1     113.421 127.637 136.287  0.00  0.00    +0.000 C 
ATOM      5  C   UNL     1     113.993 127.048 136.541  0.00  0.00    +0.000 C 
ATOM      6  C   UNL     1     112.937 126.008 136.446  0.00  0.00    +0.000 A 
ATOM      7  C   UNL     1     112.389 126.574 136.202  0.00  0.00    +0.000 A 
ATOM      8  C   UNL     1     113.749 126.228 136.621  0.00  0.00    +0.000 C 
ATOM      9  C   UNL     1     111.612 126.349 136.037  0.00  0.00    +0.000 A 
ATOM     10  C   UNL     1     112.709 125.218 136.524  0.00  0.00    +0.000 A 
ATOM     11  C   UNL     1     111.933 124.995 136.359  0.00  0.00    +0.000 A 
ATOM     12  C   UNL     1     111.384 125.561 136.115  0.00  0.00    +0.000 A 
ATOM     13  C   UNL     1     111.063 126.915 135.793  0.00  0.00    +0.000 C 
ENDROOT
BRANCH   4  14
ATOM     14  C   UNL     1     113.646 128.427 136.208  0.00  0.00    +0.000 A 
ATOM     15  C   UNL     1     113.492 128.963 136.816  0.00  0.00    +0.000 A 
ATOM     16  C   UNL     1     114.027 128.680 135.521  0.00  0.00    +0.000 A 
ATOM     17  C   UNL     1     113.717 129.753 136.735  0.00  0.00    +0.000 A 
ATOM     18  C   UNL     1     114.252 129.470 135.442  0.00  0.00    +0.000 A 
ATOM     19  C   UNL     1     114.097 130.007 136.049  0.00  0.00    +0.000 A 
ENDBRANCH   4  14
BRANCH  12  20
ATOM     20  O   UNL     1     110.608 125.338 135.950  0.00  0.00    +0.000 OA
ATOM     21  C   UNL     1     110.315 125.403 135.181  0.00  0.00    +0.000 C 
ENDBRANCH  12  20
BRANCH  11  23
ATOM     22  O   UNL     1     111.608 123.879 137.189  0.00  0.00    +0.000 OA
ATOM     23  C   UNL     1     111.705 124.206 136.437  0.00  0.00    +0.000 C 
ENDBRANCH  11  23
TORSDOF 3
ENDMDL
