MODEL 1
REMARK VINA RESULT:      -7.4      0.000      0.000
REMARK  Name = 44258533
REMARK  9 active torsions:
REMARK  status: ('A' for Active; 'I' for Inactive)
REMARK    1  A    between atoms: O_2  and  C_13
REMARK    2  A    between atoms: O_3  and  C_21
REMARK    3  A    between atoms: O_3  and  C_24
REMARK    4  A    between atoms: O_4  and  C_17
REMARK    5  A    between atoms: O_5  and  C_18
REMARK    6  A    between atoms: O_6  and  C_22
REMARK    7  A    between atoms: O_7  and  C_23
REMARK    8  A    between atoms: C_11  and  C_12
REMARK    9  A    between atoms: C_24  and  C_25
REMARK                            x       y       z     vdW  Elec       q    Type
REMARK                         _______ _______ _______ _____ _____    ______ ____
ROOT
ATOM      1  O   UNL     1     111.929 127.402 136.832  0.00  0.00    +0.000 OA
ATOM      2  O   UNL     1     113.833 126.280 138.069  0.00  0.00    +0.000 OA
ATOM      3  C   UNL     1     112.680 126.192 137.177  0.00  0.00    +0.000 A 
ATOM      4  C   UNL     1     112.059 126.555 136.773  0.00  0.00    +0.000 A 
ATOM      5  C   UNL     1     112.454 127.878 137.319  0.00  0.00    +0.000 A 
ATOM      6  C   UNL     1     112.794 125.376 137.113  0.00  0.00    +0.000 A 
ATOM      7  C   UNL     1     113.214 126.651 137.668  0.00  0.00    +0.000 A 
ATOM      8  C   UNL     1     113.101 127.500 137.740  0.00  0.00    +0.000 A 
ATOM      9  C   UNL     1     111.552 126.102 136.305  0.00  0.00    +0.000 A 
ATOM     10  C   UNL     1     112.286 124.925 136.644  0.00  0.00    +0.000 A 
ATOM     11  C   UNL     1     111.665 125.288 136.240  0.00  0.00    +0.000 A 
ENDROOT
BRANCH   5  12
ATOM     12  C   UNL     1     112.338 128.692 137.382  0.00  0.00    +0.000 A 
ATOM     13  C   UNL     1     111.840 128.994 137.967  0.00  0.00    +0.000 A 
ATOM     14  C   UNL     1     112.720 129.205 136.860  0.00  0.00    +0.000 A 
ATOM     15  C   UNL     1     112.106 130.321 137.507  0.00  0.00    +0.000 A 
ATOM     16  C   UNL     1     112.604 130.018 136.922  0.00  0.00    +0.000 A 
ATOM     17  C   UNL     1     111.724 129.809 138.029  0.00  0.00    +0.000 A 
BRANCH  16  18
ATOM     18  O   UNL     1     112.985 130.531 136.401  0.00  0.00    +0.000 OA
ATOM     19  C   UNL     1     113.675 130.291 136.017  0.00  0.00    +0.000 C 
ENDBRANCH  16  18
BRANCH  17  20
ATOM     20  O   UNL     1     111.226 130.111 138.613  0.00  0.00    +0.000 OA
ATOM     21  C   UNL     1     111.038 129.651 139.272  0.00  0.00    +0.000 C 
ENDBRANCH  17  20
BRANCH  15  22
ATOM     22  O   UNL     1     111.990 131.135 137.569  0.00  0.00    +0.000 OA
BRANCH  22  23
ATOM     23  C   UNL     1     111.365 131.494 137.168  0.00  0.00    +0.000 C 
BRANCH  23  24
ATOM     24  C   UNL     1     111.303 132.317 137.154  0.00  0.00    +0.000 C 
ATOM     25  C   UNL     1     110.647 132.675 136.804  0.00  0.00    +0.000 C 
ATOM     26  C   UNL     1     110.584 133.498 136.790  0.00  0.00    +0.000 C 
ATOM     27  C   UNL     1     110.055 132.210 136.467  0.00  0.00    +0.000 C 
ENDBRANCH  23  24
ENDBRANCH  22  23
ENDBRANCH  15  22
ENDBRANCH   5  12
BRANCH   6  28
ATOM     28  O   UNL     1     113.415 125.014 137.517  0.00  0.00    +0.000 OA
ATOM     29  C   UNL     1     114.194 125.160 137.291  0.00  0.00    +0.000 C 
ENDBRANCH   6  28
BRANCH  10  30
ATOM     30  O   UNL     1     112.401 124.110 136.580  0.00  0.00    +0.000 OA
ATOM     31  C   UNL     1     111.965 123.595 137.054  0.00  0.00    +0.000 C 
ENDBRANCH  10  30
BRANCH  11  32
ATOM     32  O   UNL     1     111.158 124.836 135.772  0.00  0.00    +0.000 OA
ATOM     33  C   UNL     1     110.596 125.208 135.296  0.00  0.00    +0.000 C 
ENDBRANCH  11  32
TORSDOF 9
ENDMDL
MODEL 2
REMARK VINA RESULT:      -7.3      1.415      5.909
REMARK  Name = 44258533
REMARK  9 active torsions:
REMARK  status: ('A' for Active; 'I' for Inactive)
REMARK    1  A    between atoms: O_2  and  C_13
REMARK    2  A    between atoms: O_3  and  C_21
REMARK    3  A    between atoms: O_3  and  C_24
REMARK    4  A    between atoms: O_4  and  C_17
REMARK    5  A    between atoms: O_5  and  C_18
REMARK    6  A    between atoms: O_6  and  C_22
REMARK    7  A    between atoms: O_7  and  C_23
REMARK    8  A    between atoms: C_11  and  C_12
REMARK    9  A    between atoms: C_24  and  C_25
REMARK                            x       y       z     vdW  Elec       q    Type
REMARK                         _______ _______ _______ _____ _____    ______ ____
ROOT
ATOM      1  O   UNL     1     111.262 129.963 136.517  0.00  0.00    +0.000 OA
ATOM      2  O   UNL     1     111.698 131.044 138.764  0.00  0.00    +0.000 OA
ATOM      3  C   UNL     1     111.054 131.070 137.454  0.00  0.00    +0.000 A 
ATOM      4  C   UNL     1     110.910 130.720 136.721  0.00  0.00    +0.000 A 
ATOM      5  C   UNL     1     111.771 129.566 137.084  0.00  0.00    +0.000 A 
ATOM      6  C   UNL     1     110.709 131.797 137.639  0.00  0.00    +0.000 A 
ATOM      7  C   UNL     1     111.559 130.688 138.034  0.00  0.00    +0.000 A 
ATOM      8  C   UNL     1     111.921 129.930 137.847  0.00  0.00    +0.000 A 
ATOM      9  C   UNL     1     110.422 131.097 136.172  0.00  0.00    +0.000 A 
ATOM     10  C   UNL     1     110.222 132.173 137.090  0.00  0.00    +0.000 A 
ATOM     11  C   UNL     1     110.078 131.823 136.357  0.00  0.00    +0.000 A 
ENDROOT
BRANCH   5  12
ATOM     12  C   UNL     1     112.114 128.839 136.897  0.00  0.00    +0.000 A 
ATOM     13  C   UNL     1     112.854 128.813 136.533  0.00  0.00    +0.000 A 
ATOM     14  C   UNL     1     111.717 128.138 137.073  0.00  0.00    +0.000 A 
ATOM     15  C   UNL     1     112.799 127.385 136.523  0.00  0.00    +0.000 A 
ATOM     16  C   UNL     1     112.059 127.412 136.886  0.00  0.00    +0.000 A 
ATOM     17  C   UNL     1     113.196 128.086 136.346  0.00  0.00    +0.000 A 
BRANCH  16  18
ATOM     18  O   UNL     1     111.661 126.710 137.063  0.00  0.00    +0.000 OA
ATOM     19  C   UNL     1     110.840 126.710 137.142  0.00  0.00    +0.000 C 
ENDBRANCH  16  18
BRANCH  17  20
ATOM     20  O   UNL     1     113.936 128.060 135.982  0.00  0.00    +0.000 OA
ATOM     21  C   UNL     1     114.216 128.717 135.570  0.00  0.00    +0.000 C 
ENDBRANCH  17  20
BRANCH  15  22
ATOM     22  O   UNL     1     113.141 126.658 136.336  0.00  0.00    +0.000 OA
BRANCH  22  23
ATOM     23  C   UNL     1     113.613 126.270 136.890  0.00  0.00    +0.000 C 
BRANCH  23  24
ATOM     24  C   UNL     1     113.978 125.557 136.693  0.00  0.00    +0.000 C 
ATOM     25  C   UNL     1     114.426 125.154 137.257  0.00  0.00    +0.000 C 
ATOM     26  C   UNL     1     114.791 124.441 137.060  0.00  0.00    +0.000 C 
ATOM     27  C   UNL     1     114.507 125.463 138.017  0.00  0.00    +0.000 C 
ENDBRANCH  23  24
ENDBRANCH  22  23
ENDBRANCH  15  22
ENDBRANCH   5  12
BRANCH   6  28
ATOM     28  O   UNL     1     110.853 132.147 138.372  0.00  0.00    +0.000 OA
ATOM     29  C   UNL     1     110.504 131.837 139.052  0.00  0.00    +0.000 C 
ENDBRANCH   6  28
BRANCH  10  30
ATOM     30  O   UNL     1     109.878 132.901 137.275  0.00  0.00    +0.000 OA
ATOM     31  C   UNL     1     110.249 133.601 137.047  0.00  0.00    +0.000 C 
ENDBRANCH  10  30
BRANCH  11  32
ATOM     32  O   UNL     1     109.591 132.201 135.808  0.00  0.00    +0.000 OA
ATOM     33  C   UNL     1     109.183 131.756 135.245  0.00  0.00    +0.000 C 
ENDBRANCH  11  32
TORSDOF 9
ENDMDL
MODEL 3
REMARK VINA RESULT:      -7.2      0.659      1.676
REMARK  Name = 44258533
REMARK  9 active torsions:
REMARK  status: ('A' for Active; 'I' for Inactive)
REMARK    1  A    between atoms: O_2  and  C_13
REMARK    2  A    between atoms: O_3  and  C_21
REMARK    3  A    between atoms: O_3  and  C_24
REMARK    4  A    between atoms: O_4  and  C_17
REMARK    5  A    between atoms: O_5  and  C_18
REMARK    6  A    between atoms: O_6  and  C_22
REMARK    7  A    between atoms: O_7  and  C_23
REMARK    8  A    between atoms: C_11  and  C_12
REMARK    9  A    between atoms: C_24  and  C_25
REMARK                            x       y       z     vdW  Elec       q    Type
REMARK                         _______ _______ _______ _____ _____    ______ ____
ROOT
ATOM      1  O   UNL     1     112.497 127.101 137.052  0.00  0.00    +0.000 OA
ATOM      2  O   UNL     1     110.485 125.980 135.998  0.00  0.00    +0.000 OA
ATOM      3  C   UNL     1     111.824 125.890 136.575  0.00  0.00    +0.000 A 
ATOM      4  C   UNL     1     112.481 126.252 136.918  0.00  0.00    +0.000 A 
ATOM      5  C   UNL     1     111.819 127.578 136.825  0.00  0.00    +0.000 A 
ATOM      6  C   UNL     1     111.821 125.074 136.451  0.00  0.00    +0.000 A 
ATOM      7  C   UNL     1     111.138 126.351 136.341  0.00  0.00    +0.000 A 
ATOM      8  C   UNL     1     111.135 127.201 136.468  0.00  0.00    +0.000 A 
ATOM      9  C   UNL     1     113.134 125.799 137.138  0.00  0.00    +0.000 A 
ATOM     10  C   UNL     1     112.475 124.621 136.671  0.00  0.00    +0.000 A 
ATOM     11  C   UNL     1     113.131 124.984 137.014  0.00  0.00    +0.000 A 
ENDROOT
BRANCH   5  12
ATOM     12  C   UNL     1     111.825 128.394 136.950  0.00  0.00    +0.000 A 
ATOM     13  C   UNL     1     111.444 128.713 137.609  0.00  0.00    +0.000 A 
ATOM     14  C   UNL     1     112.211 128.890 136.417  0.00  0.00    +0.000 A 
ATOM     15  C   UNL     1     111.837 130.025 137.200  0.00  0.00    +0.000 A 
ATOM     16  C   UNL     1     112.217 129.705 136.541  0.00  0.00    +0.000 A 
ATOM     17  C   UNL     1     111.450 129.529 137.733  0.00  0.00    +0.000 A 
BRANCH  16  18
ATOM     18  O   UNL     1     112.604 130.201 136.007  0.00  0.00    +0.000 OA
ATOM     19  C   UNL     1     113.224 129.909 135.547  0.00  0.00    +0.000 C 
ENDBRANCH  16  18
BRANCH  17  20
ATOM     20  O   UNL     1     111.069 129.848 138.392  0.00  0.00    +0.000 OA
ATOM     21  C   UNL     1     110.964 129.390 139.070  0.00  0.00    +0.000 C 
ENDBRANCH  17  20
BRANCH  15  22
ATOM     22  O   UNL     1     111.843 130.840 137.324  0.00  0.00    +0.000 OA
BRANCH  22  23
ATOM     23  C   UNL     1     111.230 131.307 137.028  0.00  0.00    +0.000 C 
BRANCH  23  24
ATOM     24  C   UNL     1     111.253 132.126 137.124  0.00  0.00    +0.000 C 
ATOM     25  C   UNL     1     110.633 132.592 136.842  0.00  0.00    +0.000 C 
ATOM     26  C   UNL     1     110.655 133.411 136.937  0.00  0.00    +0.000 C 
ATOM     27  C   UNL     1     109.990 132.238 136.464  0.00  0.00    +0.000 C 
ENDBRANCH  23  24
ENDBRANCH  22  23
ENDBRANCH  15  22
ENDBRANCH   5  12
BRANCH   6  28
ATOM     28  O   UNL     1     111.164 124.711 136.107  0.00  0.00    +0.000 OA
ATOM     29  C   UNL     1     110.846 125.012 135.408  0.00  0.00    +0.000 C 
ENDBRANCH   6  28
BRANCH  10  30
ATOM     30  O   UNL     1     112.471 123.805 136.547  0.00  0.00    +0.000 OA
ATOM     31  C   UNL     1     112.217 123.298 137.146  0.00  0.00    +0.000 C 
ENDBRANCH  10  30
BRANCH  11  32
ATOM     32  O   UNL     1     113.785 124.530 137.234  0.00  0.00    +0.000 OA
ATOM     33  C   UNL     1     114.510 124.895 137.377  0.00  0.00    +0.000 C 
ENDBRANCH  11  32
TORSDOF 9
ENDMDL
MODEL 4
REMARK VINA RESULT:      -7.2      1.868      5.768
REMARK  Name = 44258533
REMARK  9 active torsions:
REMARK  status: ('A' for Active; 'I' for Inactive)
REMARK    1  A    between atoms: O_2  and  C_13
REMARK    2  A    between atoms: O_3  and  C_21
REMARK    3  A    between atoms: O_3  and  C_24
REMARK    4  A    between atoms: O_4  and  C_17
REMARK    5  A    between atoms: O_5  and  C_18
REMARK    6  A    between atoms: O_6  and  C_22
REMARK    7  A    between atoms: O_7  and  C_23
REMARK    8  A    between atoms: C_11  and  C_12
REMARK    9  A    between atoms: C_24  and  C_25
REMARK                            x       y       z     vdW  Elec       q    Type
REMARK                         _______ _______ _______ _____ _____    ______ ____
ROOT
ATOM      1  O   UNL     1     111.228 130.075 136.584  0.00  0.00    +0.000 OA
ATOM      2  O   UNL     1     109.196 129.192 135.359  0.00  0.00    +0.000 OA
ATOM      3  C   UNL     1     109.936 130.311 135.936  0.00  0.00    +0.000 A 
ATOM      4  C   UNL     1     110.597 130.602 136.335  0.00  0.00    +0.000 A 
ATOM      5  C   UNL     1     111.170 129.234 136.415  0.00  0.00    +0.000 A 
ATOM      6  C   UNL     1     109.335 130.827 135.701  0.00  0.00    +0.000 A 
ATOM      7  C   UNL     1     109.860 129.474 135.758  0.00  0.00    +0.000 A 
ATOM      8  C   UNL     1     110.482 128.932 136.000  0.00  0.00    +0.000 A 
ATOM      9  C   UNL     1     110.657 131.408 136.499  0.00  0.00    +0.000 A 
ATOM     10  C   UNL     1     109.397 131.633 135.866  0.00  0.00    +0.000 A 
ATOM     11  C   UNL     1     110.058 131.923 136.265  0.00  0.00    +0.000 A 
ENDROOT
BRANCH   5  12
ATOM     12  C   UNL     1     111.772 128.721 136.651  0.00  0.00    +0.000 A 
ATOM     13  C   UNL     1     111.688 128.276 137.341  0.00  0.00    +0.000 A 
ATOM     14  C   UNL     1     112.457 128.652 136.197  0.00  0.00    +0.000 A 
ATOM     15  C   UNL     1     112.975 127.694 137.121  0.00  0.00    +0.000 A 
ATOM     16  C   UNL     1     113.058 128.140 136.432  0.00  0.00    +0.000 A 
ATOM     17  C   UNL     1     112.290 127.762 137.576  0.00  0.00    +0.000 A 
BRANCH  16  18
ATOM     18  O   UNL     1     113.743 128.071 135.977  0.00  0.00    +0.000 OA
ATOM     19  C   UNL     1     114.009 128.713 135.532  0.00  0.00    +0.000 C 
ENDBRANCH  16  18
BRANCH  17  20
ATOM     20  O   UNL     1     112.206 127.317 138.265  0.00  0.00    +0.000 OA
ATOM     21  C   UNL     1     111.701 127.576 138.864  0.00  0.00    +0.000 C 
ENDBRANCH  17  20
BRANCH  15  22
ATOM     22  O   UNL     1     113.576 127.181 137.356  0.00  0.00    +0.000 OA
BRANCH  22  23
ATOM     23  C   UNL     1     113.570 126.396 137.104  0.00  0.00    +0.000 C 
BRANCH  23  24
ATOM     24  C   UNL     1     114.161 125.878 137.355  0.00  0.00    +0.000 C 
ATOM     25  C   UNL     1     114.169 125.099 137.083  0.00  0.00    +0.000 C 
ATOM     26  C   UNL     1     114.760 124.580 137.334  0.00  0.00    +0.000 C 
ATOM     27  C   UNL     1     113.587 124.839 136.560  0.00  0.00    +0.000 C 
ENDBRANCH  23  24
ENDBRANCH  22  23
ENDBRANCH  15  22
ENDBRANCH   5  12
BRANCH   6  28
ATOM     28  O   UNL     1     108.674 130.536 135.302  0.00  0.00    +0.000 OA
ATOM     29  C   UNL     1     108.156 130.021 135.683  0.00  0.00    +0.000 C 
ENDBRANCH   6  28
BRANCH  10  30
ATOM     30  O   UNL     1     108.796 132.149 135.631  0.00  0.00    +0.000 OA
ATOM     31  C   UNL     1     108.844 132.532 134.902  0.00  0.00    +0.000 C 
ENDBRANCH  10  30
BRANCH  11  32
ATOM     32  O   UNL     1     110.118 132.730 136.429  0.00  0.00    +0.000 OA
ATOM     33  C   UNL     1     110.636 132.993 137.015  0.00  0.00    +0.000 C 
ENDBRANCH  11  32
TORSDOF 9
ENDMDL
MODEL 5
REMARK VINA RESULT:      -7.0     10.867     12.467
REMARK  Name = 44258533
REMARK  9 active torsions:
REMARK  status: ('A' for Active; 'I' for Inactive)
REMARK    1  A    between atoms: O_2  and  C_13
REMARK    2  A    between atoms: O_3  and  C_21
REMARK    3  A    between atoms: O_3  and  C_24
REMARK    4  A    between atoms: O_4  and  C_17
REMARK    5  A    between atoms: O_5  and  C_18
REMARK    6  A    between atoms: O_6  and  C_22
REMARK    7  A    between atoms: O_7  and  C_23
REMARK    8  A    between atoms: C_11  and  C_12
REMARK    9  A    between atoms: C_24  and  C_25
REMARK                            x       y       z     vdW  Elec       q    Type
REMARK                         _______ _______ _______ _____ _____    ______ ____
ROOT
ATOM      1  O   UNL     1     104.203 125.367 146.789  0.00  0.00    +0.000 OA
ATOM      2  O   UNL     1     104.123 123.090 145.684  0.00  0.00    +0.000 OA
ATOM      3  C   UNL     1     103.550 124.069 146.604  0.00  0.00    +0.000 A 
ATOM      4  C   UNL     1     103.573 124.810 146.965  0.00  0.00    +0.000 A 
ATOM      5  C   UNL     1     104.817 125.149 146.228  0.00  0.00    +0.000 A 
ATOM      6  C   UNL     1     102.939 123.542 146.782  0.00  0.00    +0.000 A 
ATOM      7  C   UNL     1     104.154 123.833 146.041  0.00  0.00    +0.000 A 
ATOM      8  C   UNL     1     104.792 124.377 145.852  0.00  0.00    +0.000 A 
ATOM      9  C   UNL     1     102.986 125.025 147.504  0.00  0.00    +0.000 A 
ATOM     10  C   UNL     1     102.353 123.758 147.321  0.00  0.00    +0.000 A 
ATOM     11  C   UNL     1     102.377 124.499 147.682  0.00  0.00    +0.000 A 
ENDROOT
BRANCH   5  12
ATOM     12  C   UNL     1     105.426 125.678 146.052  0.00  0.00    +0.000 A 
ATOM     13  C   UNL     1     105.394 126.128 145.362  0.00  0.00    +0.000 A 
ATOM     14  C   UNL     1     106.066 125.755 146.567  0.00  0.00    +0.000 A 
ATOM     15  C   UNL     1     106.644 126.734 145.701  0.00  0.00    +0.000 A 
ATOM     16  C   UNL     1     106.674 126.283 146.391  0.00  0.00    +0.000 A 
ATOM     17  C   UNL     1     106.004 126.657 145.186  0.00  0.00    +0.000 A 
BRANCH  16  18
ATOM     18  O   UNL     1     107.314 126.360 146.906  0.00  0.00    +0.000 OA
ATOM     19  C   UNL     1     107.479 125.765 147.452  0.00  0.00    +0.000 C 
ENDBRANCH  16  18
BRANCH  17  20
ATOM     20  O   UNL     1     105.972 127.108 144.496  0.00  0.00    +0.000 OA
ATOM     21  C   UNL     1     105.557 126.829 143.840  0.00  0.00    +0.000 C 
ENDBRANCH  17  20
BRANCH  15  22
ATOM     22  O   UNL     1     107.252 127.262 145.526  0.00  0.00    +0.000 OA
BRANCH  22  23
ATOM     23  C   UNL     1     107.189 128.053 145.750  0.00  0.00    +0.000 C 
BRANCH  23  24
ATOM     24  C   UNL     1     107.797 128.582 145.571  0.00  0.00    +0.000 C 
ATOM     25  C   UNL     1     107.719 129.380 145.766  0.00  0.00    +0.000 C 
ATOM     26  C   UNL     1     108.326 129.910 145.587  0.00  0.00    +0.000 C 
ATOM     27  C   UNL     1     107.034 129.649 146.139  0.00  0.00    +0.000 C 
ENDBRANCH  23  24
ENDBRANCH  22  23
ENDBRANCH  15  22
ENDBRANCH   5  12
BRANCH   6  28
ATOM     28  O   UNL     1     102.916 122.801 146.420  0.00  0.00    +0.000 OA
ATOM     29  C   UNL     1     102.737 122.739 145.618  0.00  0.00    +0.000 C 
ENDBRANCH   6  28
BRANCH  10  30
ATOM     30  O   UNL     1     101.743 123.231 147.498  0.00  0.00    +0.000 OA
ATOM     31  C   UNL     1     101.774 122.783 148.190  0.00  0.00    +0.000 C 
ENDBRANCH  10  30
BRANCH  11  32
ATOM     32  O   UNL     1     101.790 124.713 148.221  0.00  0.00    +0.000 OA
ATOM     33  C   UNL     1     101.722 125.498 148.466  0.00  0.00    +0.000 C 
ENDBRANCH  11  32
TORSDOF 9
ENDMDL
MODEL 6
REMARK VINA RESULT:      -7.0      1.929      5.823
REMARK  Name = 44258533
REMARK  9 active torsions:
REMARK  status: ('A' for Active; 'I' for Inactive)
REMARK    1  A    between atoms: O_2  and  C_13
REMARK    2  A    between atoms: O_3  and  C_21
REMARK    3  A    between atoms: O_3  and  C_24
REMARK    4  A    between atoms: O_4  and  C_17
REMARK    5  A    between atoms: O_5  and  C_18
REMARK    6  A    between atoms: O_6  and  C_22
REMARK    7  A    between atoms: O_7  and  C_23
REMARK    8  A    between atoms: C_11  and  C_12
REMARK    9  A    between atoms: C_24  and  C_25
REMARK                            x       y       z     vdW  Elec       q    Type
REMARK                         _______ _______ _______ _____ _____    ______ ____
ROOT
ATOM      1  O   UNL     1     110.571 129.040 137.179  0.00  0.00    +0.000 OA
ATOM      2  O   UNL     1     109.742 130.329 135.163  0.00  0.00    +0.000 OA
ATOM      3  C   UNL     1     109.701 130.066 136.599  0.00  0.00    +0.000 A 
ATOM      4  C   UNL     1     109.969 129.647 137.258  0.00  0.00    +0.000 A 
ATOM      5  C   UNL     1     110.899 128.866 136.403  0.00  0.00    +0.000 A 
ATOM      6  C   UNL     1     109.121 130.648 136.687  0.00  0.00    +0.000 A 
ATOM      7  C   UNL     1     110.016 129.906 135.816  0.00  0.00    +0.000 A 
ATOM      8  C   UNL     1     110.620 129.302 135.718  0.00  0.00    +0.000 A 
ATOM      9  C   UNL     1     109.657 129.810 138.004  0.00  0.00    +0.000 A 
ATOM     10  C   UNL     1     108.811 130.809 137.434  0.00  0.00    +0.000 A 
ATOM     11  C   UNL     1     109.079 130.391 138.093  0.00  0.00    +0.000 A 
ENDROOT
BRANCH   5  12
ATOM     12  C   UNL     1     111.478 128.284 136.318  0.00  0.00    +0.000 A 
ATOM     13  C   UNL     1     112.275 128.494 136.309  0.00  0.00    +0.000 A 
ATOM     14  C   UNL     1     111.259 127.493 136.242  0.00  0.00    +0.000 A 
ATOM     15  C   UNL     1     112.635 127.120 136.147  0.00  0.00    +0.000 A 
ATOM     16  C   UNL     1     111.836 126.911 136.156  0.00  0.00    +0.000 A 
ATOM     17  C   UNL     1     112.854 127.912 136.223  0.00  0.00    +0.000 A 
BRANCH  16  18
ATOM     18  O   UNL     1     111.617 126.119 136.080  0.00  0.00    +0.000 OA
ATOM     19  C   UNL     1     110.863 125.924 135.810  0.00  0.00    +0.000 C 
ENDBRANCH  16  18
BRANCH  17  20
ATOM     20  O   UNL     1     113.652 128.122 136.214  0.00  0.00    +0.000 OA
ATOM     21  C   UNL     1     113.874 128.889 136.007  0.00  0.00    +0.000 C 
ENDBRANCH  17  20
BRANCH  15  22
ATOM     22  O   UNL     1     113.213 126.539 136.061  0.00  0.00    +0.000 OA
BRANCH  22  23
ATOM     23  C   UNL     1     113.536 126.178 136.729  0.00  0.00    +0.000 C 
BRANCH  23  24
ATOM     24  C   UNL     1     114.069 125.553 136.643  0.00  0.00    +0.000 C 
ATOM     25  C   UNL     1     114.424 125.219 137.309  0.00  0.00    +0.000 C 
ATOM     26  C   UNL     1     114.956 124.595 137.223  0.00  0.00    +0.000 C 
ATOM     27  C   UNL     1     114.246 125.510 138.060  0.00  0.00    +0.000 C 
ENDBRANCH  23  24
ENDBRANCH  22  23
ENDBRANCH  15  22
ENDBRANCH   5  12
BRANCH   6  28
ATOM     28  O   UNL     1     108.853 131.066 136.029  0.00  0.00    +0.000 OA
ATOM     29  C   UNL     1     108.418 130.680 135.445  0.00  0.00    +0.000 C 
ENDBRANCH   6  28
BRANCH  10  30
ATOM     30  O   UNL     1     108.231 131.391 137.522  0.00  0.00    +0.000 OA
ATOM     31  C   UNL     1     108.443 132.150 137.767  0.00  0.00    +0.000 C 
ENDBRANCH  10  30
BRANCH  11  32
ATOM     32  O   UNL     1     108.767 130.554 138.839  0.00  0.00    +0.000 OA
ATOM     33  C   UNL     1     109.007 130.109 139.491  0.00  0.00    +0.000 C 
ENDBRANCH  11  32
TORSDOF 9
ENDMDL
MODEL 7
REMARK VINA RESULT:      -6.8      2.261      5.324
REMARK  Name = 44258533
REMARK  9 active torsions:
REMARK  status: ('A' for Active; 'I' for Inactive)
REMARK    1  A    between atoms: O_2  and  C_13
REMARK    2  A    between atoms: O_3  and  C_21
REMARK    3  A    between atoms: O_3  and  C_24
REMARK    4  A    between atoms: O_4  and  C_17
REMARK    5  A    between atoms: O_5  and  C_18
REMARK    6  A    between atoms: O_6  and  C_22
REMARK    7  A    between atoms: O_7  and  C_23
REMARK    8  A    between atoms: C_11  and  C_12
REMARK    9  A    between atoms: C_24  and  C_25
REMARK                            x       y       z     vdW  Elec       q    Type
REMARK                         _______ _______ _______ _____ _____    ______ ____
ROOT
ATOM      1  O   UNL     1     112.502 128.996 139.377  0.00  0.00    +0.000 OA
ATOM      2  O   UNL     1     114.284 130.789 139.232  0.00  0.00    +0.000 OA
ATOM      3  C   UNL     1     113.333 130.015 140.024  0.00  0.00    +0.000 A 
ATOM      4  C   UNL     1     112.752 129.431 140.075  0.00  0.00    +0.000 A 
ATOM      5  C   UNL     1     112.863 129.171 138.617  0.00  0.00    +0.000 A 
ATOM      6  C   UNL     1     113.564 130.426 140.702  0.00  0.00    +0.000 A 
ATOM      7  C   UNL     1     113.704 130.204 139.273  0.00  0.00    +0.000 A 
ATOM      8  C   UNL     1     113.467 129.779 138.564  0.00  0.00    +0.000 A 
ATOM      9  C   UNL     1     112.403 129.259 140.802  0.00  0.00    +0.000 A 
ATOM     10  C   UNL     1     113.215 130.253 141.428  0.00  0.00    +0.000 A 
ATOM     11  C   UNL     1     112.634 129.669 141.479  0.00  0.00    +0.000 A 
ENDROOT
BRANCH   5  12
ATOM     12  C   UNL     1     112.629 128.759 137.941  0.00  0.00    +0.000 A 
ATOM     13  C   UNL     1     112.105 129.105 137.406  0.00  0.00    +0.000 A 
ATOM     14  C   UNL     1     112.920 127.999 137.801  0.00  0.00    +0.000 A 
ATOM     15  C   UNL     1     112.163 127.932 136.591  0.00  0.00    +0.000 A 
ATOM     16  C   UNL     1     112.687 127.587 137.127  0.00  0.00    +0.000 A 
ATOM     17  C   UNL     1     111.872 128.692 136.731  0.00  0.00    +0.000 A 
BRANCH  16  18
ATOM     18  O   UNL     1     112.978 126.827 136.986  0.00  0.00    +0.000 OA
ATOM     19  C   UNL     1     113.638 126.556 137.399  0.00  0.00    +0.000 C 
ENDBRANCH  16  18
BRANCH  17  20
ATOM     20  O   UNL     1     111.348 129.038 136.196  0.00  0.00    +0.000 OA
ATOM     21  C   UNL     1     111.200 129.849 136.231  0.00  0.00    +0.000 C 
ENDBRANCH  17  20
BRANCH  15  22
ATOM     22  O   UNL     1     111.930 127.520 135.916  0.00  0.00    +0.000 OA
BRANCH  22  23
ATOM     23  C   UNL     1     111.259 127.040 135.938  0.00  0.00    +0.000 C 
BRANCH  23  24
ATOM     24  C   UNL     1     111.031 126.620 135.264  0.00  0.00    +0.000 C 
ATOM     25  C   UNL     1     110.357 126.145 135.284  0.00  0.00    +0.000 C 
ATOM     26  C   UNL     1     110.129 125.725 134.612  0.00  0.00    +0.000 C 
ATOM     27  C   UNL     1     109.912 126.089 135.977  0.00  0.00    +0.000 C 
ENDBRANCH  23  24
ENDBRANCH  22  23
ENDBRANCH  15  22
ENDBRANCH   5  12
BRANCH   6  28
ATOM     28  O   UNL     1     114.145 131.010 140.651  0.00  0.00    +0.000 OA
ATOM     29  C   UNL     1     114.934 130.798 140.539  0.00  0.00    +0.000 C 
ENDBRANCH   6  28
BRANCH  10  30
ATOM     30  O   UNL     1     113.446 130.665 142.106  0.00  0.00    +0.000 OA
ATOM     31  C   UNL     1     112.986 131.290 142.385  0.00  0.00    +0.000 C 
ENDBRANCH  10  30
BRANCH  11  32
ATOM     32  O   UNL     1     112.285 129.497 142.206  0.00  0.00    +0.000 OA
ATOM     33  C   UNL     1     111.833 128.813 142.294  0.00  0.00    +0.000 C 
ENDBRANCH  11  32
TORSDOF 9
ENDMDL
MODEL 8
REMARK VINA RESULT:      -6.8      1.804      6.115
REMARK  Name = 44258533
REMARK  9 active torsions:
REMARK  status: ('A' for Active; 'I' for Inactive)
REMARK    1  A    between atoms: O_2  and  C_13
REMARK    2  A    between atoms: O_3  and  C_21
REMARK    3  A    between atoms: O_3  and  C_24
REMARK    4  A    between atoms: O_4  and  C_17
REMARK    5  A    between atoms: O_5  and  C_18
REMARK    6  A    between atoms: O_6  and  C_22
REMARK    7  A    between atoms: O_7  and  C_23
REMARK    8  A    between atoms: C_11  and  C_12
REMARK    9  A    between atoms: C_24  and  C_25
REMARK                            x       y       z     vdW  Elec       q    Type
REMARK                         _______ _______ _______ _____ _____    ______ ____
ROOT
ATOM      1  O   UNL     1     110.797 129.153 136.811  0.00  0.00    +0.000 OA
ATOM      2  O   UNL     1     108.470 130.093 136.474  0.00  0.00    +0.000 OA
ATOM      3  C   UNL     1     109.900 130.304 136.686  0.00  0.00    +0.000 A 
ATOM      4  C   UNL     1     110.659 130.000 136.796  0.00  0.00    +0.000 A 
ATOM      5  C   UNL     1     110.135 128.613 136.710  0.00  0.00    +0.000 A 
ATOM      6  C   UNL     1     109.780 131.121 136.674  0.00  0.00    +0.000 A 
ATOM      7  C   UNL     1     109.226 129.781 136.583  0.00  0.00    +0.000 A 
ATOM      8  C   UNL     1     109.345 128.929 136.595  0.00  0.00    +0.000 A 
ATOM      9  C   UNL     1     111.298 130.513 136.894  0.00  0.00    +0.000 A 
ATOM     10  C   UNL     1     110.419 131.632 136.772  0.00  0.00    +0.000 A 
ATOM     11  C   UNL     1     111.178 131.329 136.882  0.00  0.00    +0.000 A 
ENDROOT
BRANCH   5  12
ATOM     12  C   UNL     1     110.258 127.798 136.723  0.00  0.00    +0.000 A 
ATOM     13  C   UNL     1     110.233 127.388 137.438  0.00  0.00    +0.000 A 
ATOM     14  C   UNL     1     110.406 127.392 136.020  0.00  0.00    +0.000 A 
ATOM     15  C   UNL     1     110.503 126.166 136.747  0.00  0.00    +0.000 A 
ATOM     16  C   UNL     1     110.528 126.577 136.032  0.00  0.00    +0.000 A 
ATOM     17  C   UNL     1     110.356 126.571 137.450  0.00  0.00    +0.000 A 
BRANCH  16  18
ATOM     18  O   UNL     1     110.676 126.171 135.329  0.00  0.00    +0.000 OA
ATOM     19  C   UNL     1     110.403 126.474 134.612  0.00  0.00    +0.000 C 
ENDBRANCH  16  18
BRANCH  17  20
ATOM     20  O   UNL     1     110.330 126.162 138.166  0.00  0.00    +0.000 OA
ATOM     21  C   UNL     1     109.939 126.488 138.815  0.00  0.00    +0.000 C 
ENDBRANCH  17  20
BRANCH  15  22
ATOM     22  O   UNL     1     110.626 125.351 136.760  0.00  0.00    +0.000 OA
BRANCH  22  23
ATOM     23  C   UNL     1     111.391 125.050 136.834  0.00  0.00    +0.000 C 
BRANCH  23  24
ATOM     24  C   UNL     1     111.509 124.236 136.898  0.00  0.00    +0.000 C 
ATOM     25  C   UNL     1     112.276 123.933 136.936  0.00  0.00    +0.000 C 
ATOM     26  C   UNL     1     112.395 123.119 137.000  0.00  0.00    +0.000 C 
ATOM     27  C   UNL     1     112.923 124.443 136.908  0.00  0.00    +0.000 C 
ENDBRANCH  23  24
ENDBRANCH  22  23
ENDBRANCH  15  22
ENDBRANCH   5  12
BRANCH   6  28
ATOM     28  O   UNL     1     109.021 131.424 136.564  0.00  0.00    +0.000 OA
ATOM     29  C   UNL     1     108.653 131.358 135.829  0.00  0.00    +0.000 C 
ENDBRANCH   6  28
BRANCH  10  30
ATOM     30  O   UNL     1     110.299 132.449 136.759  0.00  0.00    +0.000 OA
ATOM     31  C   UNL     1     110.222 132.865 137.468  0.00  0.00    +0.000 C 
ENDBRANCH  10  30
BRANCH  11  32
ATOM     32  O   UNL     1     111.817 131.842 136.980  0.00  0.00    +0.000 OA
ATOM     33  C   UNL     1     112.588 131.548 136.962  0.00  0.00    +0.000 C 
ENDBRANCH  11  32
TORSDOF 9
ENDMDL
