MODEL 1
REMARK VINA RESULT:      -9.7      0.000      0.000
REMARK  Name = 44258011
REMARK  7 active torsions:
REMARK  status: ('A' for Active; 'I' for Inactive)
REMARK    1  A    between atoms: O_1  and  C_17
REMARK    2  A    between atoms: O_1  and  C_22
REMARK    3  A    between atoms: O_4  and  C_21
REMARK    4  A    between atoms: O_4  and  C_28
REMARK    5  A    between atoms: O_15  and  C_40
REMARK    6  A    between atoms: C_20  and  C_26
REMARK    7  A    between atoms: C_29  and  C_32
REMARK                            x       y       z     vdW  Elec       q    Type
REMARK                         _______ _______ _______ _____ _____    ______ ____
ROOT
ATOM      1  O   UNL     1     113.351 126.165 138.996  0.00  0.00    +0.000 OA
ATOM      2  O   UNL     1     112.449 128.427 138.553  0.00  0.00    +0.000 OA
ATOM      3  O   UNL     1     113.153 128.963 139.692  0.00  0.00    +0.000 OA
ATOM      4  O   UNL     1     114.801 127.176 141.310  0.00  0.00    +0.000 OA
ATOM      5  C   UNL     1     112.546 127.044 138.208  0.00  0.00    +0.000 A 
ATOM      6  C   UNL     1     112.846 126.289 138.355  0.00  0.00    +0.000 A 
ATOM      7  C   UNL     1     112.749 127.673 138.700  0.00  0.00    +0.000 A 
ATOM      8  C   UNL     1     113.253 127.548 139.341  0.00  0.00    +0.000 A 
ATOM      9  C   UNL     1     113.554 126.795 139.490  0.00  0.00    +0.000 A 
ATOM     10  C   UNL     1     113.459 128.212 139.848  0.00  0.00    +0.000 A 
ATOM     11  C   UNL     1     114.081 126.652 140.154  0.00  0.00    +0.000 A 
ATOM     12  C   UNL     1     113.983 128.089 140.517  0.00  0.00    +0.000 A 
ATOM     13  C   UNL     1     114.296 127.304 140.670  0.00  0.00    +0.000 A 
ENDROOT
BRANCH   6  15
ATOM     14  O   UNL     1     112.031 123.771 136.385  0.00  0.00    +0.000 OA
ATOM     15  C   UNL     1     112.643 125.660 137.863  0.00  0.00    +0.000 A 
ATOM     16  C   UNL     1     113.158 125.420 137.265  0.00  0.00    +0.000 A 
ATOM     17  C   UNL     1     111.923 125.270 137.968  0.00  0.00    +0.000 A 
ATOM     18  C   UNL     1     112.955 124.791 136.773  0.00  0.00    +0.000 A 
ATOM     19  C   UNL     1     111.719 124.640 137.475  0.00  0.00    +0.000 A 
ATOM     20  C   UNL     1     112.235 124.401 136.878  0.00  0.00    +0.000 A 
BRANCH  18  21
ATOM     21  O   UNL     1     113.470 124.551 136.175  0.00  0.00    +0.000 OA
ATOM     22  C   UNL     1     114.285 124.586 136.295  0.00  0.00    +0.000 C 
ENDBRANCH  18  21
ENDBRANCH   6  15
BRANCH   5  23
ATOM     23  O   UNL     1     112.041 127.168 137.567  0.00  0.00    +0.000 OA
BRANCH  23  31
ATOM     24  O   UNL     1     113.008 127.859 136.773  0.00  0.00    +0.000 OA
ATOM     25  O   UNL     1     111.207 129.227 135.769  0.00  0.00    +0.000 OA
ATOM     26  O   UNL     1     112.774 129.461 135.311  0.00  0.00    +0.000 OA
ATOM     27  C   UNL     1     111.623 128.197 136.668  0.00  0.00    +0.000 C 
ATOM     28  C   UNL     1     111.807 128.771 136.104  0.00  0.00    +0.000 C 
ATOM     29  C   UNL     1     112.590 128.888 135.874  0.00  0.00    +0.000 C 
ATOM     30  C   UNL     1     113.191 128.432 136.209  0.00  0.00    +0.000 C 
ATOM     31  C   UNL     1     112.224 127.741 137.003  0.00  0.00    +0.000 C 
BRANCH  30  33
ATOM     32  O   UNL     1     114.400 127.930 135.637  0.00  0.00    +0.000 OA
ATOM     33  C   UNL     1     113.975 128.549 135.980  0.00  0.00    +0.000 C 
ENDBRANCH  30  33
BRANCH  27  34
ATOM     34  O   UNL     1     110.840 128.080 136.897  0.00  0.00    +0.000 OA
BRANCH  34  39
ATOM     35  O   UNL     1     110.602 127.333 135.702  0.00  0.00    +0.000 OA
ATOM     36  O   UNL     1     109.276 127.833 137.362  0.00  0.00    +0.000 OA
ATOM     37  O   UNL     1     108.257 126.964 136.400  0.00  0.00    +0.000 OA
ATOM     38  O   UNL     1     108.801 126.340 134.972  0.00  0.00    +0.000 OA
ATOM     39  C   UNL     1     110.331 127.645 136.416  0.00  0.00    +0.000 C 
ATOM     40  C   UNL     1     109.548 127.522 136.649  0.00  0.00    +0.000 C 
ATOM     41  C   UNL     1     109.038 127.087 136.167  0.00  0.00    +0.000 C 
ATOM     42  C   UNL     1     109.311 126.775 135.453  0.00  0.00    +0.000 C 
ATOM     43  C   UNL     1     110.092 126.898 135.221  0.00  0.00    +0.000 C 
ENDBRANCH  34  39
ENDBRANCH  27  34
ENDBRANCH  23  31
ENDBRANCH   5  23
TORSDOF 7
ENDMDL
MODEL 2
REMARK VINA RESULT:      -9.6      2.181      4.166
REMARK  Name = 44258011
REMARK  7 active torsions:
REMARK  status: ('A' for Active; 'I' for Inactive)
REMARK    1  A    between atoms: O_1  and  C_17
REMARK    2  A    between atoms: O_1  and  C_22
REMARK    3  A    between atoms: O_4  and  C_21
REMARK    4  A    between atoms: O_4  and  C_28
REMARK    5  A    between atoms: O_15  and  C_40
REMARK    6  A    between atoms: C_20  and  C_26
REMARK    7  A    between atoms: C_29  and  C_32
REMARK                            x       y       z     vdW  Elec       q    Type
REMARK                         _______ _______ _______ _____ _____    ______ ____
ROOT
ATOM      1  O   UNL     1     113.680 126.177 138.646  0.00  0.00    +0.000 OA
ATOM      2  O   UNL     1     111.575 125.235 137.747  0.00  0.00    +0.000 OA
ATOM      3  O   UNL     1     112.307 124.423 136.805  0.00  0.00    +0.000 OA
ATOM      4  O   UNL     1     115.223 124.567 136.773  0.00  0.00    +0.000 OA
ATOM      5  C   UNL     1     112.253 126.102 138.658  0.00  0.00    +0.000 A 
ATOM      6  C   UNL     1     112.955 126.417 138.958  0.00  0.00    +0.000 A 
ATOM      7  C   UNL     1     112.276 125.549 138.047  0.00  0.00    +0.000 A 
ATOM      8  C   UNL     1     113.002 125.309 137.736  0.00  0.00    +0.000 A 
ATOM      9  C   UNL     1     113.704 125.623 138.035  0.00  0.00    +0.000 A 
ATOM     10  C   UNL     1     113.014 124.731 137.099  0.00  0.00    +0.000 A 
ATOM     11  C   UNL     1     114.465 125.382 137.719  0.00  0.00    +0.000 A 
ATOM     12  C   UNL     1     113.766 124.478 136.770  0.00  0.00    +0.000 A 
ATOM     13  C   UNL     1     114.496 124.805 137.083  0.00  0.00    +0.000 A 
ENDROOT
BRANCH   6  15
ATOM     14  O   UNL     1     112.861 128.631 141.403  0.00  0.00    +0.000 OA
ATOM     15  C   UNL     1     112.931 126.970 139.569  0.00  0.00    +0.000 A 
ATOM     16  C   UNL     1     112.983 127.776 139.399  0.00  0.00    +0.000 A 
ATOM     17  C   UNL     1     112.856 126.718 140.351  0.00  0.00    +0.000 A 
ATOM     18  C   UNL     1     112.960 128.329 140.009  0.00  0.00    +0.000 A 
ATOM     19  C   UNL     1     112.832 127.272 140.962  0.00  0.00    +0.000 A 
ATOM     20  C   UNL     1     112.885 128.077 140.791  0.00  0.00    +0.000 A 
BRANCH  18  21
ATOM     21  O   UNL     1     113.012 129.135 139.839  0.00  0.00    +0.000 OA
ATOM     22  C   UNL     1     113.546 129.402 139.269  0.00  0.00    +0.000 C 
ENDBRANCH  18  21
ENDBRANCH   6  15
BRANCH   5  23
ATOM     23  O   UNL     1     111.528 126.342 138.970  0.00  0.00    +0.000 OA
BRANCH  23  31
ATOM     24  O   UNL     1     111.151 127.128 137.838  0.00  0.00    +0.000 OA
ATOM     25  O   UNL     1     108.774 126.568 138.240  0.00  0.00    +0.000 OA
ATOM     26  O   UNL     1     109.190 127.541 136.975  0.00  0.00    +0.000 OA
ATOM     27  C   UNL     1     110.151 126.455 138.605  0.00  0.00    +0.000 C 
ATOM     28  C   UNL     1     109.566 126.755 138.106  0.00  0.00    +0.000 C 
ATOM     29  C   UNL     1     109.774 127.241 137.473  0.00  0.00    +0.000 C 
ATOM     30  C   UNL     1     110.566 127.428 137.339  0.00  0.00    +0.000 C 
ATOM     31  C   UNL     1     110.943 126.642 138.471  0.00  0.00    +0.000 C 
BRANCH  30  33
ATOM     32  O   UNL     1     111.135 128.643 136.848  0.00  0.00    +0.000 OA
ATOM     33  C   UNL     1     110.774 127.914 136.706  0.00  0.00    +0.000 C 
ENDBRANCH  30  33
BRANCH  27  34
ATOM     34  O   UNL     1     109.943 125.969 139.238  0.00  0.00    +0.000 OA
BRANCH  34  39
ATOM     35  O   UNL     1     109.567 127.117 140.001  0.00  0.00    +0.000 OA
ATOM     36  O   UNL     1     109.394 124.987 140.445  0.00  0.00    +0.000 OA
ATOM     37  O   UNL     1     108.743 125.644 141.811  0.00  0.00    +0.000 OA
ATOM     38  O   UNL     1     108.642 127.283 141.971  0.00  0.00    +0.000 OA
ATOM     39  C   UNL     1     109.618 126.297 139.921  0.00  0.00    +0.000 C 
ATOM     40  C   UNL     1     109.343 125.806 140.525  0.00  0.00    +0.000 C 
ATOM     41  C   UNL     1     109.017 126.135 141.208  0.00  0.00    +0.000 C 
ATOM     42  C   UNL     1     108.967 126.955 141.288  0.00  0.00    +0.000 C 
ATOM     43  C   UNL     1     109.242 127.445 140.685  0.00  0.00    +0.000 C 
ENDBRANCH  34  39
ENDBRANCH  27  34
ENDBRANCH  23  31
ENDBRANCH   5  23
TORSDOF 7
ENDMDL
MODEL 3
REMARK VINA RESULT:      -9.6      2.728      4.548
REMARK  Name = 44258011
REMARK  7 active torsions:
REMARK  status: ('A' for Active; 'I' for Inactive)
REMARK    1  A    between atoms: O_1  and  C_17
REMARK    2  A    between atoms: O_1  and  C_22
REMARK    3  A    between atoms: O_4  and  C_21
REMARK    4  A    between atoms: O_4  and  C_28
REMARK    5  A    between atoms: O_15  and  C_40
REMARK    6  A    between atoms: C_20  and  C_26
REMARK    7  A    between atoms: C_29  and  C_32
REMARK                            x       y       z     vdW  Elec       q    Type
REMARK                         _______ _______ _______ _____ _____    ______ ____
ROOT
ATOM      1  O   UNL     1     111.817 128.152 138.267  0.00  0.00    +0.000 OA
ATOM      2  O   UNL     1     109.434 128.777 138.514  0.00  0.00    +0.000 OA
ATOM      3  O   UNL     1     109.167 127.575 139.266  0.00  0.00    +0.000 OA
ATOM      4  O   UNL     1     111.352 125.706 139.778  0.00  0.00    +0.000 OA
ATOM      5  C   UNL     1     110.744 129.063 138.019  0.00  0.00    +0.000 A 
ATOM      6  C   UNL     1     111.539 128.855 137.937  0.00  0.00    +0.000 A 
ATOM      7  C   UNL     1     110.229 128.569 138.431  0.00  0.00    +0.000 A 
ATOM      8  C   UNL     1     110.507 127.866 138.761  0.00  0.00    +0.000 A 
ATOM      9  C   UNL     1     111.301 127.657 138.679  0.00  0.00    +0.000 A 
ATOM     10  C   UNL     1     109.960 127.358 139.189  0.00  0.00    +0.000 A 
ATOM     11  C   UNL     1     111.603 126.928 139.018  0.00  0.00    +0.000 A 
ATOM     12  C   UNL     1     110.244 126.625 139.534  0.00  0.00    +0.000 A 
ATOM     13  C   UNL     1     111.071 126.409 139.449  0.00  0.00    +0.000 A 
ENDROOT
BRANCH   6  15
ATOM     14  O   UNL     1     113.602 130.834 136.288  0.00  0.00    +0.000 OA
ATOM     15  C   UNL     1     112.054 129.349 137.525  0.00  0.00    +0.000 A 
ATOM     16  C   UNL     1     112.204 129.215 136.725  0.00  0.00    +0.000 A 
ATOM     17  C   UNL     1     112.420 129.979 137.913  0.00  0.00    +0.000 A 
ATOM     18  C   UNL     1     112.720 129.709 136.313  0.00  0.00    +0.000 A 
ATOM     19  C   UNL     1     112.936 130.474 137.500  0.00  0.00    +0.000 A 
ATOM     20  C   UNL     1     113.086 130.339 136.700  0.00  0.00    +0.000 A 
BRANCH  18  21
ATOM     21  O   UNL     1     112.870 129.575 135.512  0.00  0.00    +0.000 OA
ATOM     22  C   UNL     1     112.999 128.807 135.241  0.00  0.00    +0.000 C 
ENDBRANCH  18  21
ENDBRANCH   6  15
BRANCH   5  23
ATOM     23  O   UNL     1     110.466 129.766 137.689  0.00  0.00    +0.000 OA
BRANCH  23  31
ATOM     24  O   UNL     1     109.744 129.131 136.633  0.00  0.00    +0.000 OA
ATOM     25  O   UNL     1     108.072 130.955 136.679  0.00  0.00    +0.000 OA
ATOM     26  O   UNL     1     107.907 129.712 135.607  0.00  0.00    +0.000 OA
ATOM     27  C   UNL     1     109.269 130.361 137.184  0.00  0.00    +0.000 C 
ATOM     28  C   UNL     1     108.629 130.347 136.663  0.00  0.00    +0.000 C 
ATOM     29  C   UNL     1     108.546 129.726 136.128  0.00  0.00    +0.000 C 
ATOM     30  C   UNL     1     109.104 129.118 136.112  0.00  0.00    +0.000 C 
ATOM     31  C   UNL     1     109.826 129.753 137.169  0.00  0.00    +0.000 C 
BRANCH  30  33
ATOM     32  O   UNL     1     109.562 128.412 134.957  0.00  0.00    +0.000 OA
ATOM     33  C   UNL     1     109.022 128.496 135.576  0.00  0.00    +0.000 C 
ENDBRANCH  30  33
BRANCH  27  34
ATOM     34  O   UNL     1     109.351 130.982 137.720  0.00  0.00    +0.000 OA
BRANCH  34  39
ATOM     35  O   UNL     1     109.841 131.823 136.674  0.00  0.00    +0.000 OA
ATOM     36  O   UNL     1     109.629 132.185 138.815  0.00  0.00    +0.000 OA
ATOM     37  O   UNL     1     110.257 133.626 138.316  0.00  0.00    +0.000 OA
ATOM     38  O   UNL     1     110.608 133.866 136.722  0.00  0.00    +0.000 OA
ATOM     39  C   UNL     1     109.666 131.703 137.470  0.00  0.00    +0.000 C 
ATOM     40  C   UNL     1     109.805 132.305 138.018  0.00  0.00    +0.000 C 
ATOM     41  C   UNL     1     110.119 133.026 137.769  0.00  0.00    +0.000 C 
ATOM     42  C   UNL     1     110.294 133.145 136.971  0.00  0.00    +0.000 C 
ATOM     43  C   UNL     1     110.155 132.544 136.424  0.00  0.00    +0.000 C 
ENDBRANCH  34  39
ENDBRANCH  27  34
ENDBRANCH  23  31
ENDBRANCH   5  23
TORSDOF 7
ENDMDL
MODEL 4
REMARK VINA RESULT:      -9.5      1.511      4.012
REMARK  Name = 44258011
REMARK  7 active torsions:
REMARK  status: ('A' for Active; 'I' for Inactive)
REMARK    1  A    between atoms: O_1  and  C_17
REMARK    2  A    between atoms: O_1  and  C_22
REMARK    3  A    between atoms: O_4  and  C_21
REMARK    4  A    between atoms: O_4  and  C_28
REMARK    5  A    between atoms: O_15  and  C_40
REMARK    6  A    between atoms: C_20  and  C_26
REMARK    7  A    between atoms: C_29  and  C_32
REMARK                            x       y       z     vdW  Elec       q    Type
REMARK                         _______ _______ _______ _____ _____    ______ ____
ROOT
ATOM      1  O   UNL     1     111.273 128.995 138.413  0.00  0.00    +0.000 OA
ATOM      2  O   UNL     1     111.627 128.432 136.029  0.00  0.00    +0.000 OA
ATOM      3  O   UNL     1     111.716 129.830 135.682  0.00  0.00    +0.000 OA
ATOM      4  O   UNL     1     111.440 131.835 137.786  0.00  0.00    +0.000 OA
ATOM      5  C   UNL     1     111.409 128.019 137.379  0.00  0.00    +0.000 A 
ATOM      6  C   UNL     1     111.290 128.206 138.174  0.00  0.00    +0.000 A 
ATOM      7  C   UNL     1     111.509 128.619 136.824  0.00  0.00    +0.000 A 
ATOM      8  C   UNL     1     111.492 129.409 137.063  0.00  0.00    +0.000 A 
ATOM      9  C   UNL     1     111.374 129.598 137.857  0.00  0.00    +0.000 A 
ATOM     10  C   UNL     1     111.598 130.027 136.474  0.00  0.00    +0.000 A 
ATOM     11  C   UNL     1     111.353 130.416 138.119  0.00  0.00    +0.000 A 
ATOM     12  C   UNL     1     111.581 130.851 136.717  0.00  0.00    +0.000 A 
ATOM     13  C   UNL     1     111.458 131.046 137.545  0.00  0.00    +0.000 A 
ENDROOT
BRANCH   6  15
ATOM     14  O   UNL     1     110.887 125.801 140.397  0.00  0.00    +0.000 OA
ATOM     15  C   UNL     1     111.190 127.605 138.729  0.00  0.00    +0.000 A 
ATOM     16  C   UNL     1     111.848 127.220 139.045  0.00  0.00    +0.000 A 
ATOM     17  C   UNL     1     110.431 127.389 138.969  0.00  0.00    +0.000 A 
ATOM     18  C   UNL     1     111.747 126.619 139.601  0.00  0.00    +0.000 A 
ATOM     19  C   UNL     1     110.330 126.787 139.526  0.00  0.00    +0.000 A 
ATOM     20  C   UNL     1     110.988 126.403 139.841  0.00  0.00    +0.000 A 
BRANCH  18  21
ATOM     21  O   UNL     1     112.405 126.234 139.917  0.00  0.00    +0.000 OA
ATOM     22  C   UNL     1     113.116 126.642 140.009  0.00  0.00    +0.000 C 
ENDBRANCH  18  21
ENDBRANCH   6  15
BRANCH   5  23
ATOM     23  O   UNL     1     111.426 127.229 137.140  0.00  0.00    +0.000 OA
BRANCH  23  31
ATOM     24  O   UNL     1     110.140 127.256 136.519  0.00  0.00    +0.000 OA
ATOM     25  O   UNL     1     110.907 125.587 134.860  0.00  0.00    +0.000 OA
ATOM     26  O   UNL     1     109.365 126.170 134.792  0.00  0.00    +0.000 OA
ATOM     27  C   UNL     1     111.167 126.408 136.000  0.00  0.00    +0.000 C 
ATOM     28  C   UNL     1     110.651 126.143 135.413  0.00  0.00    +0.000 C 
ATOM     29  C   UNL     1     109.880 126.434 135.378  0.00  0.00    +0.000 C 
ATOM     30  C   UNL     1     109.625 126.990 135.932  0.00  0.00    +0.000 C 
ATOM     31  C   UNL     1     110.911 126.964 136.553  0.00  0.00    +0.000 C 
BRANCH  30  33
ATOM     32  O   UNL     1     108.338 127.156 136.530  0.00  0.00    +0.000 OA
ATOM     33  C   UNL     1     108.854 127.282 135.898  0.00  0.00    +0.000 C 
ENDBRANCH  30  33
BRANCH  27  34
ATOM     34  O   UNL     1     111.938 126.117 136.034  0.00  0.00    +0.000 OA
BRANCH  34  39
ATOM     35  O   UNL     1     111.453 124.894 136.593  0.00  0.00    +0.000 OA
ATOM     36  O   UNL     1     113.488 125.577 136.199  0.00  0.00    +0.000 OA
ATOM     37  O   UNL     1     113.778 124.084 136.839  0.00  0.00    +0.000 OA
ATOM     38  O   UNL     1     112.518 123.132 137.315  0.00  0.00    +0.000 OA
ATOM     39  C   UNL     1     112.083 125.371 136.354  0.00  0.00    +0.000 C 
ATOM     40  C   UNL     1     112.859 125.100 136.437  0.00  0.00    +0.000 C 
ATOM     41  C   UNL     1     113.004 124.354 136.757  0.00  0.00    +0.000 C 
ATOM     42  C   UNL     1     112.373 123.878 136.995  0.00  0.00    +0.000 C 
ATOM     43  C   UNL     1     111.598 124.148 136.913  0.00  0.00    +0.000 C 
ENDBRANCH  34  39
ENDBRANCH  27  34
ENDBRANCH  23  31
ENDBRANCH   5  23
TORSDOF 7
ENDMDL
MODEL 5
REMARK VINA RESULT:      -9.4      1.826      3.619
REMARK  Name = 44258011
REMARK  7 active torsions:
REMARK  status: ('A' for Active; 'I' for Inactive)
REMARK    1  A    between atoms: O_1  and  C_17
REMARK    2  A    between atoms: O_1  and  C_22
REMARK    3  A    between atoms: O_4  and  C_21
REMARK    4  A    between atoms: O_4  and  C_28
REMARK    5  A    between atoms: O_15  and  C_40
REMARK    6  A    between atoms: C_20  and  C_26
REMARK    7  A    between atoms: C_29  and  C_32
REMARK                            x       y       z     vdW  Elec       q    Type
REMARK                         _______ _______ _______ _____ _____    ______ ____
ROOT
ATOM      1  O   UNL     1     113.141 127.543 136.108  0.00  0.00    +0.000 OA
ATOM      2  O   UNL     1     112.403 129.233 137.759  0.00  0.00    +0.000 OA
ATOM      3  O   UNL     1     113.304 130.213 137.203  0.00  0.00    +0.000 OA
ATOM      4  O   UNL     1     114.984 129.468 134.933  0.00  0.00    +0.000 OA
ATOM      5  C   UNL     1     112.322 127.913 137.218  0.00  0.00    +0.000 A 
ATOM      6  C   UNL     1     112.567 127.349 136.668  0.00  0.00    +0.000 A 
ATOM      7  C   UNL     1     112.649 128.669 137.209  0.00  0.00    +0.000 A 
ATOM      8  C   UNL     1     113.222 128.864 136.648  0.00  0.00    +0.000 A 
ATOM      9  C   UNL     1     113.469 128.301 136.098  0.00  0.00    +0.000 A 
ATOM     10  C   UNL     1     113.557 129.656 136.648  0.00  0.00    +0.000 A 
ATOM     11  C   UNL     1     114.065 128.490 135.509  0.00  0.00    +0.000 A 
ATOM     12  C   UNL     1     114.154 129.864 136.067  0.00  0.00    +0.000 A 
ATOM     13  C   UNL     1     114.410 129.277 135.494  0.00  0.00    +0.000 A 
ENDROOT
BRANCH   6  15
ATOM     14  O   UNL     1     111.258 124.320 136.707  0.00  0.00    +0.000 OA
ATOM     15  C   UNL     1     112.240 126.593 136.678  0.00  0.00    +0.000 A 
ATOM     16  C   UNL     1     111.617 126.405 136.170  0.00  0.00    +0.000 A 
ATOM     17  C   UNL     1     112.536 126.022 137.195  0.00  0.00    +0.000 A 
ATOM     18  C   UNL     1     111.290 125.649 136.180  0.00  0.00    +0.000 A 
ATOM     19  C   UNL     1     112.209 125.264 137.205  0.00  0.00    +0.000 A 
ATOM     20  C   UNL     1     111.586 125.078 136.697  0.00  0.00    +0.000 A 
BRANCH  18  21
ATOM     21  O   UNL     1     110.667 125.461 135.672  0.00  0.00    +0.000 OA
ATOM     22  C   UNL     1     110.638 125.790 134.916  0.00  0.00    +0.000 C 
ENDBRANCH  18  21
ENDBRANCH   6  15
BRANCH   5  23
ATOM     23  O   UNL     1     111.748 127.719 137.778  0.00  0.00    +0.000 OA
BRANCH  23  31
ATOM     24  O   UNL     1     110.703 128.478 137.168  0.00  0.00    +0.000 OA
ATOM     25  O   UNL     1     109.740 128.947 139.400  0.00  0.00    +0.000 OA
ATOM     26  O   UNL     1     109.016 129.549 138.046  0.00  0.00    +0.000 OA
ATOM     27  C   UNL     1     110.744 128.333 138.590  0.00  0.00    +0.000 C 
ATOM     28  C   UNL     1     110.061 128.791 138.656  0.00  0.00    +0.000 C 
ATOM     29  C   UNL     1     109.699 129.092 137.979  0.00  0.00    +0.000 C 
ATOM     30  C   UNL     1     110.020 128.936 137.236  0.00  0.00    +0.000 C 
ATOM     31  C   UNL     1     111.065 128.176 137.846  0.00  0.00    +0.000 C 
BRANCH  30  33
ATOM     32  O   UNL     1     109.292 128.725 136.024  0.00  0.00    +0.000 OA
ATOM     33  C   UNL     1     109.658 129.237 136.558  0.00  0.00    +0.000 C 
ENDBRANCH  30  33
BRANCH  27  34
ATOM     34  O   UNL     1     111.106 128.031 139.266  0.00  0.00    +0.000 OA
BRANCH  34  39
ATOM     35  O   UNL     1     110.114 127.006 139.341  0.00  0.00    +0.000 OA
ATOM     36  O   UNL     1     111.809 127.451 140.642  0.00  0.00    +0.000 OA
ATOM     37  O   UNL     1     111.167 126.135 141.404  0.00  0.00    +0.000 OA
ATOM     38  O   UNL     1     109.823 125.400 140.790  0.00  0.00    +0.000 OA
ATOM     39  C   UNL     1     110.786 127.373 139.647  0.00  0.00    +0.000 C 
ATOM     40  C   UNL     1     111.137 127.083 140.336  0.00  0.00    +0.000 C 
ATOM     41  C   UNL     1     110.816 126.425 140.717  0.00  0.00    +0.000 C 
ATOM     42  C   UNL     1     110.144 126.058 140.409  0.00  0.00    +0.000 C 
ATOM     43  C   UNL     1     109.793 126.348 139.722  0.00  0.00    +0.000 C 
ENDBRANCH  34  39
ENDBRANCH  27  34
ENDBRANCH  23  31
ENDBRANCH   5  23
TORSDOF 7
ENDMDL
MODEL 6
REMARK VINA RESULT:      -9.4      1.050      2.922
REMARK  Name = 44258011
REMARK  7 active torsions:
REMARK  status: ('A' for Active; 'I' for Inactive)
REMARK    1  A    between atoms: O_1  and  C_17
REMARK    2  A    between atoms: O_1  and  C_22
REMARK    3  A    between atoms: O_4  and  C_21
REMARK    4  A    between atoms: O_4  and  C_28
REMARK    5  A    between atoms: O_15  and  C_40
REMARK    6  A    between atoms: C_20  and  C_26
REMARK    7  A    between atoms: C_29  and  C_32
REMARK                            x       y       z     vdW  Elec       q    Type
REMARK                         _______ _______ _______ _____ _____    ______ ____
ROOT
ATOM      1  O   UNL     1     113.308 128.848 138.382  0.00  0.00    +0.000 OA
ATOM      2  O   UNL     1     112.597 126.604 139.149  0.00  0.00    +0.000 OA
ATOM      3  O   UNL     1     113.118 126.859 140.470  0.00  0.00    +0.000 OA
ATOM      4  O   UNL     1     114.382 129.432 141.025  0.00  0.00    +0.000 OA
ATOM      5  C   UNL     1     112.690 127.587 138.116  0.00  0.00    +0.000 A 
ATOM      6  C   UNL     1     112.927 128.335 137.860  0.00  0.00    +0.000 A 
ATOM      7  C   UNL     1     112.834 127.352 138.893  0.00  0.00    +0.000 A 
ATOM      8  C   UNL     1     113.214 127.865 139.415  0.00  0.00    +0.000 A 
ATOM      9  C   UNL     1     113.452 128.613 139.160  0.00  0.00    +0.000 A 
ATOM     10  C   UNL     1     113.359 127.609 140.223  0.00  0.00    +0.000 A 
ATOM     11  C   UNL     1     113.849 129.156 139.694  0.00  0.00    +0.000 A 
ATOM     12  C   UNL     1     113.755 128.138 140.771  0.00  0.00    +0.000 A 
ATOM     13  C   UNL     1     114.001 128.917 140.505  0.00  0.00    +0.000 A 
ENDROOT
BRANCH   6  15
ATOM     14  O   UNL     1     112.351 129.276 134.750  0.00  0.00    +0.000 OA
ATOM     15  C   UNL     1     112.783 128.570 137.083  0.00  0.00    +0.000 A 
ATOM     16  C   UNL     1     113.371 128.485 136.510  0.00  0.00    +0.000 A 
ATOM     17  C   UNL     1     112.051 128.890 136.878  0.00  0.00    +0.000 A 
ATOM     18  C   UNL     1     113.228 128.720 135.733  0.00  0.00    +0.000 A 
ATOM     19  C   UNL     1     111.907 129.126 136.099  0.00  0.00    +0.000 A 
ATOM     20  C   UNL     1     112.496 129.040 135.528  0.00  0.00    +0.000 A 
BRANCH  18  21
ATOM     21  O   UNL     1     113.815 128.635 135.160  0.00  0.00    +0.000 OA
ATOM     22  C   UNL     1     114.584 128.889 135.318  0.00  0.00    +0.000 C 
ENDBRANCH  18  21
ENDBRANCH   6  15
BRANCH   5  23
ATOM     23  O   UNL     1     112.310 127.074 137.594  0.00  0.00    +0.000 OA
BRANCH  23  31
ATOM     24  O   UNL     1     113.421 126.188 137.442  0.00  0.00    +0.000 OA
ATOM     25  O   UNL     1     111.865 124.283 137.170  0.00  0.00    +0.000 OA
ATOM     26  O   UNL     1     113.494 124.033 137.109  0.00  0.00    +0.000 OA
ATOM     27  C   UNL     1     112.086 125.678 137.382  0.00  0.00    +0.000 C 
ATOM     28  C   UNL     1     112.383 124.918 137.261  0.00  0.00    +0.000 C 
ATOM     29  C   UNL     1     113.198 124.793 137.230  0.00  0.00    +0.000 C 
ATOM     30  C   UNL     1     113.716 125.428 137.321  0.00  0.00    +0.000 C 
ATOM     31  C   UNL     1     112.605 126.314 137.473  0.00  0.00    +0.000 C 
BRANCH  30  33
ATOM     32  O   UNL     1     114.959 125.536 136.625  0.00  0.00    +0.000 OA
ATOM     33  C   UNL     1     114.531 125.303 137.291  0.00  0.00    +0.000 C 
ENDBRANCH  30  33
BRANCH  27  34
ATOM     34  O   UNL     1     111.272 125.804 137.412  0.00  0.00    +0.000 OA
BRANCH  34  39
ATOM     35  O   UNL     1     111.190 125.676 135.991  0.00  0.00    +0.000 OA
ATOM     36  O   UNL     1     109.700 126.303 137.457  0.00  0.00    +0.000 OA
ATOM     37  O   UNL     1     108.832 126.425 136.059  0.00  0.00    +0.000 OA
ATOM     38  O   UNL     1     109.536 126.047 134.616  0.00  0.00    +0.000 OA
ATOM     39  C   UNL     1     110.838 125.865 136.713  0.00  0.00    +0.000 C 
ATOM     40  C   UNL     1     110.052 126.114 136.735  0.00  0.00    +0.000 C 
ATOM     41  C   UNL     1     109.618 126.175 136.036  0.00  0.00    +0.000 C 
ATOM     42  C   UNL     1     109.970 125.986 135.315  0.00  0.00    +0.000 C 
ATOM     43  C   UNL     1     110.756 125.736 135.292  0.00  0.00    +0.000 C 
ENDBRANCH  34  39
ENDBRANCH  27  34
ENDBRANCH  23  31
ENDBRANCH   5  23
TORSDOF 7
ENDMDL
MODEL 7
REMARK VINA RESULT:      -9.4      1.582      3.825
REMARK  Name = 44258011
REMARK  7 active torsions:
REMARK  status: ('A' for Active; 'I' for Inactive)
REMARK    1  A    between atoms: O_1  and  C_17
REMARK    2  A    between atoms: O_1  and  C_22
REMARK    3  A    between atoms: O_4  and  C_21
REMARK    4  A    between atoms: O_4  and  C_28
REMARK    5  A    between atoms: O_15  and  C_40
REMARK    6  A    between atoms: C_20  and  C_26
REMARK    7  A    between atoms: C_29  and  C_32
REMARK                            x       y       z     vdW  Elec       q    Type
REMARK                         _______ _______ _______ _____ _____    ______ ____
ROOT
ATOM      1  O   UNL     1     113.526 126.742 137.363  0.00  0.00    +0.000 OA
ATOM      2  O   UNL     1     111.491 125.494 136.707  0.00  0.00    +0.000 OA
ATOM      3  O   UNL     1     112.241 124.265 136.612  0.00  0.00    +0.000 OA
ATOM      4  O   UNL     1     115.102 124.299 137.192  0.00  0.00    +0.000 OA
ATOM      5  C   UNL     1     112.126 126.719 137.078  0.00  0.00    +0.000 A 
ATOM      6  C   UNL     1     112.804 127.135 137.297  0.00  0.00    +0.000 A 
ATOM      7  C   UNL     1     112.169 125.910 136.926  0.00  0.00    +0.000 A 
ATOM      8  C   UNL     1     112.891 125.516 136.992  0.00  0.00    +0.000 A 
ATOM      9  C   UNL     1     113.570 125.931 137.210  0.00  0.00    +0.000 A 
ATOM     10  C   UNL     1     112.924 124.672 136.830  0.00  0.00    +0.000 A 
ATOM     11  C   UNL     1     114.328 125.533 137.283  0.00  0.00    +0.000 A 
ATOM     12  C   UNL     1     113.673 124.257 136.897  0.00  0.00    +0.000 A 
ATOM     13  C   UNL     1     114.379 124.690 137.125  0.00  0.00    +0.000 A 
ENDROOT
BRANCH   6  15
ATOM     14  O   UNL     1     112.630 130.374 137.909  0.00  0.00    +0.000 OA
ATOM     15  C   UNL     1     112.760 127.944 137.450  0.00  0.00    +0.000 A 
ATOM     16  C   UNL     1     112.788 128.485 136.827  0.00  0.00    +0.000 A 
ATOM     17  C   UNL     1     112.689 128.214 138.226  0.00  0.00    +0.000 A 
ATOM     18  C   UNL     1     112.745 129.294 136.980  0.00  0.00    +0.000 A 
ATOM     19  C   UNL     1     112.645 129.024 138.380  0.00  0.00    +0.000 A 
ATOM     20  C   UNL     1     112.673 129.563 137.756  0.00  0.00    +0.000 A 
BRANCH  18  21
ATOM     21  O   UNL     1     112.773 129.834 136.357  0.00  0.00    +0.000 OA
ATOM     22  C   UNL     1     113.156 129.633 135.654  0.00  0.00    +0.000 C 
ENDBRANCH  18  21
ENDBRANCH   6  15
BRANCH   5  23
ATOM     23  O   UNL     1     111.404 127.113 137.012  0.00  0.00    +0.000 OA
BRANCH  23  31
ATOM     24  O   UNL     1     110.847 126.541 138.198  0.00  0.00    +0.000 OA
ATOM     25  O   UNL     1     108.587 126.665 137.196  0.00  0.00    +0.000 OA
ATOM     26  O   UNL     1     108.784 126.052 138.714  0.00  0.00    +0.000 OA
ATOM     27  C   UNL     1     109.995 126.889 137.103  0.00  0.00    +0.000 C 
ATOM     28  C   UNL     1     109.340 126.624 137.530  0.00  0.00    +0.000 C 
ATOM     29  C   UNL     1     109.438 126.317 138.288  0.00  0.00    +0.000 C 
ATOM     30  C   UNL     1     110.191 126.276 138.623  0.00  0.00    +0.000 C 
ATOM     31  C   UNL     1     110.748 126.848 137.437  0.00  0.00    +0.000 C 
BRANCH  30  33
ATOM     32  O   UNL     1     110.612 126.441 139.978  0.00  0.00    +0.000 OA
ATOM     33  C   UNL     1     110.290 125.969 139.382  0.00  0.00    +0.000 C 
ENDBRANCH  30  33
BRANCH  27  34
ATOM     34  O   UNL     1     109.897 127.196 136.344  0.00  0.00    +0.000 OA
BRANCH  34  39
ATOM     35  O   UNL     1     109.398 128.414 136.900  0.00  0.00    +0.000 OA
ATOM     36  O   UNL     1     109.769 127.835 134.828  0.00  0.00    +0.000 OA
ATOM     37  O   UNL     1     109.205 129.372 134.626  0.00  0.00    +0.000 OA
ATOM     38  O   UNL     1     108.769 130.271 135.940  0.00  0.00    +0.000 OA
ATOM     39  C   UNL     1     109.615 127.964 136.243  0.00  0.00    +0.000 C 
ATOM     40  C   UNL     1     109.551 128.284 135.485  0.00  0.00    +0.000 C 
ATOM     41  C   UNL     1     109.269 129.053 135.384  0.00  0.00    +0.000 C 
ATOM     42  C   UNL     1     109.051 129.502 136.041  0.00  0.00    +0.000 C 
ATOM     43  C   UNL     1     109.116 129.183 136.798  0.00  0.00    +0.000 C 
ENDBRANCH  34  39
ENDBRANCH  27  34
ENDBRANCH  23  31
ENDBRANCH   5  23
TORSDOF 7
ENDMDL
MODEL 8
REMARK VINA RESULT:      -9.4      1.574      4.699
REMARK  Name = 44258011
REMARK  7 active torsions:
REMARK  status: ('A' for Active; 'I' for Inactive)
REMARK    1  A    between atoms: O_1  and  C_17
REMARK    2  A    between atoms: O_1  and  C_22
REMARK    3  A    between atoms: O_4  and  C_21
REMARK    4  A    between atoms: O_4  and  C_28
REMARK    5  A    between atoms: O_15  and  C_40
REMARK    6  A    between atoms: C_20  and  C_26
REMARK    7  A    between atoms: C_29  and  C_32
REMARK                            x       y       z     vdW  Elec       q    Type
REMARK                         _______ _______ _______ _____ _____    ______ ____
ROOT
ATOM      1  O   UNL     1     112.546 126.331 136.259  0.00  0.00    +0.000 OA
ATOM      2  O   UNL     1     111.850 126.380 138.634  0.00  0.00    +0.000 OA
ATOM      3  O   UNL     1     111.446 124.997 138.574  0.00  0.00    +0.000 OA
ATOM      4  O   UNL     1     111.751 123.536 136.064  0.00  0.00    +0.000 OA
ATOM      5  C   UNL     1     112.395 127.041 137.490  0.00  0.00    +0.000 A 
ATOM      6  C   UNL     1     112.627 127.025 136.698  0.00  0.00    +0.000 A 
ATOM      7  C   UNL     1     112.082 126.364 137.842  0.00  0.00    +0.000 A 
ATOM      8  C   UNL     1     112.002 125.670 137.403  0.00  0.00    +0.000 A 
ATOM      9  C   UNL     1     112.233 125.653 136.612  0.00  0.00    +0.000 A 
ATOM     10  C   UNL     1     111.675 124.971 137.782  0.00  0.00    +0.000 A 
ATOM     11  C   UNL     1     112.155 124.937 136.143  0.00  0.00    +0.000 A 
ATOM     12  C   UNL     1     111.589 124.246 137.329  0.00  0.00    +0.000 A 
ATOM     13  C   UNL     1     111.830 124.229 136.505  0.00  0.00    +0.000 A 
ENDROOT
BRANCH   6  15
ATOM     14  O   UNL     1     113.877 129.733 135.287  0.00  0.00    +0.000 OA
ATOM     15  C   UNL     1     112.939 127.702 136.345  0.00  0.00    +0.000 A 
ATOM     16  C   UNL     1     112.459 128.183 135.877  0.00  0.00    +0.000 A 
ATOM     17  C   UNL     1     113.732 127.898 136.460  0.00  0.00    +0.000 A 
ATOM     18  C   UNL     1     112.771 128.859 135.525  0.00  0.00    +0.000 A 
ATOM     19  C   UNL     1     114.045 128.576 136.107  0.00  0.00    +0.000 A 
ATOM     20  C   UNL     1     113.564 129.056 135.640  0.00  0.00    +0.000 A 
BRANCH  18  21
ATOM     21  O   UNL     1     112.291 129.341 135.057  0.00  0.00    +0.000 OA
ATOM     22  C   UNL     1     111.681 129.007 134.612  0.00  0.00    +0.000 C 
ENDBRANCH  18  21
ENDBRANCH   6  15
BRANCH   5  23
ATOM     23  O   UNL     1     112.475 127.735 137.929  0.00  0.00    +0.000 OA
BRANCH  23  31
ATOM     24  O   UNL     1     111.088 128.079 137.937  0.00  0.00    +0.000 OA
ATOM     25  O   UNL     1     111.326 128.977 140.231  0.00  0.00    +0.000 OA
ATOM     26  O   UNL     1     109.861 129.022 139.476  0.00  0.00    +0.000 OA
ATOM     27  C   UNL     1     111.901 128.356 139.080  0.00  0.00    +0.000 C 
ATOM     28  C   UNL     1     111.247 128.678 139.467  0.00  0.00    +0.000 C 
ATOM     29  C   UNL     1     110.514 128.701 139.089  0.00  0.00    +0.000 C 
ATOM     30  C   UNL     1     110.435 128.401 138.325  0.00  0.00    +0.000 C 
ATOM     31  C   UNL     1     111.822 128.057 138.316  0.00  0.00    +0.000 C 
BRANCH  30  33
ATOM     32  O   UNL     1     109.596 128.902 137.282  0.00  0.00    +0.000 OA
ATOM     33  C   UNL     1     109.703 128.423 137.946  0.00  0.00    +0.000 C 
ENDBRANCH  30  33
BRANCH  27  34
ATOM     34  O   UNL     1     112.634 128.334 139.458  0.00  0.00    +0.000 OA
BRANCH  34  39
ATOM     35  O   UNL     1     112.872 129.696 139.097  0.00  0.00    +0.000 OA
ATOM     36  O   UNL     1     113.975 128.353 140.418  0.00  0.00    +0.000 OA
ATOM     37  O   UNL     1     114.884 129.725 140.537  0.00  0.00    +0.000 OA
ATOM     38  O   UNL     1     114.452 131.077 139.696  0.00  0.00    +0.000 OA
ATOM     39  C   UNL     1     113.088 129.020 139.517  0.00  0.00    +0.000 C 
ATOM     40  C   UNL     1     113.760 129.030 139.998  0.00  0.00    +0.000 C 
ATOM     41  C   UNL     1     114.214 129.716 140.058  0.00  0.00    +0.000 C 
ATOM     42  C   UNL     1     113.997 130.391 139.637  0.00  0.00    +0.000 C 
ATOM     43  C   UNL     1     113.327 130.382 139.157  0.00  0.00    +0.000 C 
ENDBRANCH  34  39
ENDBRANCH  27  34
ENDBRANCH  23  31
ENDBRANCH   5  23
TORSDOF 7
ENDMDL
MODEL 9
REMARK VINA RESULT:      -9.4      1.638      3.816
REMARK  Name = 44258011
REMARK  7 active torsions:
REMARK  status: ('A' for Active; 'I' for Inactive)
REMARK    1  A    between atoms: O_1  and  C_17
REMARK    2  A    between atoms: O_1  and  C_22
REMARK    3  A    between atoms: O_4  and  C_21
REMARK    4  A    between atoms: O_4  and  C_28
REMARK    5  A    between atoms: O_15  and  C_40
REMARK    6  A    between atoms: C_20  and  C_26
REMARK    7  A    between atoms: C_29  and  C_32
REMARK                            x       y       z     vdW  Elec       q    Type
REMARK                         _______ _______ _______ _____ _____    ______ ____
ROOT
ATOM      1  O   UNL     1     113.315 129.584 138.144  0.00  0.00    +0.000 OA
ATOM      2  O   UNL     1     112.958 127.748 139.766  0.00  0.00    +0.000 OA
ATOM      3  O   UNL     1     113.632 128.493 140.801  0.00  0.00    +0.000 OA
ATOM      4  O   UNL     1     114.688 131.144 140.184  0.00  0.00    +0.000 OA
ATOM      5  C   UNL     1     112.800 128.287 138.452  0.00  0.00    +0.000 A 
ATOM      6  C   UNL     1     112.919 128.898 137.911  0.00  0.00    +0.000 A 
ATOM      7  C   UNL     1     113.077 128.360 139.225  0.00  0.00    +0.000 A 
ATOM      8  C   UNL     1     113.472 129.045 139.458  0.00  0.00    +0.000 A 
ATOM      9  C   UNL     1     113.592 129.657 138.919  0.00  0.00    +0.000 A 
ATOM     10  C   UNL     1     113.756 129.110 140.268  0.00  0.00    +0.000 A 
ATOM     11  C   UNL     1     114.003 130.376 139.149  0.00  0.00    +0.000 A 
ATOM     12  C   UNL     1     114.169 129.821 140.516  0.00  0.00    +0.000 A 
ATOM     13  C   UNL     1     114.293 130.458 139.953  0.00  0.00    +0.000 A 
ENDROOT
BRANCH   6  15
ATOM     14  O   UNL     1     111.814 128.606 134.815  0.00  0.00    +0.000 OA
ATOM     15  C   UNL     1     112.643 128.825 137.137  0.00  0.00    +0.000 A 
ATOM     16  C   UNL     1     111.926 129.171 136.920  0.00  0.00    +0.000 A 
ATOM     17  C   UNL     1     113.084 128.407 136.580  0.00  0.00    +0.000 A 
ATOM     18  C   UNL     1     111.650 129.098 136.147  0.00  0.00    +0.000 A 
ATOM     19  C   UNL     1     112.808 128.334 135.805  0.00  0.00    +0.000 A 
ATOM     20  C   UNL     1     112.091 128.679 135.590  0.00  0.00    +0.000 A 
BRANCH  18  21
ATOM     21  O   UNL     1     110.932 129.443 135.930  0.00  0.00    +0.000 OA
ATOM     22  C   UNL     1     110.739 130.197 136.203  0.00  0.00    +0.000 C 
ENDBRANCH  18  21
ENDBRANCH   6  15
BRANCH   5  23
ATOM     23  O   UNL     1     112.405 127.602 138.218  0.00  0.00    +0.000 OA
BRANCH  23  31
ATOM     24  O   UNL     1     111.197 127.902 138.920  0.00  0.00    +0.000 OA
ATOM     25  O   UNL     1     110.817 125.486 139.300  0.00  0.00    +0.000 OA
ATOM     26  O   UNL     1     109.737 126.591 139.875  0.00  0.00    +0.000 OA
ATOM     27  C   UNL     1     111.611 126.543 138.759  0.00  0.00    +0.000 C 
ATOM     28  C   UNL     1     110.944 126.291 139.173  0.00  0.00    +0.000 C 
ATOM     29  C   UNL     1     110.403 126.843 139.461  0.00  0.00    +0.000 C 
ATOM     30  C   UNL     1     110.530 127.648 139.335  0.00  0.00    +0.000 C 
ATOM     31  C   UNL     1     111.738 127.348 138.632  0.00  0.00    +0.000 C 
BRANCH  30  33
ATOM     32  O   UNL     1     109.513 128.623 139.096  0.00  0.00    +0.000 OA
ATOM     33  C   UNL     1     109.990 128.202 139.622  0.00  0.00    +0.000 C 
ENDBRANCH  30  33
BRANCH  27  34
ATOM     34  O   UNL     1     112.152 125.991 138.471  0.00  0.00    +0.000 OA
BRANCH  34  39
ATOM     35  O   UNL     1     111.255 125.668 137.406  0.00  0.00    +0.000 OA
ATOM     36  O   UNL     1     113.253 124.920 137.869  0.00  0.00    +0.000 OA
ATOM     37  O   UNL     1     112.907 124.062 136.503  0.00  0.00    +0.000 OA
ATOM     38  O   UNL     1     111.459 124.275 135.739  0.00  0.00    +0.000 OA
ATOM     39  C   UNL     1     111.979 125.562 137.788  0.00  0.00    +0.000 C 
ATOM     40  C   UNL     1     112.529 125.026 137.487  0.00  0.00    +0.000 C 
ATOM     41  C   UNL     1     112.356 124.597 136.803  0.00  0.00    +0.000 C 
ATOM     42  C   UNL     1     111.632 124.704 136.422  0.00  0.00    +0.000 C 
ATOM     43  C   UNL     1     111.082 125.239 136.723  0.00  0.00    +0.000 C 
ENDBRANCH  34  39
ENDBRANCH  27  34
ENDBRANCH  23  31
ENDBRANCH   5  23
TORSDOF 7
ENDMDL
MODEL 10
REMARK VINA RESULT:      -9.4      1.685      3.614
REMARK  Name = 44258011
REMARK  7 active torsions:
REMARK  status: ('A' for Active; 'I' for Inactive)
REMARK    1  A    between atoms: O_1  and  C_17
REMARK    2  A    between atoms: O_1  and  C_22
REMARK    3  A    between atoms: O_4  and  C_21
REMARK    4  A    between atoms: O_4  and  C_28
REMARK    5  A    between atoms: O_15  and  C_40
REMARK    6  A    between atoms: C_20  and  C_26
REMARK    7  A    between atoms: C_29  and  C_32
REMARK                            x       y       z     vdW  Elec       q    Type
REMARK                         _______ _______ _______ _____ _____    ______ ____
ROOT
ATOM      1  O   UNL     1     111.345 125.976 138.009  0.00  0.00    +0.000 OA
ATOM      2  O   UNL     1     110.951 126.569 135.639  0.00  0.00    +0.000 OA
ATOM      3  O   UNL     1     111.245 125.219 135.222  0.00  0.00    +0.000 OA
ATOM      4  O   UNL     1     111.950 123.233 137.242  0.00  0.00    +0.000 OA
ATOM      5  C   UNL     1     111.001 126.944 137.017  0.00  0.00    +0.000 A 
ATOM      6  C   UNL     1     111.132 126.747 137.807  0.00  0.00    +0.000 A 
ATOM      7  C   UNL     1     111.083 126.372 136.429  0.00  0.00    +0.000 A 
ATOM      8  C   UNL     1     111.296 125.601 136.631  0.00  0.00    +0.000 A 
ATOM      9  C   UNL     1     111.427 125.403 137.421  0.00  0.00    +0.000 A 
ATOM     10  C   UNL     1     111.378 125.012 136.010  0.00  0.00    +0.000 A 
ATOM     11  C   UNL     1     111.650 124.604 137.645  0.00  0.00    +0.000 A 
ATOM     12  C   UNL     1     111.600 124.208 136.215  0.00  0.00    +0.000 A 
ATOM     13  C   UNL     1     111.737 124.003 137.037  0.00  0.00    +0.000 A 
ENDROOT
BRANCH   6  15
ATOM     14  O   UNL     1     110.804 129.038 140.159  0.00  0.00    +0.000 OA
ATOM     15  C   UNL     1     111.050 127.319 138.395  0.00  0.00    +0.000 A 
ATOM     16  C   UNL     1     111.717 127.701 138.696  0.00  0.00    +0.000 A 
ATOM     17  C   UNL     1     110.301 127.511 138.682  0.00  0.00    +0.000 A 
ATOM     18  C   UNL     1     111.635 128.273 139.284  0.00  0.00    +0.000 A 
ATOM     19  C   UNL     1     110.219 128.085 139.271  0.00  0.00    +0.000 A 
ATOM     20  C   UNL     1     110.886 128.465 139.571  0.00  0.00    +0.000 A 
BRANCH  18  21
ATOM     21  O   UNL     1     112.302 128.654 139.585  0.00  0.00    +0.000 OA
ATOM     22  C   UNL     1     112.988 128.223 139.741  0.00  0.00    +0.000 C 
ENDBRANCH  18  21
ENDBRANCH   6  15
BRANCH   5  23
ATOM     23  O   UNL     1     110.787 127.715 136.815  0.00  0.00    +0.000 OA
BRANCH  23  31
ATOM     24  O   UNL     1     112.061 128.078 136.278  0.00  0.00    +0.000 OA
ATOM     25  O   UNL     1     110.947 129.530 134.613  0.00  0.00    +0.000 OA
ATOM     26  O   UNL     1     112.591 129.408 134.632  0.00  0.00    +0.000 OA
ATOM     27  C   UNL     1     110.866 128.623 135.714  0.00  0.00    +0.000 C 
ATOM     28  C   UNL     1     111.318 129.046 135.168  0.00  0.00    +0.000 C 
ATOM     29  C   UNL     1     112.140 128.985 135.177  0.00  0.00    +0.000 C 
ATOM     30  C   UNL     1     112.512 128.501 135.732  0.00  0.00    +0.000 C 
ATOM     31  C   UNL     1     111.238 128.139 136.269  0.00  0.00    +0.000 C 
BRANCH  30  33
ATOM     32  O   UNL     1     113.761 128.730 136.387  0.00  0.00    +0.000 OA
ATOM     33  C   UNL     1     113.334 128.440 135.742  0.00  0.00    +0.000 C 
ENDBRANCH  30  33
BRANCH  27  34
ATOM     34  O   UNL     1     110.044 128.683 135.704  0.00  0.00    +0.000 OA
BRANCH  34  39
ATOM     35  O   UNL     1     110.126 129.948 136.365  0.00  0.00    +0.000 OA
ATOM     36  O   UNL     1     108.414 128.875 135.541  0.00  0.00    +0.000 OA
ATOM     37  O   UNL     1     107.680 130.235 136.120  0.00  0.00    +0.000 OA
ATOM     38  O   UNL     1     108.578 131.403 136.863  0.00  0.00    +0.000 OA
ATOM     39  C   UNL     1     109.678 129.363 135.994  0.00  0.00    +0.000 C 
ATOM     40  C   UNL     1     108.862 129.459 135.912  0.00  0.00    +0.000 C 
ATOM     41  C   UNL     1     108.495 130.139 136.202  0.00  0.00    +0.000 C 
ATOM     42  C   UNL     1     108.944 130.723 136.573  0.00  0.00    +0.000 C 
ATOM     43  C   UNL     1     109.759 130.628 136.655  0.00  0.00    +0.000 C 
ENDBRANCH  34  39
ENDBRANCH  27  34
ENDBRANCH  23  31
ENDBRANCH   5  23
TORSDOF 7
ENDMDL
