MODEL 1
REMARK VINA RESULT:     -11.3      0.000      0.000
REMARK  Name = 131832811
REMARK  10 active torsions:
REMARK  status: ('A' for Active; 'I' for Inactive)
REMARK    1  A    between atoms: O_1  and  C_26
REMARK    2  A    between atoms: O_1  and  C_32
REMARK    3  A    between atoms: C_17  and  C_25
REMARK    4  A    between atoms: C_18  and  C_24
REMARK    5  A    between atoms: C_19  and  C_23
REMARK    6  A    between atoms: C_25  and  C_29
REMARK    7  A    between atoms: C_36  and  C_48
REMARK    8  A    between atoms: C_38  and  C_49
REMARK    9  A    between atoms: C_48  and  C_53
REMARK   10  A    between atoms: C_56  and  C_57
REMARK                            x       y       z     vdW  Elec       q    Type
REMARK                         _______ _______ _______ _____ _____    ______ ____
ROOT
ATOM      1  O   UNL     1     113.138 129.332 137.764  0.00  0.00    +0.000 OA
ATOM      2  C   UNL     1     112.504 128.555 138.781  0.00  0.00    +0.000 A 
ATOM      3  C   UNL     1     111.888 128.451 139.321  0.00  0.00    +0.000 A 
ATOM      4  C   UNL     1     112.523 129.227 138.303  0.00  0.00    +0.000 A 
ATOM      5  C   UNL     1     111.927 129.795 138.365  0.00  0.00    +0.000 A 
ATOM      6  C   UNL     1     111.293 129.018 139.382  0.00  0.00    +0.000 A 
ATOM      7  C   UNL     1     111.312 129.690 138.904  0.00  0.00    +0.000 A 
ENDROOT
BRANCH   2  10
ATOM      8  C   UNL     1     113.099 127.346 138.306  0.00  0.00    +0.000 C 
ATOM      9  C   UNL     1     113.533 126.659 138.449  0.00  0.00    +0.000 C 
ATOM     10  C   UNL     1     112.937 127.868 138.925  0.00  0.00    +0.000 C 
ATOM     11  C   UNL     1     113.806 126.494 139.211  0.00  0.00    +0.000 C 
ATOM     12  C   UNL     1     113.210 127.703 139.685  0.00  0.00    +0.000 C 
ATOM     13  C   UNL     1     113.644 127.017 139.829  0.00  0.00    +0.000 C 
ATOM     14  C   UNL     1     113.916 126.852 140.589  0.00  0.00    +0.000 C 
BRANCH   9  17
ATOM     15  O   UNL     1     113.013 125.096 138.533  0.00  0.00    +0.000 OA
ATOM     16  O   UNL     1     114.179 124.571 135.977  0.00  0.00    +0.000 OA
ATOM     17  C   UNL     1     113.694 126.137 137.831  0.00  0.00    +0.000 A 
ATOM     18  C   UNL     1     113.434 125.355 137.873  0.00  0.00    +0.000 A 
ATOM     19  C   UNL     1     114.116 126.396 137.171  0.00  0.00    +0.000 A 
ATOM     20  C   UNL     1     113.596 124.833 137.256  0.00  0.00    +0.000 A 
ATOM     21  C   UNL     1     114.277 125.874 136.554  0.00  0.00    +0.000 A 
ATOM     22  C   UNL     1     114.017 125.093 136.596  0.00  0.00    +0.000 A 
ENDBRANCH   9  17
BRANCH   8  24
ATOM     23  O   UNL     1     113.178 128.429 137.659  0.00  0.00    +0.000 OA
ATOM     24  C   UNL     1     112.725 127.740 137.684  0.00  0.00    +0.000 C 
BRANCH  24  27
ATOM     25  O   UNL     1     110.129 126.321 136.148  0.00  0.00    +0.000 OA
ATOM     26  O   UNL     1     112.478 128.009 136.075  0.00  0.00    +0.000 OA
ATOM     27  C   UNL     1     112.084 127.390 137.302  0.00  0.00    +0.000 A 
ATOM     28  C   UNL     1     111.960 127.525 136.497  0.00  0.00    +0.000 A 
ATOM     29  C   UNL     1     111.565 126.905 137.722  0.00  0.00    +0.000 A 
ATOM     30  C   UNL     1     111.318 127.175 136.114  0.00  0.00    +0.000 A 
ATOM     31  C   UNL     1     110.801 126.691 136.535  0.00  0.00    +0.000 A 
ATOM     32  C   UNL     1     110.924 126.556 137.340  0.00  0.00    +0.000 A 
ATOM     33  C   UNL     1     109.995 126.458 135.309  0.00  0.00    +0.000 C 
ATOM     34  C   UNL     1     111.201 127.324 135.276  0.00  0.00    +0.000 C 
ATOM     35  C   UNL     1     110.535 126.963 134.871  0.00  0.00    +0.000 C 
ATOM     36  C   UNL     1     109.551 126.332 134.626  0.00  0.00    +0.000 C 
ATOM     37  C   UNL     1     109.326 125.976 135.335  0.00  0.00    +0.000 C 
ENDBRANCH  24  27
ENDBRANCH   8  24
ENDBRANCH   2  10
BRANCH   5  39
ATOM     38  O   UNL     1     112.626 130.936 137.863  0.00  0.00    +0.000 OA
ATOM     39  C   UNL     1     111.947 130.467 137.887  0.00  0.00    +0.000 C 
BRANCH  39  40
ATOM     40  C   UNL     1     111.289 130.670 137.433  0.00  0.00    +0.000 C 
ATOM     41  C   UNL     1     111.270 131.392 137.034  0.00  0.00    +0.000 C 
BRANCH  41  44
ATOM     42  O   UNL     1     110.732 132.951 137.014  0.00  0.00    +0.000 OA
ATOM     43  O   UNL     1     108.637 132.205 135.218  0.00  0.00    +0.000 OA
ATOM     44  C   UNL     1     110.612 131.595 136.580  0.00  0.00    +0.000 A 
ATOM     45  C   UNL     1     110.343 132.375 136.570  0.00  0.00    +0.000 A 
ATOM     46  C   UNL     1     110.223 131.018 136.136  0.00  0.00    +0.000 A 
ATOM     47  C   UNL     1     109.685 132.577 136.116  0.00  0.00    +0.000 A 
ATOM     48  C   UNL     1     109.565 131.222 135.682  0.00  0.00    +0.000 A 
ATOM     49  C   UNL     1     109.296 132.001 135.672  0.00  0.00    +0.000 A 
ENDBRANCH  41  44
ENDBRANCH  39  40
ENDBRANCH   5  39
BRANCH   3  50
ATOM     50  O   UNL     1     111.868 127.779 139.799  0.00  0.00    +0.000 OA
BRANCH  50  55
ATOM     51  O   UNL     1     111.620 128.318 141.098  0.00  0.00    +0.000 OA
ATOM     52  O   UNL     1     110.621 126.717 140.001  0.00  0.00    +0.000 OA
ATOM     53  O   UNL     1     109.750 126.726 141.402  0.00  0.00    +0.000 OA
ATOM     54  O   UNL     1     110.125 127.796 142.600  0.00  0.00    +0.000 OA
ATOM     55  C   UNL     1     111.432 127.783 140.499  0.00  0.00    +0.000 C 
ATOM     56  C   UNL     1     110.809 127.252 140.600  0.00  0.00    +0.000 C 
ATOM     57  C   UNL     1     110.373 127.256 141.301  0.00  0.00    +0.000 C 
ATOM     58  C   UNL     1     110.560 127.791 141.900  0.00  0.00    +0.000 C 
ATOM     59  C   UNL     1     111.183 128.322 141.799  0.00  0.00    +0.000 C 
BRANCH  59  62
ATOM     60  O   UNL     1     110.915 129.538 142.499  0.00  0.00    +0.000 OA
ATOM     61  O   UNL     1     112.014 128.713 142.894  0.00  0.00    +0.000 OA
ATOM     62  C   UNL     1     111.371 128.858 142.397  0.00  0.00    +0.000 C 
ENDBRANCH  59  62
ENDBRANCH  50  55
ENDBRANCH   3  50
TORSDOF 10
ENDMDL
MODEL 2
REMARK VINA RESULT:     -11.3      1.660      5.363
REMARK  Name = 131832811
REMARK  10 active torsions:
REMARK  status: ('A' for Active; 'I' for Inactive)
REMARK    1  A    between atoms: O_1  and  C_26
REMARK    2  A    between atoms: O_1  and  C_32
REMARK    3  A    between atoms: C_17  and  C_25
REMARK    4  A    between atoms: C_18  and  C_24
REMARK    5  A    between atoms: C_19  and  C_23
REMARK    6  A    between atoms: C_25  and  C_29
REMARK    7  A    between atoms: C_36  and  C_48
REMARK    8  A    between atoms: C_38  and  C_49
REMARK    9  A    between atoms: C_48  and  C_53
REMARK   10  A    between atoms: C_56  and  C_57
REMARK                            x       y       z     vdW  Elec       q    Type
REMARK                         _______ _______ _______ _____ _____    ______ ____
ROOT
ATOM      1  O   UNL     1     112.847 129.184 138.692  0.00  0.00    +0.000 OA
ATOM      2  C   UNL     1     112.689 128.003 137.903  0.00  0.00    +0.000 A 
ATOM      3  C   UNL     1     112.748 127.184 137.825  0.00  0.00    +0.000 A 
ATOM      4  C   UNL     1     112.905 128.365 138.612  0.00  0.00    +0.000 A 
ATOM      5  C   UNL     1     113.181 127.909 139.242  0.00  0.00    +0.000 A 
ATOM      6  C   UNL     1     113.023 126.727 138.454  0.00  0.00    +0.000 A 
ATOM      7  C   UNL     1     113.239 127.090 139.163  0.00  0.00    +0.000 A 
ENDROOT
BRANCH   2  10
ATOM      8  C   UNL     1     111.589 128.313 137.045  0.00  0.00    +0.000 C 
ATOM      9  C   UNL     1     111.300 128.509 136.298  0.00  0.00    +0.000 C 
ATOM     10  C   UNL     1     112.400 128.198 137.156  0.00  0.00    +0.000 C 
ATOM     11  C   UNL     1     111.819 128.589 135.661  0.00  0.00    +0.000 C 
ATOM     12  C   UNL     1     112.919 128.279 136.520  0.00  0.00    +0.000 C 
ATOM     13  C   UNL     1     112.629 128.474 135.773  0.00  0.00    +0.000 C 
ATOM     14  C   UNL     1     113.148 128.554 135.137  0.00  0.00    +0.000 C 
BRANCH   9  17
ATOM     15  O   UNL     1     110.744 129.951 135.722  0.00  0.00    +0.000 OA
ATOM     16  O   UNL     1     108.063 128.969 135.852  0.00  0.00    +0.000 OA
ATOM     17  C   UNL     1     110.491 128.624 136.187  0.00  0.00    +0.000 A 
ATOM     18  C   UNL     1     110.212 129.346 135.898  0.00  0.00    +0.000 A 
ATOM     19  C   UNL     1     109.959 128.018 136.363  0.00  0.00    +0.000 A 
ATOM     20  C   UNL     1     109.403 129.461 135.787  0.00  0.00    +0.000 A 
ATOM     21  C   UNL     1     109.151 128.134 136.252  0.00  0.00    +0.000 A 
ATOM     22  C   UNL     1     108.873 128.855 135.964  0.00  0.00    +0.000 A 
ENDBRANCH   9  17
BRANCH   8  24
ATOM     23  O   UNL     1     111.523 127.381 137.897  0.00  0.00    +0.000 OA
ATOM     24  C   UNL     1     111.318 128.177 137.812  0.00  0.00    +0.000 C 
BRANCH  24  27
ATOM     25  O   UNL     1     109.885 130.650 139.529  0.00  0.00    +0.000 OA
ATOM     26  O   UNL     1     110.116 127.836 138.889  0.00  0.00    +0.000 OA
ATOM     27  C   UNL     1     110.962 128.786 138.238  0.00  0.00    +0.000 A 
ATOM     28  C   UNL     1     110.361 128.616 138.777  0.00  0.00    +0.000 A 
ATOM     29  C   UNL     1     111.207 129.566 138.126  0.00  0.00    +0.000 A 
ATOM     30  C   UNL     1     110.004 129.226 139.203  0.00  0.00    +0.000 A 
ATOM     31  C   UNL     1     110.249 130.006 139.091  0.00  0.00    +0.000 A 
ATOM     32  C   UNL     1     110.850 130.176 138.552  0.00  0.00    +0.000 A 
ATOM     33  C   UNL     1     109.258 130.478 140.091  0.00  0.00    +0.000 C 
ATOM     34  C   UNL     1     109.379 129.035 139.761  0.00  0.00    +0.000 C 
ATOM     35  C   UNL     1     109.003 129.666 140.208  0.00  0.00    +0.000 C 
ATOM     36  C   UNL     1     108.706 130.736 140.647  0.00  0.00    +0.000 C 
ATOM     37  C   UNL     1     109.196 131.281 140.270  0.00  0.00    +0.000 C 
ENDBRANCH  24  27
ENDBRANCH   8  24
ENDBRANCH   2  10
BRANCH   5  39
ATOM     38  O   UNL     1     114.136 128.632 140.021  0.00  0.00    +0.000 OA
ATOM     39  C   UNL     1     113.397 128.271 139.951  0.00  0.00    +0.000 C 
BRANCH  39  40
ATOM     40  C   UNL     1     112.875 128.273 140.589  0.00  0.00    +0.000 C 
ATOM     41  C   UNL     1     112.984 128.806 141.209  0.00  0.00    +0.000 C 
BRANCH  41  44
ATOM     42  O   UNL     1     112.627 130.222 141.978  0.00  0.00    +0.000 OA
ATOM     43  O   UNL     1     110.895 128.815 143.764  0.00  0.00    +0.000 OA
ATOM     44  C   UNL     1     112.461 128.808 141.848  0.00  0.00    +0.000 A 
ATOM     45  C   UNL     1     112.283 129.516 142.232  0.00  0.00    +0.000 A 
ATOM     46  C   UNL     1     112.117 128.103 142.102  0.00  0.00    +0.000 A 
ATOM     47  C   UNL     1     111.761 129.518 142.871  0.00  0.00    +0.000 A 
ATOM     48  C   UNL     1     111.595 128.105 142.741  0.00  0.00    +0.000 A 
ATOM     49  C   UNL     1     111.417 128.813 143.125  0.00  0.00    +0.000 A 
ENDBRANCH  41  44
ENDBRANCH  39  40
ENDBRANCH   5  39
BRANCH   3  50
ATOM     50  O   UNL     1     112.532 126.821 137.116  0.00  0.00    +0.000 OA
BRANCH  50  55
ATOM     51  O   UNL     1     113.676 126.019 136.818  0.00  0.00    +0.000 OA
ATOM     52  O   UNL     1     111.554 125.514 136.878  0.00  0.00    +0.000 OA
ATOM     53  O   UNL     1     112.209 124.058 136.462  0.00  0.00    +0.000 OA
ATOM     54  O   UNL     1     113.842 123.910 136.283  0.00  0.00    +0.000 OA
ATOM     55  C   UNL     1     112.859 126.093 136.908  0.00  0.00    +0.000 C 
ATOM     56  C   UNL     1     112.370 125.439 136.789  0.00  0.00    +0.000 C 
ATOM     57  C   UNL     1     112.698 124.711 136.581  0.00  0.00    +0.000 C 
ATOM     58  C   UNL     1     113.514 124.637 136.491  0.00  0.00    +0.000 C 
ATOM     59  C   UNL     1     114.003 125.291 136.610  0.00  0.00    +0.000 C 
BRANCH  59  62
ATOM     60  O   UNL     1     115.273 124.890 137.129  0.00  0.00    +0.000 OA
ATOM     61  O   UNL     1     115.184 125.471 135.826  0.00  0.00    +0.000 OA
ATOM     62  C   UNL     1     114.820 125.217 136.521  0.00  0.00    +0.000 C 
ENDBRANCH  59  62
ENDBRANCH  50  55
ENDBRANCH   3  50
TORSDOF 10
ENDMDL
MODEL 3
REMARK VINA RESULT:     -11.3      1.747      2.718
REMARK  Name = 131832811
REMARK  10 active torsions:
REMARK  status: ('A' for Active; 'I' for Inactive)
REMARK    1  A    between atoms: O_1  and  C_26
REMARK    2  A    between atoms: O_1  and  C_32
REMARK    3  A    between atoms: C_17  and  C_25
REMARK    4  A    between atoms: C_18  and  C_24
REMARK    5  A    between atoms: C_19  and  C_23
REMARK    6  A    between atoms: C_25  and  C_29
REMARK    7  A    between atoms: C_36  and  C_48
REMARK    8  A    between atoms: C_38  and  C_49
REMARK    9  A    between atoms: C_48  and  C_53
REMARK   10  A    between atoms: C_56  and  C_57
REMARK                            x       y       z     vdW  Elec       q    Type
REMARK                         _______ _______ _______ _____ _____    ______ ____
ROOT
ATOM      1  O   UNL     1     110.123 128.295 138.726  0.00  0.00    +0.000 OA
ATOM      2  C   UNL     1     111.242 128.767 139.480  0.00  0.00    +0.000 A 
ATOM      3  C   UNL     1     111.673 129.393 139.803  0.00  0.00    +0.000 A 
ATOM      4  C   UNL     1     110.555 128.920 139.050  0.00  0.00    +0.000 A 
ATOM      5  C   UNL     1     110.298 129.697 138.944  0.00  0.00    +0.000 A 
ATOM      6  C   UNL     1     111.417 130.169 139.697  0.00  0.00    +0.000 A 
ATOM      7  C   UNL     1     110.729 130.321 139.267  0.00  0.00    +0.000 A 
ENDROOT
BRANCH   2  10
ATOM      8  C   UNL     1     112.015 127.606 139.173  0.00  0.00    +0.000 C 
ATOM      9  C   UNL     1     112.477 126.969 139.422  0.00  0.00    +0.000 C 
ATOM     10  C   UNL     1     111.704 128.131 139.729  0.00  0.00    +0.000 C 
ATOM     11  C   UNL     1     112.629 126.858 140.225  0.00  0.00    +0.000 C 
ATOM     12  C   UNL     1     111.855 128.020 140.532  0.00  0.00    +0.000 C 
ATOM     13  C   UNL     1     112.317 127.383 140.780  0.00  0.00    +0.000 C 
ATOM     14  C   UNL     1     112.468 127.272 141.583  0.00  0.00    +0.000 C 
BRANCH   9  17
ATOM     15  O   UNL     1     114.106 126.720 139.345  0.00  0.00    +0.000 OA
ATOM     16  O   UNL     1     113.722 124.867 137.202  0.00  0.00    +0.000 OA
ATOM     17  C   UNL     1     112.788 126.444 138.867  0.00  0.00    +0.000 A 
ATOM     18  C   UNL     1     113.603 126.319 138.828  0.00  0.00    +0.000 A 
ATOM     19  C   UNL     1     112.285 126.043 138.351  0.00  0.00    +0.000 A 
ATOM     20  C   UNL     1     113.914 125.794 138.274  0.00  0.00    +0.000 A 
ATOM     21  C   UNL     1     112.596 125.518 137.796  0.00  0.00    +0.000 A 
ATOM     22  C   UNL     1     113.411 125.393 137.758  0.00  0.00    +0.000 A 
ENDBRANCH   9  17
BRANCH   8  24
ATOM     23  O   UNL     1     110.912 127.827 138.598  0.00  0.00    +0.000 OA
ATOM     24  C   UNL     1     111.721 127.940 138.478  0.00  0.00    +0.000 C 
BRANCH  24  27
ATOM     25  O   UNL     1     113.826 129.223 136.234  0.00  0.00    +0.000 OA
ATOM     26  O   UNL     1     111.346 127.875 136.873  0.00  0.00    +0.000 OA
ATOM     27  C   UNL     1     112.239 128.256 137.921  0.00  0.00    +0.000 A 
ATOM     28  C   UNL     1     112.052 128.224 137.118  0.00  0.00    +0.000 A 
ATOM     29  C   UNL     1     112.946 128.605 138.165  0.00  0.00    +0.000 A 
ATOM     30  C   UNL     1     112.571 128.541 136.560  0.00  0.00    +0.000 A 
ATOM     31  C   UNL     1     113.277 128.889 136.805  0.00  0.00    +0.000 A 
ATOM     32  C   UNL     1     113.464 128.922 137.608  0.00  0.00    +0.000 A 
ATOM     33  C   UNL     1     113.635 129.192 135.396  0.00  0.00    +0.000 C 
ATOM     34  C   UNL     1     112.364 128.500 135.727  0.00  0.00    +0.000 C 
ATOM     35  C   UNL     1     112.900 128.829 135.142  0.00  0.00    +0.000 C 
ATOM     36  C   UNL     1     113.830 129.358 134.612  0.00  0.00    +0.000 C 
ATOM     37  C   UNL     1     114.344 129.576 135.219  0.00  0.00    +0.000 C 
ENDBRANCH  24  27
ENDBRANCH   8  24
ENDBRANCH   2  10
BRANCH   5  39
ATOM     38  O   UNL     1     108.890 129.533 138.763  0.00  0.00    +0.000 OA
ATOM     39  C   UNL     1     109.610 129.849 138.514  0.00  0.00    +0.000 C 
BRANCH  39  40
ATOM     40  C   UNL     1     109.643 130.317 137.836  0.00  0.00    +0.000 C 
ATOM     41  C   UNL     1     108.946 130.560 137.469  0.00  0.00    +0.000 C 
BRANCH  41  44
ATOM     42  O   UNL     1     107.794 131.712 137.205  0.00  0.00    +0.000 OA
ATOM     43  O   UNL     1     109.075 132.434 134.755  0.00  0.00    +0.000 OA
ATOM     44  C   UNL     1     108.978 131.029 136.789  0.00  0.00    +0.000 A 
ATOM     45  C   UNL     1     108.402 131.605 136.658  0.00  0.00    +0.000 A 
ATOM     46  C   UNL     1     109.587 130.921 136.243  0.00  0.00    +0.000 A 
ATOM     47  C   UNL     1     108.435 132.073 135.980  0.00  0.00    +0.000 A 
ATOM     48  C   UNL     1     109.619 131.389 135.565  0.00  0.00    +0.000 A 
ATOM     49  C   UNL     1     109.043 131.965 135.433  0.00  0.00    +0.000 A 
ENDBRANCH  41  44
ENDBRANCH  39  40
ENDBRANCH   5  39
BRANCH   3  50
ATOM     50  O   UNL     1     112.360 129.241 140.233  0.00  0.00    +0.000 OA
BRANCH  50  55
ATOM     51  O   UNL     1     112.192 130.064 141.389  0.00  0.00    +0.000 OA
ATOM     52  O   UNL     1     113.873 129.861 140.011  0.00  0.00    +0.000 OA
ATOM     53  O   UNL     1     114.462 130.994 141.056  0.00  0.00    +0.000 OA
ATOM     54  O   UNL     1     113.537 131.507 142.322  0.00  0.00    +0.000 OA
ATOM     55  C   UNL     1     112.655 129.807 140.755  0.00  0.00    +0.000 C 
ATOM     56  C   UNL     1     113.412 130.117 140.644  0.00  0.00    +0.000 C 
ATOM     57  C   UNL     1     113.705 130.684 141.167  0.00  0.00    +0.000 C 
ATOM     58  C   UNL     1     113.243 130.941 141.800  0.00  0.00    +0.000 C 
ATOM     59  C   UNL     1     112.487 130.631 141.911  0.00  0.00    +0.000 C 
BRANCH  59  62
ATOM     60  O   UNL     1     111.946 130.413 143.215  0.00  0.00    +0.000 OA
ATOM     61  O   UNL     1     111.640 131.616 142.506  0.00  0.00    +0.000 OA
ATOM     62  C   UNL     1     112.024 130.887 142.544  0.00  0.00    +0.000 C 
ENDBRANCH  59  62
ENDBRANCH  50  55
ENDBRANCH   3  50
TORSDOF 10
ENDMDL
MODEL 4
REMARK VINA RESULT:     -11.3      2.040      3.189
REMARK  Name = 131832811
REMARK  10 active torsions:
REMARK  status: ('A' for Active; 'I' for Inactive)
REMARK    1  A    between atoms: O_1  and  C_26
REMARK    2  A    between atoms: O_1  and  C_32
REMARK    3  A    between atoms: C_17  and  C_25
REMARK    4  A    between atoms: C_18  and  C_24
REMARK    5  A    between atoms: C_19  and  C_23
REMARK    6  A    between atoms: C_25  and  C_29
REMARK    7  A    between atoms: C_36  and  C_48
REMARK    8  A    between atoms: C_38  and  C_49
REMARK    9  A    between atoms: C_48  and  C_53
REMARK   10  A    between atoms: C_56  and  C_57
REMARK                            x       y       z     vdW  Elec       q    Type
REMARK                         _______ _______ _______ _____ _____    ______ ____
ROOT
ATOM      1  O   UNL     1     111.415 130.767 140.244  0.00  0.00    +0.000 OA
ATOM      2  C   UNL     1     110.688 129.605 140.646  0.00  0.00    +0.000 A 
ATOM      3  C   UNL     1     109.974 129.194 140.706  0.00  0.00    +0.000 A 
ATOM      4  C   UNL     1     110.703 130.355 140.304  0.00  0.00    +0.000 A 
ATOM      5  C   UNL     1     110.006 130.695 140.022  0.00  0.00    +0.000 A 
ATOM      6  C   UNL     1     109.278 129.533 140.424  0.00  0.00    +0.000 A 
ATOM      7  C   UNL     1     109.293 130.283 140.082  0.00  0.00    +0.000 A 
ENDROOT
BRANCH   2  10
ATOM      8  C   UNL     1     111.665 128.571 140.512  0.00  0.00    +0.000 C 
ATOM      9  C   UNL     1     112.176 128.023 140.857  0.00  0.00    +0.000 C 
ATOM     10  C   UNL     1     111.199 129.056 140.990  0.00  0.00    +0.000 C 
ATOM     11  C   UNL     1     112.221 127.959 141.679  0.00  0.00    +0.000 C 
ATOM     12  C   UNL     1     111.243 128.992 141.811  0.00  0.00    +0.000 C 
ATOM     13  C   UNL     1     111.754 128.444 142.156  0.00  0.00    +0.000 C 
ATOM     14  C   UNL     1     111.798 128.380 142.977  0.00  0.00    +0.000 C 
BRANCH   9  17
ATOM     15  O   UNL     1     113.819 128.054 141.006  0.00  0.00    +0.000 OA
ATOM     16  O   UNL     1     114.043 126.083 138.948  0.00  0.00    +0.000 OA
ATOM     17  C   UNL     1     112.643 127.538 140.380  0.00  0.00    +0.000 A 
ATOM     18  C   UNL     1     113.465 127.553 140.454  0.00  0.00    +0.000 A 
ATOM     19  C   UNL     1     112.289 127.037 139.828  0.00  0.00    +0.000 A 
ATOM     20  C   UNL     1     113.931 127.069 139.977  0.00  0.00    +0.000 A 
ATOM     21  C   UNL     1     112.755 126.553 139.351  0.00  0.00    +0.000 A 
ATOM     22  C   UNL     1     113.577 126.568 139.426  0.00  0.00    +0.000 A 
ENDBRANCH   9  17
BRANCH   8  24
ATOM     23  O   UNL     1     110.637 128.607 139.778  0.00  0.00    +0.000 OA
ATOM     24  C   UNL     1     111.431 128.835 139.767  0.00  0.00    +0.000 C 
BRANCH  24  27
ATOM     25  O   UNL     1     113.636 130.345 137.774  0.00  0.00    +0.000 OA
ATOM     26  O   UNL     1     111.313 128.655 138.131  0.00  0.00    +0.000 OA
ATOM     27  C   UNL     1     111.974 129.207 139.271  0.00  0.00    +0.000 A 
ATOM     28  C   UNL     1     111.916 129.117 138.453  0.00  0.00    +0.000 A 
ATOM     29  C   UNL     1     112.577 129.670 139.593  0.00  0.00    +0.000 A 
ATOM     30  C   UNL     1     112.460 129.490 137.957  0.00  0.00    +0.000 A 
ATOM     31  C   UNL     1     113.063 129.952 138.280  0.00  0.00    +0.000 A 
ATOM     32  C   UNL     1     113.121 130.042 139.098  0.00  0.00    +0.000 A 
ATOM     33  C   UNL     1     113.579 130.255 136.920  0.00  0.00    +0.000 C 
ATOM     34  C   UNL     1     112.388 129.388 137.107  0.00  0.00    +0.000 C 
ATOM     35  C   UNL     1     112.952 129.773 136.585  0.00  0.00    +0.000 C 
ATOM     36  C   UNL     1     113.863 130.420 136.164  0.00  0.00    +0.000 C 
ATOM     37  C   UNL     1     114.242 130.737 136.824  0.00  0.00    +0.000 C 
ENDBRANCH  24  27
ENDBRANCH   8  24
ENDBRANCH   2  10
BRANCH   5  39
ATOM     38  O   UNL     1     110.244 132.099 140.131  0.00  0.00    +0.000 OA
ATOM     39  C   UNL     1     110.021 131.446 139.680  0.00  0.00    +0.000 C 
BRANCH  39  40
ATOM     40  C   UNL     1     109.814 131.542 138.888  0.00  0.00    +0.000 C 
ATOM     41  C   UNL     1     110.073 132.206 138.472  0.00  0.00    +0.000 C 
BRANCH  41  44
ATOM     42  O   UNL     1     111.171 132.815 137.401  0.00  0.00    +0.000 OA
ATOM     43  O   UNL     1     109.245 132.593 135.301  0.00  0.00    +0.000 OA
ATOM     44  C   UNL     1     109.866 132.302 137.678  0.00  0.00    +0.000 A 
ATOM     45  C   UNL     1     110.415 132.607 137.144  0.00  0.00    +0.000 A 
ATOM     46  C   UNL     1     109.110 132.095 137.421  0.00  0.00    +0.000 A 
ATOM     47  C   UNL     1     110.207 132.704 136.351  0.00  0.00    +0.000 A 
ATOM     48  C   UNL     1     108.903 132.191 136.629  0.00  0.00    +0.000 A 
ATOM     49  C   UNL     1     109.451 132.496 136.094  0.00  0.00    +0.000 A 
ENDBRANCH  41  44
ENDBRANCH  39  40
ENDBRANCH   5  39
BRANCH   3  50
ATOM     50  O   UNL     1     109.959 128.443 141.048  0.00  0.00    +0.000 OA
BRANCH  50  55
ATOM     51  O   UNL     1     108.973 128.527 142.079  0.00  0.00    +0.000 OA
ATOM     52  O   UNL     1     109.161 127.158 140.389  0.00  0.00    +0.000 OA
ATOM     53  O   UNL     1     107.776 126.599 141.090  0.00  0.00    +0.000 OA
ATOM     54  O   UNL     1     107.190 127.325 142.450  0.00  0.00    +0.000 OA
ATOM     55  C   UNL     1     109.266 128.163 141.398  0.00  0.00    +0.000 C 
ATOM     56  C   UNL     1     108.868 127.520 141.068  0.00  0.00    +0.000 C 
ATOM     57  C   UNL     1     108.175 127.241 141.420  0.00  0.00    +0.000 C 
ATOM     58  C   UNL     1     107.882 127.604 142.099  0.00  0.00    +0.000 C 
ATOM     59  C   UNL     1     108.280 128.247 142.429  0.00  0.00    +0.000 C 
BRANCH  59  62
ATOM     60  O   UNL     1     108.294 128.408 143.849  0.00  0.00    +0.000 OA
ATOM     61  O   UNL     1     107.389 129.175 143.050  0.00  0.00    +0.000 OA
ATOM     62  C   UNL     1     107.988 128.610 143.109  0.00  0.00    +0.000 C 
ENDBRANCH  59  62
ENDBRANCH  50  55
ENDBRANCH   3  50
TORSDOF 10
ENDMDL
MODEL 5
REMARK VINA RESULT:     -11.0      1.683      2.724
REMARK  Name = 131832811
REMARK  10 active torsions:
REMARK  status: ('A' for Active; 'I' for Inactive)
REMARK    1  A    between atoms: O_1  and  C_26
REMARK    2  A    between atoms: O_1  and  C_32
REMARK    3  A    between atoms: C_17  and  C_25
REMARK    4  A    between atoms: C_18  and  C_24
REMARK    5  A    between atoms: C_19  and  C_23
REMARK    6  A    between atoms: C_25  and  C_29
REMARK    7  A    between atoms: C_36  and  C_48
REMARK    8  A    between atoms: C_38  and  C_49
REMARK    9  A    between atoms: C_48  and  C_53
REMARK   10  A    between atoms: C_56  and  C_57
REMARK                            x       y       z     vdW  Elec       q    Type
REMARK                         _______ _______ _______ _____ _____    ______ ____
ROOT
ATOM      1  O   UNL     1     109.309 129.131 139.094  0.00  0.00    +0.000 OA
ATOM      2  C   UNL     1     110.407 129.451 139.951  0.00  0.00    +0.000 A 
ATOM      3  C   UNL     1     110.879 130.014 140.327  0.00  0.00    +0.000 A 
ATOM      4  C   UNL     1     109.782 129.692 139.470  0.00  0.00    +0.000 A 
ATOM      5  C   UNL     1     109.628 130.497 139.365  0.00  0.00    +0.000 A 
ATOM      6  C   UNL     1     110.726 130.817 140.222  0.00  0.00    +0.000 A 
ATOM      7  C   UNL     1     110.101 131.059 139.741  0.00  0.00    +0.000 A 
ENDROOT
BRANCH   2  10
ATOM      8  C   UNL     1     111.294 128.353 139.730  0.00  0.00    +0.000 C 
ATOM      9  C   UNL     1     111.655 127.661 139.997  0.00  0.00    +0.000 C 
ATOM     10  C   UNL     1     110.768 128.759 140.219  0.00  0.00    +0.000 C 
ATOM     11  C   UNL     1     111.490 127.375 140.754  0.00  0.00    +0.000 C 
ATOM     12  C   UNL     1     110.603 128.474 140.975  0.00  0.00    +0.000 C 
ATOM     13  C   UNL     1     110.963 127.782 141.243  0.00  0.00    +0.000 C 
ATOM     14  C   UNL     1     110.798 127.497 141.998  0.00  0.00    +0.000 C 
BRANCH   9  17
ATOM     15  O   UNL     1     111.361 126.089 139.596  0.00  0.00    +0.000 OA
ATOM     16  O   UNL     1     113.761 126.036 138.044  0.00  0.00    +0.000 OA
ATOM     17  C   UNL     1     112.181 127.255 139.509  0.00  0.00    +0.000 A 
ATOM     18  C   UNL     1     112.035 126.468 139.308  0.00  0.00    +0.000 A 
ATOM     19  C   UNL     1     112.855 127.635 139.222  0.00  0.00    +0.000 A 
ATOM     20  C   UNL     1     112.561 126.062 138.820  0.00  0.00    +0.000 A 
ATOM     21  C   UNL     1     113.381 127.229 138.734  0.00  0.00    +0.000 A 
ATOM     22  C   UNL     1     113.234 126.442 138.533  0.00  0.00    +0.000 A 
ENDBRANCH   9  17
BRANCH   8  24
ATOM     23  O   UNL     1     111.594 129.530 139.379  0.00  0.00    +0.000 OA
ATOM     24  C   UNL     1     111.275 128.838 139.062  0.00  0.00    +0.000 C 
BRANCH  24  27
ATOM     25  O   UNL     1     110.079 127.651 136.186  0.00  0.00    +0.000 OA
ATOM     26  O   UNL     1     111.906 129.367 137.633  0.00  0.00    +0.000 OA
ATOM     27  C   UNL     1     110.981 128.547 138.350  0.00  0.00    +0.000 A 
ATOM     28  C   UNL     1     111.297 128.811 137.635  0.00  0.00    +0.000 A 
ATOM     29  C   UNL     1     110.372 127.990 138.350  0.00  0.00    +0.000 A 
ATOM     30  C   UNL     1     111.003 128.519 136.920  0.00  0.00    +0.000 A 
ATOM     31  C   UNL     1     110.394 127.963 136.922  0.00  0.00    +0.000 A 
ATOM     32  C   UNL     1     110.078 127.699 137.637  0.00  0.00    +0.000 A 
ATOM     33  C   UNL     1     110.404 127.923 135.437  0.00  0.00    +0.000 C 
ATOM     34  C   UNL     1     111.341 128.803 136.183  0.00  0.00    +0.000 C 
ATOM     35  C   UNL     1     111.039 128.502 135.437  0.00  0.00    +0.000 C 
ATOM     36  C   UNL     1     110.414 127.905 134.613  0.00  0.00    +0.000 C 
ATOM     37  C   UNL     1     109.882 127.433 135.030  0.00  0.00    +0.000 C 
ENDBRANCH  24  27
ENDBRANCH   8  24
ENDBRANCH   2  10
BRANCH   5  39
ATOM     38  O   UNL     1     108.224 130.613 139.127  0.00  0.00    +0.000 OA
ATOM     39  C   UNL     1     109.003 130.738 138.884  0.00  0.00    +0.000 C 
BRANCH  39  40
ATOM     40  C   UNL     1     109.156 131.104 138.161  0.00  0.00    +0.000 C 
ATOM     41  C   UNL     1     108.586 131.095 137.565  0.00  0.00    +0.000 C 
BRANCH  41  44
ATOM     42  O   UNL     1     107.900 130.510 136.183  0.00  0.00    +0.000 OA
ATOM     43  O   UNL     1     109.199 132.557 134.671  0.00  0.00    +0.000 OA
ATOM     44  C   UNL     1     108.740 131.461 136.841  0.00  0.00    +0.000 A 
ATOM     45  C   UNL     1     108.396 131.168 136.150  0.00  0.00    +0.000 A 
ATOM     46  C   UNL     1     109.236 132.119 136.808  0.00  0.00    +0.000 A 
ATOM     47  C   UNL     1     108.550 131.534 135.427  0.00  0.00    +0.000 A 
ATOM     48  C   UNL     1     109.389 132.484 136.085  0.00  0.00    +0.000 A 
ATOM     49  C   UNL     1     109.046 132.192 135.395  0.00  0.00    +0.000 A 
ENDBRANCH  41  44
ENDBRANCH  39  40
ENDBRANCH   5  39
BRANCH   3  50
ATOM     50  O   UNL     1     111.504 129.773 140.808  0.00  0.00    +0.000 OA
BRANCH  50  55
ATOM     51  O   UNL     1     111.261 130.447 142.044  0.00  0.00    +0.000 OA
ATOM     52  O   UNL     1     113.040 130.374 140.782  0.00  0.00    +0.000 OA
ATOM     53  O   UNL     1     113.565 131.349 142.005  0.00  0.00    +0.000 OA
ATOM     54  O   UNL     1     112.554 131.723 143.253  0.00  0.00    +0.000 OA
ATOM     55  C   UNL     1     111.767 130.260 141.419  0.00  0.00    +0.000 C 
ATOM     56  C   UNL     1     112.535 130.561 141.406  0.00  0.00    +0.000 C 
ATOM     57  C   UNL     1     112.797 131.049 142.018  0.00  0.00    +0.000 C 
ATOM     58  C   UNL     1     112.292 131.236 142.642  0.00  0.00    +0.000 C 
ATOM     59  C   UNL     1     111.524 130.935 142.655  0.00  0.00    +0.000 C 
BRANCH  59  62
ATOM     60  O   UNL     1     110.909 130.584 143.896  0.00  0.00    +0.000 OA
ATOM     61  O   UNL     1     110.621 131.844 143.287  0.00  0.00    +0.000 OA
ATOM     62  C   UNL     1     111.018 131.121 143.279  0.00  0.00    +0.000 C 
ENDBRANCH  59  62
ENDBRANCH  50  55
ENDBRANCH   3  50
TORSDOF 10
ENDMDL
MODEL 6
REMARK VINA RESULT:     -10.9      2.185      5.915
REMARK  Name = 131832811
REMARK  10 active torsions:
REMARK  status: ('A' for Active; 'I' for Inactive)
REMARK    1  A    between atoms: O_1  and  C_26
REMARK    2  A    between atoms: O_1  and  C_32
REMARK    3  A    between atoms: C_17  and  C_25
REMARK    4  A    between atoms: C_18  and  C_24
REMARK    5  A    between atoms: C_19  and  C_23
REMARK    6  A    between atoms: C_25  and  C_29
REMARK    7  A    between atoms: C_36  and  C_48
REMARK    8  A    between atoms: C_38  and  C_49
REMARK    9  A    between atoms: C_48  and  C_53
REMARK   10  A    between atoms: C_56  and  C_57
REMARK                            x       y       z     vdW  Elec       q    Type
REMARK                         _______ _______ _______ _____ _____    ______ ____
ROOT
ATOM      1  O   UNL     1     111.206 126.309 141.046  0.00  0.00    +0.000 OA
ATOM      2  C   UNL     1     111.419 126.750 139.704  0.00  0.00    +0.000 A 
ATOM      3  C   UNL     1     111.126 126.904 138.948  0.00  0.00    +0.000 A 
ATOM      4  C   UNL     1     110.915 126.463 140.290  0.00  0.00    +0.000 A 
ATOM      5  C   UNL     1     110.118 126.330 140.121  0.00  0.00    +0.000 A 
ATOM      6  C   UNL     1     110.331 126.771 138.778  0.00  0.00    +0.000 A 
ATOM      7  C   UNL     1     109.826 126.485 139.365  0.00  0.00    +0.000 A 
ENDROOT
BRANCH   2  10
ATOM      8  C   UNL     1     112.477 127.698 139.858  0.00  0.00    +0.000 C 
ATOM      9  C   UNL     1     113.267 127.909 139.752  0.00  0.00    +0.000 C 
ATOM     10  C   UNL     1     112.209 126.961 139.597  0.00  0.00    +0.000 C 
ATOM     11  C   UNL     1     113.790 127.386 139.386  0.00  0.00    +0.000 C 
ATOM     12  C   UNL     1     112.731 126.438 139.232  0.00  0.00    +0.000 C 
ATOM     13  C   UNL     1     113.521 126.649 139.126  0.00  0.00    +0.000 C 
ATOM     14  C   UNL     1     114.043 126.126 138.760  0.00  0.00    +0.000 C 
BRANCH   9  17
ATOM     15  O   UNL     1     114.494 127.999 140.850  0.00  0.00    +0.000 OA
ATOM     16  O   UNL     1     114.340 130.852 140.790  0.00  0.00    +0.000 OA
ATOM     17  C   UNL     1     113.535 128.645 140.011  0.00  0.00    +0.000 A 
ATOM     18  C   UNL     1     114.149 128.690 140.561  0.00  0.00    +0.000 A 
ATOM     19  C   UNL     1     113.190 129.336 139.722  0.00  0.00    +0.000 A 
ATOM     20  C   UNL     1     114.418 129.425 140.820  0.00  0.00    +0.000 A 
ATOM     21  C   UNL     1     113.459 130.071 139.981  0.00  0.00    +0.000 A 
ATOM     22  C   UNL     1     114.072 130.116 140.530  0.00  0.00    +0.000 A 
ENDBRANCH   9  17
BRANCH   8  24
ATOM     23  O   UNL     1     111.321 128.046 139.485  0.00  0.00    +0.000 OA
ATOM     24  C   UNL     1     111.778 128.003 140.171  0.00  0.00    +0.000 C 
BRANCH  24  27
ATOM     25  O   UNL     1     111.565 128.643 143.436  0.00  0.00    +0.000 OA
ATOM     26  O   UNL     1     110.863 129.271 140.699  0.00  0.00    +0.000 OA
ATOM     27  C   UNL     1     111.723 128.164 140.978  0.00  0.00    +0.000 A 
ATOM     28  C   UNL     1     111.266 128.798 141.242  0.00  0.00    +0.000 A 
ATOM     29  C   UNL     1     112.125 127.691 141.521  0.00  0.00    +0.000 A 
ATOM     30  C   UNL     1     111.211 128.959 142.050  0.00  0.00    +0.000 A 
ATOM     31  C   UNL     1     111.614 128.486 142.592  0.00  0.00    +0.000 A 
ATOM     32  C   UNL     1     112.071 127.852 142.328  0.00  0.00    +0.000 A 
ATOM     33  C   UNL     1     111.090 129.303 143.717  0.00  0.00    +0.000 C 
ATOM     34  C   UNL     1     110.732 129.622 142.311  0.00  0.00    +0.000 C 
ATOM     35  C   UNL     1     110.671 129.795 143.151  0.00  0.00    +0.000 C 
ATOM     36  C   UNL     1     110.797 129.759 144.338  0.00  0.00    +0.000 C 
ATOM     37  C   UNL     1     111.293 129.120 144.495  0.00  0.00    +0.000 C 
ENDBRANCH  24  27
ENDBRANCH   8  24
ENDBRANCH   2  10
BRANCH   5  39
ATOM     38  O   UNL     1     109.751 125.303 141.043  0.00  0.00    +0.000 OA
ATOM     39  C   UNL     1     109.613 126.044 140.707  0.00  0.00    +0.000 C 
BRANCH  39  40
ATOM     40  C   UNL     1     108.972 126.498 140.957  0.00  0.00    +0.000 C 
ATOM     41  C   UNL     1     108.473 126.215 141.550  0.00  0.00    +0.000 C 
BRANCH  41  44
ATOM     42  O   UNL     1     107.102 125.476 142.094  0.00  0.00    +0.000 OA
ATOM     43  O   UNL     1     105.906 128.031 142.553  0.00  0.00    +0.000 OA
ATOM     44  C   UNL     1     107.831 126.669 141.801  0.00  0.00    +0.000 A 
ATOM     45  C   UNL     1     107.146 126.299 142.073  0.00  0.00    +0.000 A 
ATOM     46  C   UNL     1     107.875 127.493 141.779  0.00  0.00    +0.000 A 
ATOM     47  C   UNL     1     106.504 126.754 142.323  0.00  0.00    +0.000 A 
ATOM     48  C   UNL     1     107.233 127.946 142.030  0.00  0.00    +0.000 A 
ATOM     49  C   UNL     1     106.548 127.577 142.302  0.00  0.00    +0.000 A 
ENDBRANCH  41  44
ENDBRANCH  39  40
ENDBRANCH   5  39
BRANCH   3  50
ATOM     50  O   UNL     1     111.631 127.190 138.361  0.00  0.00    +0.000 OA
BRANCH  50  55
ATOM     51  O   UNL     1     111.444 126.284 137.272  0.00  0.00    +0.000 OA
ATOM     52  O   UNL     1     111.313 128.462 137.358  0.00  0.00    +0.000 OA
ATOM     53  O   UNL     1     110.967 128.191 135.768  0.00  0.00    +0.000 OA
ATOM     54  O   UNL     1     110.940 126.650 135.180  0.00  0.00    +0.000 OA
ATOM     55  C   UNL     1     111.458 127.056 137.566  0.00  0.00    +0.000 C 
ATOM     56  C   UNL     1     111.299 127.691 137.064  0.00  0.00    +0.000 C 
ATOM     57  C   UNL     1     111.126 127.556 136.269  0.00  0.00    +0.000 C 
ATOM     58  C   UNL     1     111.112 126.786 135.975  0.00  0.00    +0.000 C 
ATOM     59  C   UNL     1     111.271 126.150 136.476  0.00  0.00    +0.000 C 
BRANCH  59  62
ATOM     60  O   UNL     1     111.965 124.965 136.079  0.00  0.00    +0.000 OA
ATOM     61  O   UNL     1     110.539 125.022 135.994  0.00  0.00    +0.000 OA
ATOM     62  C   UNL     1     111.258 125.379 136.183  0.00  0.00    +0.000 C 
ENDBRANCH  59  62
ENDBRANCH  50  55
ENDBRANCH   3  50
TORSDOF 10
ENDMDL
MODEL 7
REMARK VINA RESULT:     -10.9      1.558      4.997
REMARK  Name = 131832811
REMARK  10 active torsions:
REMARK  status: ('A' for Active; 'I' for Inactive)
REMARK    1  A    between atoms: O_1  and  C_26
REMARK    2  A    between atoms: O_1  and  C_32
REMARK    3  A    between atoms: C_17  and  C_25
REMARK    4  A    between atoms: C_18  and  C_24
REMARK    5  A    between atoms: C_19  and  C_23
REMARK    6  A    between atoms: C_25  and  C_29
REMARK    7  A    between atoms: C_36  and  C_48
REMARK    8  A    between atoms: C_38  and  C_49
REMARK    9  A    between atoms: C_48  and  C_53
REMARK   10  A    between atoms: C_56  and  C_57
REMARK                            x       y       z     vdW  Elec       q    Type
REMARK                         _______ _______ _______ _____ _____    ______ ____
ROOT
ATOM      1  O   UNL     1     112.433 130.103 138.886  0.00  0.00    +0.000 OA
ATOM      2  C   UNL     1     111.426 129.789 137.921  0.00  0.00    +0.000 A 
ATOM      3  C   UNL     1     110.632 129.771 137.697  0.00  0.00    +0.000 A 
ATOM      4  C   UNL     1     111.639 130.085 138.661  0.00  0.00    +0.000 A 
ATOM      5  C   UNL     1     111.058 130.365 139.177  0.00  0.00    +0.000 A 
ATOM      6  C   UNL     1     110.052 130.050 138.212  0.00  0.00    +0.000 A 
ATOM      7  C   UNL     1     110.265 130.347 138.952  0.00  0.00    +0.000 A 
ENDROOT
BRANCH   2  10
ATOM      8  C   UNL     1     112.008 128.673 137.244  0.00  0.00    +0.000 C 
ATOM      9  C   UNL     1     112.354 128.349 136.570  0.00  0.00    +0.000 C 
ATOM     10  C   UNL     1     111.773 129.464 137.247  0.00  0.00    +0.000 C 
ATOM     11  C   UNL     1     112.467 128.815 135.898  0.00  0.00    +0.000 C 
ATOM     12  C   UNL     1     111.885 129.931 136.576  0.00  0.00    +0.000 C 
ATOM     13  C   UNL     1     112.232 129.606 135.901  0.00  0.00    +0.000 C 
ATOM     14  C   UNL     1     112.344 130.073 135.230  0.00  0.00    +0.000 C 
BRANCH   9  17
ATOM     15  O   UNL     1     113.930 127.957 136.275  0.00  0.00    +0.000 OA
ATOM     16  O   UNL     1     113.293 125.185 136.555  0.00  0.00    +0.000 OA
ATOM     17  C   UNL     1     112.589 127.558 136.566  0.00  0.00    +0.000 A 
ATOM     18  C   UNL     1     113.377 127.361 136.419  0.00  0.00    +0.000 A 
ATOM     19  C   UNL     1     112.036 126.963 136.710  0.00  0.00    +0.000 A 
ATOM     20  C   UNL     1     113.611 126.571 136.415  0.00  0.00    +0.000 A 
ATOM     21  C   UNL     1     112.271 126.172 136.706  0.00  0.00    +0.000 A 
ATOM     22  C   UNL     1     113.058 125.976 136.559  0.00  0.00    +0.000 A 
ENDBRANCH   9  17
BRANCH   8  24
ATOM     23  O   UNL     1     110.968 128.537 137.950  0.00  0.00    +0.000 OA
ATOM     24  C   UNL     1     111.788 128.455 138.009  0.00  0.00    +0.000 C 
BRANCH  24  27
ATOM     25  O   UNL     1     114.125 127.596 140.225  0.00  0.00    +0.000 OA
ATOM     26  O   UNL     1     111.450 127.319 139.157  0.00  0.00    +0.000 OA
ATOM     27  C   UNL     1     112.364 128.240 138.558  0.00  0.00    +0.000 A 
ATOM     28  C   UNL     1     112.195 127.673 139.132  0.00  0.00    +0.000 A 
ATOM     29  C   UNL     1     113.109 128.593 138.534  0.00  0.00    +0.000 A 
ATOM     30  C   UNL     1     112.772 127.458 139.683  0.00  0.00    +0.000 A 
ATOM     31  C   UNL     1     113.516 127.811 139.658  0.00  0.00    +0.000 A 
ATOM     32  C   UNL     1     113.685 128.379 139.084  0.00  0.00    +0.000 A 
ATOM     33  C   UNL     1     113.955 127.005 140.826  0.00  0.00    +0.000 C 
ATOM     34  C   UNL     1     112.583 126.865 140.275  0.00  0.00    +0.000 C 
ATOM     35  C   UNL     1     113.179 126.637 140.850  0.00  0.00    +0.000 C 
ATOM     36  C   UNL     1     114.194 126.555 141.474  0.00  0.00    +0.000 C 
ATOM     37  C   UNL     1     114.719 127.088 141.126  0.00  0.00    +0.000 C 
ENDBRANCH  24  27
ENDBRANCH   8  24
ENDBRANCH   2  10
BRANCH   5  39
ATOM     38  O   UNL     1     111.657 131.389 139.973  0.00  0.00    +0.000 OA
ATOM     39  C   UNL     1     111.271 130.661 139.917  0.00  0.00    +0.000 C 
BRANCH  39  40
ATOM     40  C   UNL     1     111.098 130.231 140.598  0.00  0.00    +0.000 C 
ATOM     41  C   UNL     1     111.491 130.402 141.304  0.00  0.00    +0.000 C 
BRANCH  41  44
ATOM     42  O   UNL     1     112.700 129.996 142.351  0.00  0.00    +0.000 OA
ATOM     43  O   UNL     1     110.801 128.681 144.034  0.00  0.00    +0.000 OA
ATOM     44  C   UNL     1     111.318 129.971 141.987  0.00  0.00    +0.000 A 
ATOM     45  C   UNL     1     111.923 129.768 142.510  0.00  0.00    +0.000 A 
ATOM     46  C   UNL     1     110.541 129.744 142.146  0.00  0.00    +0.000 A 
ATOM     47  C   UNL     1     111.750 129.338 143.192  0.00  0.00    +0.000 A 
ATOM     48  C   UNL     1     110.369 129.314 142.828  0.00  0.00    +0.000 A 
ATOM     49  C   UNL     1     110.973 129.111 143.351  0.00  0.00    +0.000 A 
ENDBRANCH  41  44
ENDBRANCH  39  40
ENDBRANCH   5  39
BRANCH   3  50
ATOM     50  O   UNL     1     110.419 129.474 136.958  0.00  0.00    +0.000 OA
BRANCH  50  55
ATOM     51  O   UNL     1     109.650 130.544 136.405  0.00  0.00    +0.000 OA
ATOM     52  O   UNL     1     109.214 128.412 136.580  0.00  0.00    +0.000 OA
ATOM     53  O   UNL     1     107.843 128.951 135.838  0.00  0.00    +0.000 OA
ATOM     54  O   UNL     1     107.676 130.551 135.474  0.00  0.00    +0.000 OA
ATOM     55  C   UNL     1     109.733 129.743 136.587  0.00  0.00    +0.000 C 
ATOM     56  C   UNL     1     109.131 129.212 136.398  0.00  0.00    +0.000 C 
ATOM     57  C   UNL     1     108.445 129.482 136.027  0.00  0.00    +0.000 C 
ATOM     58  C   UNL     1     108.362 130.282 135.845  0.00  0.00    +0.000 C 
ATOM     59  C   UNL     1     108.964 130.813 136.034  0.00  0.00    +0.000 C 
BRANCH  59  62
ATOM     60  O   UNL     1     108.445 132.106 136.350  0.00  0.00    +0.000 OA
ATOM     61  O   UNL     1     109.234 131.921 135.173  0.00  0.00    +0.000 OA
ATOM     62  C   UNL     1     108.881 131.613 135.852  0.00  0.00    +0.000 C 
ENDBRANCH  59  62
ENDBRANCH  50  55
ENDBRANCH   3  50
TORSDOF 10
ENDMDL
MODEL 8
REMARK VINA RESULT:     -10.9      1.660      4.965
REMARK  Name = 131832811
REMARK  10 active torsions:
REMARK  status: ('A' for Active; 'I' for Inactive)
REMARK    1  A    between atoms: O_1  and  C_26
REMARK    2  A    between atoms: O_1  and  C_32
REMARK    3  A    between atoms: C_17  and  C_25
REMARK    4  A    between atoms: C_18  and  C_24
REMARK    5  A    between atoms: C_19  and  C_23
REMARK    6  A    between atoms: C_25  and  C_29
REMARK    7  A    between atoms: C_36  and  C_48
REMARK    8  A    between atoms: C_38  and  C_49
REMARK    9  A    between atoms: C_48  and  C_53
REMARK   10  A    between atoms: C_56  and  C_57
REMARK                            x       y       z     vdW  Elec       q    Type
REMARK                         _______ _______ _______ _____ _____    ______ ____
ROOT
ATOM      1  O   UNL     1     110.545 127.139 138.218  0.00  0.00    +0.000 OA
ATOM      2  C   UNL     1     110.846 128.217 139.107  0.00  0.00    +0.000 A 
ATOM      3  C   UNL     1     111.300 128.531 139.721  0.00  0.00    +0.000 A 
ATOM      4  C   UNL     1     110.998 127.454 138.831  0.00  0.00    +0.000 A 
ATOM      5  C   UNL     1     111.603 127.006 139.169  0.00  0.00    +0.000 A 
ATOM      6  C   UNL     1     111.904 128.083 140.058  0.00  0.00    +0.000 A 
ATOM      7  C   UNL     1     112.056 127.321 139.783  0.00  0.00    +0.000 A 
ENDROOT
BRANCH   2  10
ATOM      8  C   UNL     1     110.296 129.185 138.212  0.00  0.00    +0.000 C 
ATOM      9  C   UNL     1     109.787 129.819 138.071  0.00  0.00    +0.000 C 
ATOM     10  C   UNL     1     110.337 128.850 138.966  0.00  0.00    +0.000 C 
ATOM     11  C   UNL     1     109.320 130.118 138.682  0.00  0.00    +0.000 C 
ATOM     12  C   UNL     1     109.871 129.149 139.577  0.00  0.00    +0.000 C 
ATOM     13  C   UNL     1     109.362 129.783 139.435  0.00  0.00    +0.000 C 
ATOM     14  C   UNL     1     108.896 130.082 140.046  0.00  0.00    +0.000 C 
BRANCH   9  17
ATOM     15  O   UNL     1     108.698 129.244 136.972  0.00  0.00    +0.000 OA
ATOM     16  O   UNL     1     109.618 131.159 135.060  0.00  0.00    +0.000 OA
ATOM     17  C   UNL     1     109.745 130.153 137.318  0.00  0.00    +0.000 A 
ATOM     18  C   UNL     1     109.200 129.866 136.768  0.00  0.00    +0.000 A 
ATOM     19  C   UNL     1     110.246 130.776 137.114  0.00  0.00    +0.000 A 
ATOM     20  C   UNL     1     109.158 130.201 136.016  0.00  0.00    +0.000 A 
ATOM     21  C   UNL     1     110.204 131.110 136.362  0.00  0.00    +0.000 A 
ATOM     22  C   UNL     1     109.660 130.823 135.813  0.00  0.00    +0.000 A 
ENDBRANCH   9  17
BRANCH   8  24
ATOM     23  O   UNL     1     110.465 127.981 137.866  0.00  0.00    +0.000 OA
ATOM     24  C   UNL     1     110.843 128.713 137.815  0.00  0.00    +0.000 C 
BRANCH  24  27
ATOM     25  O   UNL     1     113.629 130.076 136.592  0.00  0.00    +0.000 OA
ATOM     26  O   UNL     1     111.523 128.096 136.444  0.00  0.00    +0.000 OA
ATOM     27  C   UNL     1     111.532 129.048 137.510  0.00  0.00    +0.000 A 
ATOM     28  C   UNL     1     111.872 128.739 136.825  0.00  0.00    +0.000 A 
ATOM     29  C   UNL     1     111.881 129.692 137.890  0.00  0.00    +0.000 A 
ATOM     30  C   UNL     1     112.562 129.075 136.519  0.00  0.00    +0.000 A 
ATOM     31  C   UNL     1     112.910 129.718 136.900  0.00  0.00    +0.000 A 
ATOM     32  C   UNL     1     112.570 130.027 137.585  0.00  0.00    +0.000 A 
ATOM     33  C   UNL     1     113.988 129.759 135.878  0.00  0.00    +0.000 C 
ATOM     34  C   UNL     1     112.906 128.744 135.805  0.00  0.00    +0.000 C 
ATOM     35  C   UNL     1     113.624 129.089 135.482  0.00  0.00    +0.000 C 
ATOM     36  C   UNL     1     114.584 129.778 135.308  0.00  0.00    +0.000 C 
ATOM     37  C   UNL     1     114.586 130.326 135.925  0.00  0.00    +0.000 C 
ENDBRANCH  24  27
ENDBRANCH   8  24
ENDBRANCH   2  10
BRANCH   5  39
ATOM     38  O   UNL     1     111.217 125.636 139.044  0.00  0.00    +0.000 OA
ATOM     39  C   UNL     1     111.755 126.243 138.893  0.00  0.00    +0.000 C 
BRANCH  39  40
ATOM     40  C   UNL     1     112.444 126.089 138.467  0.00  0.00    +0.000 C 
ATOM     41  C   UNL     1     112.502 125.403 138.011  0.00  0.00    +0.000 C 
BRANCH  41  44
ATOM     42  O   UNL     1     112.430 124.515 136.623  0.00  0.00    +0.000 OA
ATOM     43  O   UNL     1     115.257 124.783 136.305  0.00  0.00    +0.000 OA
ATOM     44  C   UNL     1     113.191 125.248 137.585  0.00  0.00    +0.000 A 
ATOM     45  C   UNL     1     113.155 124.804 136.891  0.00  0.00    +0.000 A 
ATOM     46  C   UNL     1     113.916 125.538 137.852  0.00  0.00    +0.000 A 
ATOM     47  C   UNL     1     113.844 124.649 136.465  0.00  0.00    +0.000 A 
ATOM     48  C   UNL     1     114.604 125.383 137.426  0.00  0.00    +0.000 A 
ATOM     49  C   UNL     1     114.569 124.939 136.732  0.00  0.00    +0.000 A 
ENDBRANCH  41  44
ENDBRANCH  39  40
ENDBRANCH   5  39
BRANCH   3  50
ATOM     50  O   UNL     1     111.148 129.293 139.997  0.00  0.00    +0.000 OA
BRANCH  50  55
ATOM     51  O   UNL     1     111.118 129.117 141.415  0.00  0.00    +0.000 OA
ATOM     52  O   UNL     1     112.211 130.542 140.175  0.00  0.00    +0.000 OA
ATOM     53  O   UNL     1     112.713 130.990 141.682  0.00  0.00    +0.000 OA
ATOM     54  O   UNL     1     112.151 130.189 143.010  0.00  0.00    +0.000 OA
ATOM     55  C   UNL     1     111.399 129.518 140.750  0.00  0.00    +0.000 C 
ATOM     56  C   UNL     1     111.930 130.142 140.839  0.00  0.00    +0.000 C 
ATOM     57  C   UNL     1     112.181 130.366 141.593  0.00  0.00    +0.000 C 
ATOM     58  C   UNL     1     111.900 129.966 142.257  0.00  0.00    +0.000 C 
ATOM     59  C   UNL     1     111.369 129.341 142.168  0.00  0.00    +0.000 C 
BRANCH  59  62
ATOM     60  O   UNL     1     111.546 128.349 143.181  0.00  0.00    +0.000 OA
ATOM     61  O   UNL     1     110.349 129.129 143.146  0.00  0.00    +0.000 OA
ATOM     62  C   UNL     1     111.088 128.940 142.831  0.00  0.00    +0.000 C 
ENDBRANCH  59  62
ENDBRANCH  50  55
ENDBRANCH   3  50
TORSDOF 10
ENDMDL
MODEL 9
REMARK VINA RESULT:     -10.8      1.518      5.337
REMARK  Name = 131832811
REMARK  10 active torsions:
REMARK  status: ('A' for Active; 'I' for Inactive)
REMARK    1  A    between atoms: O_1  and  C_26
REMARK    2  A    between atoms: O_1  and  C_32
REMARK    3  A    between atoms: C_17  and  C_25
REMARK    4  A    between atoms: C_18  and  C_24
REMARK    5  A    between atoms: C_19  and  C_23
REMARK    6  A    between atoms: C_25  and  C_29
REMARK    7  A    between atoms: C_36  and  C_48
REMARK    8  A    between atoms: C_38  and  C_49
REMARK    9  A    between atoms: C_48  and  C_53
REMARK   10  A    between atoms: C_56  and  C_57
REMARK                            x       y       z     vdW  Elec       q    Type
REMARK                         _______ _______ _______ _____ _____    ______ ____
ROOT
ATOM      1  O   UNL     1     110.035 128.103 138.973  0.00  0.00    +0.000 OA
ATOM      2  C   UNL     1     110.043 129.124 137.973  0.00  0.00    +0.000 A 
ATOM      3  C   UNL     1     109.900 129.905 137.749  0.00  0.00    +0.000 A 
ATOM      4  C   UNL     1     109.892 128.883 138.748  0.00  0.00    +0.000 A 
ATOM      5  C   UNL     1     109.599 129.424 139.299  0.00  0.00    +0.000 A 
ATOM      6  C   UNL     1     109.607 130.445 138.298  0.00  0.00    +0.000 A 
ATOM      7  C   UNL     1     109.457 130.205 139.073  0.00  0.00    +0.000 A 
ENDROOT
BRANCH   2  10
ATOM      8  C   UNL     1     111.131 128.748 137.127  0.00  0.00    +0.000 C 
ATOM      9  C   UNL     1     111.408 128.442 136.413  0.00  0.00    +0.000 C 
ATOM     10  C   UNL     1     110.319 128.818 137.259  0.00  0.00    +0.000 C 
ATOM     11  C   UNL     1     110.873 128.205 135.830  0.00  0.00    +0.000 C 
ATOM     12  C   UNL     1     109.785 128.582 136.677  0.00  0.00    +0.000 C 
ATOM     13  C   UNL     1     110.061 128.276 135.962  0.00  0.00    +0.000 C 
ATOM     14  C   UNL     1     109.527 128.039 135.380  0.00  0.00    +0.000 C 
BRANCH   9  17
ATOM     15  O   UNL     1     112.067 126.963 136.095  0.00  0.00    +0.000 OA
ATOM     16  O   UNL     1     114.653 128.162 135.885  0.00  0.00    +0.000 OA
ATOM     17  C   UNL     1     112.219 128.372 136.281  0.00  0.00    +0.000 A 
ATOM     18  C   UNL     1     112.549 127.632 136.122  0.00  0.00    +0.000 A 
ATOM     19  C   UNL     1     112.701 129.040 136.307  0.00  0.00    +0.000 A 
ATOM     20  C   UNL     1     113.360 127.562 135.990  0.00  0.00    +0.000 A 
ATOM     21  C   UNL     1     113.512 128.970 136.175  0.00  0.00    +0.000 A 
ATOM     22  C   UNL     1     113.841 128.231 136.017  0.00  0.00    +0.000 A 
ENDBRANCH   9  17
BRANCH   8  24
ATOM     23  O   UNL     1     111.146 129.822 137.794  0.00  0.00    +0.000 OA
ATOM     24  C   UNL     1     111.419 129.044 137.842  0.00  0.00    +0.000 C 
BRANCH  24  27
ATOM     25  O   UNL     1     113.137 127.052 139.889  0.00  0.00    +0.000 OA
ATOM     26  O   UNL     1     112.626 129.673 138.773  0.00  0.00    +0.000 OA
ATOM     27  C   UNL     1     111.845 128.554 138.349  0.00  0.00    +0.000 A 
ATOM     28  C   UNL     1     112.449 128.868 138.815  0.00  0.00    +0.000 A 
ATOM     29  C   UNL     1     111.669 127.749 138.391  0.00  0.00    +0.000 A 
ATOM     30  C   UNL     1     112.877 128.378 139.323  0.00  0.00    +0.000 A 
ATOM     31  C   UNL     1     112.700 127.573 139.364  0.00  0.00    +0.000 A 
ATOM     32  C   UNL     1     112.096 127.259 138.898  0.00  0.00    +0.000 A 
ATOM     33  C   UNL     1     113.768 127.374 140.377  0.00  0.00    +0.000 C 
ATOM     34  C   UNL     1     113.503 128.718 139.803  0.00  0.00    +0.000 C 
ATOM     35  C   UNL     1     113.951 128.212 140.333  0.00  0.00    +0.000 C 
ATOM     36  C   UNL     1     114.362 127.269 140.939  0.00  0.00    +0.000 C 
ATOM     37  C   UNL     1     113.909 126.625 140.692  0.00  0.00    +0.000 C 
ENDBRANCH  24  27
ENDBRANCH   8  24
ENDBRANCH   2  10
BRANCH   5  39
ATOM     38  O   UNL     1     108.792 128.713 140.239  0.00  0.00    +0.000 OA
ATOM     39  C   UNL     1     109.449 129.184 140.073  0.00  0.00    +0.000 C 
BRANCH  39  40
ATOM     40  C   UNL     1     109.955 129.415 140.682  0.00  0.00    +0.000 C 
ATOM     41  C   UNL     1     109.969 128.992 141.390  0.00  0.00    +0.000 C 
BRANCH  41  44
ATOM     42  O   UNL     1     110.710 127.850 142.323  0.00  0.00    +0.000 OA
ATOM     43  O   UNL     1     111.995 129.914 143.826  0.00  0.00    +0.000 OA
ATOM     44  C   UNL     1     110.476 129.223 141.999  0.00  0.00    +0.000 A 
ATOM     45  C   UNL     1     110.846 128.652 142.465  0.00  0.00    +0.000 A 
ATOM     46  C   UNL     1     110.612 130.024 142.142  0.00  0.00    +0.000 A 
ATOM     47  C   UNL     1     111.352 128.883 143.074  0.00  0.00    +0.000 A 
ATOM     48  C   UNL     1     111.118 130.254 142.750  0.00  0.00    +0.000 A 
ATOM     49  C   UNL     1     111.488 129.684 143.217  0.00  0.00    +0.000 A 
ENDBRANCH  41  44
ENDBRANCH  39  40
ENDBRANCH   5  39
BRANCH   3  50
ATOM     50  O   UNL     1     110.050 130.145 136.974  0.00  0.00    +0.000 OA
BRANCH  50  55
ATOM     51  O   UNL     1     108.826 130.747 136.548  0.00  0.00    +0.000 OA
ATOM     52  O   UNL     1     110.870 131.512 136.549  0.00  0.00    +0.000 OA
ATOM     53  O   UNL     1     110.056 132.798 135.911  0.00  0.00    +0.000 OA
ATOM     54  O   UNL     1     108.423 132.716 135.698  0.00  0.00    +0.000 OA
ATOM     55  C   UNL     1     109.644 130.788 136.655  0.00  0.00    +0.000 C 
ATOM     56  C   UNL     1     110.054 131.472 136.443  0.00  0.00    +0.000 C 
ATOM     57  C   UNL     1     109.646 132.114 136.123  0.00  0.00    +0.000 C 
ATOM     58  C   UNL     1     108.830 132.074 136.017  0.00  0.00    +0.000 C 
ATOM     59  C   UNL     1     108.420 131.390 136.229  0.00  0.00    +0.000 C 
BRANCH  59  62
ATOM     60  O   UNL     1     107.097 131.688 136.680  0.00  0.00    +0.000 OA
ATOM     61  O   UNL     1     107.291 130.969 135.460  0.00  0.00    +0.000 OA
ATOM     62  C   UNL     1     107.603 131.349 136.123  0.00  0.00    +0.000 C 
ENDBRANCH  59  62
ENDBRANCH  50  55
ENDBRANCH   3  50
TORSDOF 10
ENDMDL
MODEL 10
REMARK VINA RESULT:     -10.8      2.279      3.712
REMARK  Name = 131832811
REMARK  10 active torsions:
REMARK  status: ('A' for Active; 'I' for Inactive)
REMARK    1  A    between atoms: O_1  and  C_26
REMARK    2  A    between atoms: O_1  and  C_32
REMARK    3  A    between atoms: C_17  and  C_25
REMARK    4  A    between atoms: C_18  and  C_24
REMARK    5  A    between atoms: C_19  and  C_23
REMARK    6  A    between atoms: C_25  and  C_29
REMARK    7  A    between atoms: C_36  and  C_48
REMARK    8  A    between atoms: C_38  and  C_49
REMARK    9  A    between atoms: C_48  and  C_53
REMARK   10  A    between atoms: C_56  and  C_57
REMARK                            x       y       z     vdW  Elec       q    Type
REMARK                         _______ _______ _______ _____ _____    ______ ____
ROOT
ATOM      1  O   UNL     1     111.059 128.273 138.607  0.00  0.00    +0.000 OA
ATOM      2  C   UNL     1     110.827 128.896 139.872  0.00  0.00    +0.000 A 
ATOM      3  C   UNL     1     110.353 129.361 140.363  0.00  0.00    +0.000 A 
ATOM      4  C   UNL     1     110.587 128.738 139.098  0.00  0.00    +0.000 A 
ATOM      5  C   UNL     1     109.875 129.045 138.815  0.00  0.00    +0.000 A 
ATOM      6  C   UNL     1     109.642 129.668 140.081  0.00  0.00    +0.000 A 
ATOM      7  C   UNL     1     109.403 129.510 139.307  0.00  0.00    +0.000 A 
ENDROOT
BRANCH   2  10
ATOM      8  C   UNL     1     112.154 129.157 140.332  0.00  0.00    +0.000 C 
ATOM      9  C   UNL     1     112.777 128.992 140.847  0.00  0.00    +0.000 C 
ATOM     10  C   UNL     1     111.449 128.731 140.387  0.00  0.00    +0.000 C 
ATOM     11  C   UNL     1     112.695 128.401 141.417  0.00  0.00    +0.000 C 
ATOM     12  C   UNL     1     111.368 128.140 140.957  0.00  0.00    +0.000 C 
ATOM     13  C   UNL     1     111.990 127.975 141.472  0.00  0.00    +0.000 C 
ATOM     14  C   UNL     1     111.909 127.385 142.042  0.00  0.00    +0.000 C 
BRANCH   9  17
ATOM     15  O   UNL     1     114.199 128.202 140.575  0.00  0.00    +0.000 OA
ATOM     16  O   UNL     1     115.595 130.695 140.628  0.00  0.00    +0.000 OA
ATOM     17  C   UNL     1     113.481 129.418 140.792  0.00  0.00    +0.000 A 
ATOM     18  C   UNL     1     114.193 129.023 140.656  0.00  0.00    +0.000 A 
ATOM     19  C   UNL     1     113.475 130.239 140.873  0.00  0.00    +0.000 A 
ATOM     20  C   UNL     1     114.897 129.448 140.602  0.00  0.00    +0.000 A 
ATOM     21  C   UNL     1     114.179 130.664 140.819  0.00  0.00    +0.000 A 
ATOM     22  C   UNL     1     114.890 130.269 140.683  0.00  0.00    +0.000 A 
ENDBRANCH   9  17
BRANCH   8  24
ATOM     23  O   UNL     1     111.354 130.094 140.046  0.00  0.00    +0.000 OA
ATOM     24  C   UNL     1     111.969 129.661 139.705  0.00  0.00    +0.000 C 
BRANCH  24  27
ATOM     25  O   UNL     1     113.665 129.440 136.844  0.00  0.00    +0.000 OA
ATOM     26  O   UNL     1     112.243 131.019 138.809  0.00  0.00    +0.000 OA
ATOM     27  C   UNL     1     112.388 129.610 138.997  0.00  0.00    +0.000 A 
ATOM     28  C   UNL     1     112.525 130.288 138.549  0.00  0.00    +0.000 A 
ATOM     29  C   UNL     1     112.670 128.880 138.736  0.00  0.00    +0.000 A 
ATOM     30  C   UNL     1     112.945 130.237 137.840  0.00  0.00    +0.000 A 
ATOM     31  C   UNL     1     113.227 129.507 137.580  0.00  0.00    +0.000 A 
ATOM     32  C   UNL     1     113.090 128.828 138.028  0.00  0.00    +0.000 A 
ATOM     33  C   UNL     1     113.811 130.144 136.372  0.00  0.00    +0.000 C 
ATOM     34  C   UNL     1     113.081 130.952 137.382  0.00  0.00    +0.000 C 
ATOM     35  C   UNL     1     113.517 130.904 136.644  0.00  0.00    +0.000 C 
ATOM     36  C   UNL     1     114.134 130.503 135.703  0.00  0.00    +0.000 C 
ATOM     37  C   UNL     1     114.215 129.690 135.815  0.00  0.00    +0.000 C 
ENDBRANCH  24  27
ENDBRANCH   8  24
ENDBRANCH   2  10
BRANCH   5  39
ATOM     38  O   UNL     1     109.548 128.107 137.789  0.00  0.00    +0.000 OA
ATOM     39  C   UNL     1     109.636 128.887 138.042  0.00  0.00    +0.000 C 
BRANCH  39  40
ATOM     40  C   UNL     1     109.484 129.509 137.522  0.00  0.00    +0.000 C 
ATOM     41  C   UNL     1     109.522 129.384 136.708  0.00  0.00    +0.000 C 
BRANCH  41  44
ATOM     42  O   UNL     1     110.443 129.567 135.351  0.00  0.00    +0.000 OA
ATOM     43  O   UNL     1     108.918 131.872 134.626  0.00  0.00    +0.000 OA
ATOM     44  C   UNL     1     109.371 130.007 136.187  0.00  0.00    +0.000 A 
ATOM     45  C   UNL     1     109.831 130.097 135.509  0.00  0.00    +0.000 A 
ATOM     46  C   UNL     1     108.759 130.537 136.345  0.00  0.00    +0.000 A 
ATOM     47  C   UNL     1     109.680 130.720 134.989  0.00  0.00    +0.000 A 
ATOM     48  C   UNL     1     108.608 131.159 135.825  0.00  0.00    +0.000 A 
ATOM     49  C   UNL     1     109.068 131.250 135.147  0.00  0.00    +0.000 A 
ENDBRANCH  41  44
ENDBRANCH  39  40
ENDBRANCH   5  39
BRANCH   3  50
ATOM     50  O   UNL     1     110.593 129.519 141.136  0.00  0.00    +0.000 OA
BRANCH  50  55
ATOM     51  O   UNL     1     109.469 129.121 141.924  0.00  0.00    +0.000 OA
ATOM     52  O   UNL     1     110.591 130.993 141.878  0.00  0.00    +0.000 OA
ATOM     53  O   UNL     1     109.467 131.332 143.037  0.00  0.00    +0.000 OA
ATOM     54  O   UNL     1     108.345 130.198 143.454  0.00  0.00    +0.000 OA
ATOM     55  C   UNL     1     110.031 129.689 141.716  0.00  0.00    +0.000 C 
ATOM     56  C   UNL     1     110.030 130.426 142.086  0.00  0.00    +0.000 C 
ATOM     57  C   UNL     1     109.468 130.595 142.666  0.00  0.00    +0.000 C 
ATOM     58  C   UNL     1     108.907 130.029 142.875  0.00  0.00    +0.000 C 
ATOM     59  C   UNL     1     108.907 129.292 142.504  0.00  0.00    +0.000 C 
BRANCH  59  62
ATOM     60  O   UNL     1     107.583 128.765 142.400  0.00  0.00    +0.000 OA
ATOM     61  O   UNL     1     108.548 128.116 143.232  0.00  0.00    +0.000 OA
ATOM     62  C   UNL     1     108.346 128.724 142.712  0.00  0.00    +0.000 C 
ENDBRANCH  59  62
ENDBRANCH  50  55
ENDBRANCH   3  50
TORSDOF 10
ENDMDL
