MODEL 1
REMARK VINA RESULT:     -10.0      0.000      0.000
REMARK  Name = 44258390
REMARK  8 active torsions:
REMARK  status: ('A' for Active; 'I' for Inactive)
REMARK    1  A    between atoms: O_1  and  C_16
REMARK    2  A    between atoms: O_1  and  C_21
REMARK    3  A    between atoms: O_10  and  C_30
REMARK    4  A    between atoms: O_14  and  C_41
REMARK    5  A    between atoms: O_15  and  C_43
REMARK    6  A    between atoms: C_18  and  C_26
REMARK    7  A    between atoms: C_20  and  C_27
REMARK    8  A    between atoms: C_36  and  C_38
REMARK                            x       y       z     vdW  Elec       q    Type
REMARK                         _______ _______ _______ _____ _____    ______ ____
ROOT
ATOM      1  O   UNL     1     111.563 132.385 142.205  0.00  0.00    +0.000 OA
ATOM      2  O   UNL     1     111.577 131.494 144.959  0.00  0.00    +0.000 OA
ATOM      3  O   UNL     1     111.951 133.314 143.239  0.00  0.00    +0.000 OA
ATOM      4  C   UNL     1     111.189 131.043 142.522  0.00  0.00    +0.000 A 
ATOM      5  C   UNL     1     111.440 131.790 142.763  0.00  0.00    +0.000 A 
ATOM      6  C   UNL     1     111.066 130.448 143.080  0.00  0.00    +0.000 A 
ATOM      7  C   UNL     1     111.569 131.943 143.564  0.00  0.00    +0.000 A 
ATOM      8  C   UNL     1     111.195 130.600 143.880  0.00  0.00    +0.000 A 
ATOM      9  C   UNL     1     111.447 131.348 144.123  0.00  0.00    +0.000 A 
ATOM     10  C   UNL     1     111.831 132.725 143.804  0.00  0.00    +0.000 A 
ATOM     11  C   UNL     1     111.967 132.891 144.636  0.00  0.00    +0.000 A 
ATOM     12  C   UNL     1     111.839 132.271 145.218  0.00  0.00    +0.000 A 
ENDROOT
BRANCH   4  18
ATOM     13  O   UNL     1     110.291 130.866 141.424  0.00  0.00    +0.000 OA
ATOM     14  O   UNL     1     112.213 130.482 139.913  0.00  0.00    +0.000 OA
ATOM     15  O   UNL     1     110.675 130.433 139.319  0.00  0.00    +0.000 OA
ATOM     16  C   UNL     1     111.701 130.762 141.217  0.00  0.00    +0.000 C 
ATOM     17  C   UNL     1     111.572 130.610 140.416  0.00  0.00    +0.000 C 
ATOM     18  C   UNL     1     111.060 130.890 141.721  0.00  0.00    +0.000 C 
ATOM     19  C   UNL     1     110.803 130.585 140.119  0.00  0.00    +0.000 C 
ATOM     20  C   UNL     1     110.162 130.713 140.624  0.00  0.00    +0.000 C 
BRANCH  20  22
ATOM     21  O   UNL     1     108.832 131.236 140.588  0.00  0.00    +0.000 OA
ATOM     22  C   UNL     1     109.393 130.689 140.327  0.00  0.00    +0.000 C 
ENDBRANCH  20  22
BRANCH  16  23
ATOM     23  O   UNL     1     112.471 130.787 141.514  0.00  0.00    +0.000 OA
BRANCH  23  28
ATOM     24  O   UNL     1     112.773 129.409 141.281  0.00  0.00    +0.000 OA
ATOM     25  O   UNL     1     114.029 131.190 141.153  0.00  0.00    +0.000 OA
ATOM     26  O   UNL     1     115.111 130.014 140.739  0.00  0.00    +0.000 OA
ATOM     27  O   UNL     1     114.633 128.435 140.687  0.00  0.00    +0.000 OA
ATOM     28  C   UNL     1     113.011 130.198 141.307  0.00  0.00    +0.000 C 
ATOM     29  C   UNL     1     113.790 130.400 141.127  0.00  0.00    +0.000 C 
ATOM     30  C   UNL     1     114.331 129.812 140.920  0.00  0.00    +0.000 C 
ATOM     31  C   UNL     1     114.092 129.023 140.894  0.00  0.00    +0.000 C 
ATOM     32  C   UNL     1     113.313 128.822 141.075  0.00  0.00    +0.000 C 
ATOM     33  C   UNL     1     113.075 128.032 141.048  0.00  0.00    +0.000 C 
ENDBRANCH  23  28
ENDBRANCH  16  23
ENDBRANCH   4  18
BRANCH  12  34
ATOM     34  C   UNL     1     111.967 132.421 146.019  0.00  0.00    +0.000 A 
ATOM     35  C   UNL     1     111.419 132.863 146.449  0.00  0.00    +0.000 A 
ATOM     36  C   UNL     1     112.643 132.128 146.390  0.00  0.00    +0.000 A 
ATOM     37  C   UNL     1     111.548 133.012 147.250  0.00  0.00    +0.000 A 
ATOM     38  C   UNL     1     112.772 132.277 147.191  0.00  0.00    +0.000 A 
ATOM     39  C   UNL     1     112.224 132.719 147.621  0.00  0.00    +0.000 A 
BRANCH  37  40
ATOM     40  O   UNL     1     111.000 133.455 147.680  0.00  0.00    +0.000 OA
ATOM     41  C   UNL     1     110.210 133.469 147.447  0.00  0.00    +0.000 C 
ENDBRANCH  37  40
BRANCH  39  42
ATOM     42  O   UNL     1     112.353 132.869 148.422  0.00  0.00    +0.000 OA
ATOM     43  C   UNL     1     112.943 132.461 148.829  0.00  0.00    +0.000 C 
ENDBRANCH  39  42
ENDBRANCH  12  34
BRANCH   6  44
ATOM     44  O   UNL     1     110.815 129.700 142.837  0.00  0.00    +0.000 OA
ATOM     45  C   UNL     1     110.535 129.159 143.393  0.00  0.00    +0.000 C 
ENDBRANCH   6  44
TORSDOF 8
ENDMDL
MODEL 2
REMARK VINA RESULT:     -10.0      5.818      7.471
REMARK  Name = 44258390
REMARK  8 active torsions:
REMARK  status: ('A' for Active; 'I' for Inactive)
REMARK    1  A    between atoms: O_1  and  C_16
REMARK    2  A    between atoms: O_1  and  C_21
REMARK    3  A    between atoms: O_10  and  C_30
REMARK    4  A    between atoms: O_14  and  C_41
REMARK    5  A    between atoms: O_15  and  C_43
REMARK    6  A    between atoms: C_18  and  C_26
REMARK    7  A    between atoms: C_20  and  C_27
REMARK    8  A    between atoms: C_36  and  C_38
REMARK                            x       y       z     vdW  Elec       q    Type
REMARK                         _______ _______ _______ _____ _____    ______ ____
ROOT
ATOM      1  O   UNL     1     105.248 126.539 143.858  0.00  0.00    +0.000 OA
ATOM      2  O   UNL     1     106.655 126.789 146.375  0.00  0.00    +0.000 OA
ATOM      3  O   UNL     1     105.177 125.456 144.810  0.00  0.00    +0.000 OA
ATOM      4  C   UNL     1     105.998 127.722 144.141  0.00  0.00    +0.000 A 
ATOM      5  C   UNL     1     105.730 126.975 144.366  0.00  0.00    +0.000 A 
ATOM      6  C   UNL     1     106.480 128.158 144.648  0.00  0.00    +0.000 A 
ATOM      7  C   UNL     1     105.944 126.665 145.101  0.00  0.00    +0.000 A 
ATOM      8  C   UNL     1     106.694 127.848 145.382  0.00  0.00    +0.000 A 
ATOM      9  C   UNL     1     106.426 127.101 145.608  0.00  0.00    +0.000 A 
ATOM     10  C   UNL     1     105.658 125.886 145.324  0.00  0.00    +0.000 A 
ATOM     11  C   UNL     1     105.877 125.556 146.087  0.00  0.00    +0.000 A 
ATOM     12  C   UNL     1     106.379 126.011 146.616  0.00  0.00    +0.000 A 
ENDROOT
BRANCH   4  18
ATOM     13  O   UNL     1     105.048 128.391 143.309  0.00  0.00    +0.000 OA
ATOM     14  O   UNL     1     106.615 128.244 141.399  0.00  0.00    +0.000 OA
ATOM     15  O   UNL     1     105.143 128.962 141.205  0.00  0.00    +0.000 OA
ATOM     16  C   UNL     1     106.307 127.983 142.770  0.00  0.00    +0.000 C 
ATOM     17  C   UNL     1     106.092 128.293 142.035  0.00  0.00    +0.000 C 
ATOM     18  C   UNL     1     105.784 128.032 143.406  0.00  0.00    +0.000 C 
ATOM     19  C   UNL     1     105.356 128.652 141.938  0.00  0.00    +0.000 C 
ATOM     20  C   UNL     1     104.834 128.701 142.575  0.00  0.00    +0.000 C 
BRANCH  20  22
ATOM     21  O   UNL     1     103.790 129.540 143.075  0.00  0.00    +0.000 OA
ATOM     22  C   UNL     1     104.098 129.060 142.478  0.00  0.00    +0.000 C 
ENDBRANCH  20  22
BRANCH  16  23
ATOM     23  O   UNL     1     107.043 127.623 142.867  0.00  0.00    +0.000 OA
BRANCH  23  28
ATOM     24  O   UNL     1     106.762 126.508 142.019  0.00  0.00    +0.000 OA
ATOM     25  O   UNL     1     108.626 127.577 142.405  0.00  0.00    +0.000 OA
ATOM     26  O   UNL     1     109.137 126.438 141.326  0.00  0.00    +0.000 OA
ATOM     27  O   UNL     1     108.065 125.346 140.709  0.00  0.00    +0.000 OA
ATOM     28  C   UNL     1     107.298 127.054 142.328  0.00  0.00    +0.000 C 
ATOM     29  C   UNL     1     108.090 127.030 142.097  0.00  0.00    +0.000 C 
ATOM     30  C   UNL     1     108.346 126.461 141.557  0.00  0.00    +0.000 C 
ATOM     31  C   UNL     1     107.809 125.916 141.249  0.00  0.00    +0.000 C 
ATOM     32  C   UNL     1     107.018 125.939 141.480  0.00  0.00    +0.000 C 
ATOM     33  C   UNL     1     106.482 125.393 141.171  0.00  0.00    +0.000 C 
ENDBRANCH  23  28
ENDBRANCH  16  23
ENDBRANCH   4  18
BRANCH  12  34
ATOM     34  C   UNL     1     106.595 125.704 147.351  0.00  0.00    +0.000 A 
ATOM     35  C   UNL     1     106.137 125.868 148.018  0.00  0.00    +0.000 A 
ATOM     36  C   UNL     1     107.268 125.231 147.419  0.00  0.00    +0.000 A 
ATOM     37  C   UNL     1     106.353 125.560 148.752  0.00  0.00    +0.000 A 
ATOM     38  C   UNL     1     107.483 124.923 148.152  0.00  0.00    +0.000 A 
ATOM     39  C   UNL     1     107.026 125.087 148.819  0.00  0.00    +0.000 A 
BRANCH  37  40
ATOM     40  O   UNL     1     105.896 125.725 149.419  0.00  0.00    +0.000 OA
ATOM     41  C   UNL     1     105.383 126.369 149.417  0.00  0.00    +0.000 C 
ENDBRANCH  37  40
BRANCH  39  42
ATOM     42  O   UNL     1     107.242 124.779 149.553  0.00  0.00    +0.000 OA
ATOM     43  C   UNL     1     107.881 124.262 149.612  0.00  0.00    +0.000 C 
ENDBRANCH  39  42
ENDBRANCH  12  34
BRANCH   6  44
ATOM     44  O   UNL     1     106.748 128.905 144.422  0.00  0.00    +0.000 OA
ATOM     45  C   UNL     1     107.079 129.412 144.982  0.00  0.00    +0.000 C 
ENDBRANCH   6  44
TORSDOF 8
ENDMDL
MODEL 3
REMARK VINA RESULT:     -10.0      3.153      7.553
REMARK  Name = 44258390
REMARK  8 active torsions:
REMARK  status: ('A' for Active; 'I' for Inactive)
REMARK    1  A    between atoms: O_1  and  C_16
REMARK    2  A    between atoms: O_1  and  C_21
REMARK    3  A    between atoms: O_10  and  C_30
REMARK    4  A    between atoms: O_14  and  C_41
REMARK    5  A    between atoms: O_15  and  C_43
REMARK    6  A    between atoms: C_18  and  C_26
REMARK    7  A    between atoms: C_20  and  C_27
REMARK    8  A    between atoms: C_36  and  C_38
REMARK                            x       y       z     vdW  Elec       q    Type
REMARK                         _______ _______ _______ _____ _____    ______ ____
ROOT
ATOM      1  O   UNL     1     113.794 128.308 140.992  0.00  0.00    +0.000 OA
ATOM      2  O   UNL     1     112.971 127.336 138.393  0.00  0.00    +0.000 OA
ATOM      3  O   UNL     1     113.925 126.901 140.698  0.00  0.00    +0.000 OA
ATOM      4  C   UNL     1     113.268 129.218 140.025  0.00  0.00    +0.000 A 
ATOM      5  C   UNL     1     113.483 128.452 140.242  0.00  0.00    +0.000 A 
ATOM      6  C   UNL     1     112.957 129.363 139.274  0.00  0.00    +0.000 A 
ATOM      7  C   UNL     1     113.387 127.830 139.708  0.00  0.00    +0.000 A 
ATOM      8  C   UNL     1     112.861 128.742 138.741  0.00  0.00    +0.000 A 
ATOM      9  C   UNL     1     113.076 127.975 138.957  0.00  0.00    +0.000 A 
ATOM     10  C   UNL     1     113.615 127.037 139.945  0.00  0.00    +0.000 A 
ATOM     11  C   UNL     1     113.518 126.384 139.395  0.00  0.00    +0.000 A 
ATOM     12  C   UNL     1     113.193 126.535 138.613  0.00  0.00    +0.000 A 
ENDROOT
BRANCH   4  18
ATOM     13  O   UNL     1     114.105 130.192 140.654  0.00  0.00    +0.000 OA
ATOM     14  O   UNL     1     112.171 131.003 141.969  0.00  0.00    +0.000 OA
ATOM     15  O   UNL     1     113.651 131.705 142.160  0.00  0.00    +0.000 OA
ATOM     16  C   UNL     1     112.719 130.111 140.997  0.00  0.00    +0.000 C 
ATOM     17  C   UNL     1     112.816 130.733 141.531  0.00  0.00    +0.000 C 
ATOM     18  C   UNL     1     113.364 129.841 140.559  0.00  0.00    +0.000 C 
ATOM     19  C   UNL     1     113.556 131.084 141.626  0.00  0.00    +0.000 C 
ATOM     20  C   UNL     1     114.200 130.813 141.188  0.00  0.00    +0.000 C 
BRANCH  20  22
ATOM     21  O   UNL     1     115.280 131.587 140.661  0.00  0.00    +0.000 OA
ATOM     22  C   UNL     1     114.941 131.164 141.283  0.00  0.00    +0.000 C 
ENDBRANCH  20  22
BRANCH  16  23
ATOM     23  O   UNL     1     111.979 129.760 140.901  0.00  0.00    +0.000 OA
BRANCH  23  28
ATOM     24  O   UNL     1     111.932 129.216 142.222  0.00  0.00    +0.000 OA
ATOM     25  O   UNL     1     110.336 129.912 140.906  0.00  0.00    +0.000 OA
ATOM     26  O   UNL     1     109.468 129.445 142.229  0.00  0.00    +0.000 OA
ATOM     27  O   UNL     1     110.243 128.825 143.547  0.00  0.00    +0.000 OA
ATOM     28  C   UNL     1     111.545 129.526 141.563  0.00  0.00    +0.000 C 
ATOM     29  C   UNL     1     110.724 129.602 141.565  0.00  0.00    +0.000 C 
ATOM     30  C   UNL     1     110.289 129.368 142.227  0.00  0.00    +0.000 C 
ATOM     31  C   UNL     1     110.677 129.059 142.885  0.00  0.00    +0.000 C 
ATOM     32  C   UNL     1     111.499 128.982 142.883  0.00  0.00    +0.000 C 
ATOM     33  C   UNL     1     111.886 128.672 143.542  0.00  0.00    +0.000 C 
ENDBRANCH  23  28
ENDBRANCH  16  23
ENDBRANCH   4  18
BRANCH  12  34
ATOM     34  C   UNL     1     113.096 125.915 138.077  0.00  0.00    +0.000 A 
ATOM     35  C   UNL     1     113.721 125.692 137.587  0.00  0.00    +0.000 A 
ATOM     36  C   UNL     1     112.374 125.518 138.032  0.00  0.00    +0.000 A 
ATOM     37  C   UNL     1     113.623 125.071 137.051  0.00  0.00    +0.000 A 
ATOM     38  C   UNL     1     112.277 124.899 137.497  0.00  0.00    +0.000 A 
ATOM     39  C   UNL     1     112.901 124.675 137.007  0.00  0.00    +0.000 A 
BRANCH  37  40
ATOM     40  O   UNL     1     114.248 124.848 136.561  0.00  0.00    +0.000 OA
ATOM     41  C   UNL     1     114.883 125.360 136.443  0.00  0.00    +0.000 C 
ENDBRANCH  37  40
BRANCH  39  42
ATOM     42  O   UNL     1     112.804 124.055 136.471  0.00  0.00    +0.000 OA
ATOM     43  C   UNL     1     112.106 123.616 136.471  0.00  0.00    +0.000 C 
ENDBRANCH  39  42
ENDBRANCH  12  34
BRANCH   6  44
ATOM     44  O   UNL     1     112.742 130.130 139.058  0.00  0.00    +0.000 OA
ATOM     45  C   UNL     1     112.592 130.308 138.267  0.00  0.00    +0.000 C 
ENDBRANCH   6  44
TORSDOF 8
ENDMDL
MODEL 4
REMARK VINA RESULT:     -10.0      3.739      6.649
REMARK  Name = 44258390
REMARK  8 active torsions:
REMARK  status: ('A' for Active; 'I' for Inactive)
REMARK    1  A    between atoms: O_1  and  C_16
REMARK    2  A    between atoms: O_1  and  C_21
REMARK    3  A    between atoms: O_10  and  C_30
REMARK    4  A    between atoms: O_14  and  C_41
REMARK    5  A    between atoms: O_15  and  C_43
REMARK    6  A    between atoms: C_18  and  C_26
REMARK    7  A    between atoms: C_20  and  C_27
REMARK    8  A    between atoms: C_36  and  C_38
REMARK                            x       y       z     vdW  Elec       q    Type
REMARK                         _______ _______ _______ _____ _____    ______ ____
ROOT
ATOM      1  O   UNL     1     112.625 126.005 139.655  0.00  0.00    +0.000 OA
ATOM      2  O   UNL     1     113.057 128.864 139.782  0.00  0.00    +0.000 OA
ATOM      3  O   UNL     1     112.587 126.662 140.940  0.00  0.00    +0.000 OA
ATOM      4  C   UNL     1     112.870 126.742 138.456  0.00  0.00    +0.000 A 
ATOM      5  C   UNL     1     112.778 126.721 139.275  0.00  0.00    +0.000 A 
ATOM      6  C   UNL     1     113.024 127.459 138.076  0.00  0.00    +0.000 A 
ATOM      7  C   UNL     1     112.839 127.417 139.715  0.00  0.00    +0.000 A 
ATOM      8  C   UNL     1     113.084 128.153 138.516  0.00  0.00    +0.000 A 
ATOM      9  C   UNL     1     112.992 128.133 139.335  0.00  0.00    +0.000 A 
ATOM     10  C   UNL     1     112.740 127.382 140.568  0.00  0.00    +0.000 A 
ATOM     11  C   UNL     1     112.802 128.103 141.032  0.00  0.00    +0.000 A 
ATOM     12  C   UNL     1     112.962 128.849 140.636  0.00  0.00    +0.000 A 
ENDROOT
BRANCH   4  18
ATOM     13  O   UNL     1     113.491 125.671 137.741  0.00  0.00    +0.000 OA
ATOM     14  O   UNL     1     111.264 124.711 137.247  0.00  0.00    +0.000 OA
ATOM     15  O   UNL     1     112.627 123.960 136.698  0.00  0.00    +0.000 OA
ATOM     16  C   UNL     1     112.067 125.727 137.852  0.00  0.00    +0.000 C 
ATOM     17  C   UNL     1     112.007 125.031 137.412  0.00  0.00    +0.000 C 
ATOM     18  C   UNL     1     112.810 126.046 138.016  0.00  0.00    +0.000 C 
ATOM     19  C   UNL     1     112.688 124.655 137.137  0.00  0.00    +0.000 C 
ATOM     20  C   UNL     1     113.430 124.976 137.302  0.00  0.00    +0.000 C 
BRANCH  20  22
ATOM     21  O   UNL     1     114.806 124.627 137.473  0.00  0.00    +0.000 OA
ATOM     22  C   UNL     1     114.112 124.601 137.027  0.00  0.00    +0.000 C 
ENDBRANCH  20  22
BRANCH  16  23
ATOM     23  O   UNL     1     111.386 126.102 138.127  0.00  0.00    +0.000 OA
BRANCH  23  28
ATOM     24  O   UNL     1     110.926 126.396 136.806  0.00  0.00    +0.000 OA
ATOM     25  O   UNL     1     109.835 126.181 138.684  0.00  0.00    +0.000 OA
ATOM     26  O   UNL     1     108.600 126.515 137.642  0.00  0.00    +0.000 OA
ATOM     27  O   UNL     1     108.916 126.770 136.043  0.00  0.00    +0.000 OA
ATOM     28  C   UNL     1     110.769 126.269 137.605  0.00  0.00    +0.000 C 
ATOM     29  C   UNL     1     109.993 126.309 137.884  0.00  0.00    +0.000 C 
ATOM     30  C   UNL     1     109.375 126.476 137.363  0.00  0.00    +0.000 C 
ATOM     31  C   UNL     1     109.534 126.603 136.564  0.00  0.00    +0.000 C 
ATOM     32  C   UNL     1     110.310 126.563 136.285  0.00  0.00    +0.000 C 
ATOM     33  C   UNL     1     110.467 126.691 135.485  0.00  0.00    +0.000 C 
ENDBRANCH  23  28
ENDBRANCH  16  23
ENDBRANCH   4  18
BRANCH  12  34
ATOM     34  C   UNL     1     113.023 129.546 141.073  0.00  0.00    +0.000 A 
ATOM     35  C   UNL     1     113.717 129.991 141.046  0.00  0.00    +0.000 A 
ATOM     36  C   UNL     1     112.390 129.798 141.538  0.00  0.00    +0.000 A 
ATOM     37  C   UNL     1     113.778 130.688 141.484  0.00  0.00    +0.000 A 
ATOM     38  C   UNL     1     112.450 130.494 141.975  0.00  0.00    +0.000 A 
ATOM     39  C   UNL     1     113.144 130.939 141.948  0.00  0.00    +0.000 A 
BRANCH  37  40
ATOM     40  O   UNL     1     114.472 131.133 141.456  0.00  0.00    +0.000 OA
ATOM     41  C   UNL     1     115.015 131.011 140.849  0.00  0.00    +0.000 C 
ENDBRANCH  37  40
BRANCH  39  42
ATOM     42  O   UNL     1     113.205 131.636 142.386  0.00  0.00    +0.000 OA
ATOM     43  C   UNL     1     112.629 131.824 142.946  0.00  0.00    +0.000 C 
ENDBRANCH  39  42
ENDBRANCH  12  34
BRANCH   6  44
ATOM     44  O   UNL     1     113.116 127.479 137.256  0.00  0.00    +0.000 OA
ATOM     45  C   UNL     1     113.427 128.151 136.893  0.00  0.00    +0.000 C 
ENDBRANCH   6  44
TORSDOF 8
ENDMDL
MODEL 5
REMARK VINA RESULT:      -9.9      7.119     10.131
REMARK  Name = 44258390
REMARK  8 active torsions:
REMARK  status: ('A' for Active; 'I' for Inactive)
REMARK    1  A    between atoms: O_1  and  C_16
REMARK    2  A    between atoms: O_1  and  C_21
REMARK    3  A    between atoms: O_10  and  C_30
REMARK    4  A    between atoms: O_14  and  C_41
REMARK    5  A    between atoms: O_15  and  C_43
REMARK    6  A    between atoms: C_18  and  C_26
REMARK    7  A    between atoms: C_20  and  C_27
REMARK    8  A    between atoms: C_36  and  C_38
REMARK                            x       y       z     vdW  Elec       q    Type
REMARK                         _______ _______ _______ _____ _____    ______ ____
ROOT
ATOM      1  O   UNL     1     106.193 125.474 145.119  0.00  0.00    +0.000 OA
ATOM      2  O   UNL     1     105.305 128.125 144.373  0.00  0.00    +0.000 OA
ATOM      3  O   UNL     1     106.069 125.801 143.719  0.00  0.00    +0.000 OA
ATOM      4  C   UNL     1     105.886 126.434 146.132  0.00  0.00    +0.000 A 
ATOM      5  C   UNL     1     105.945 126.230 145.335  0.00  0.00    +0.000 A 
ATOM      6  C   UNL     1     105.637 127.190 146.348  0.00  0.00    +0.000 A 
ATOM      7  C   UNL     1     105.754 126.784 144.753  0.00  0.00    +0.000 A 
ATOM      8  C   UNL     1     105.447 127.743 145.767  0.00  0.00    +0.000 A 
ATOM      9  C   UNL     1     105.505 127.540 144.969  0.00  0.00    +0.000 A 
ATOM     10  C   UNL     1     105.819 126.560 143.926  0.00  0.00    +0.000 A 
ATOM     11  C   UNL     1     105.623 127.131 143.315  0.00  0.00    +0.000 A 
ATOM     12  C   UNL     1     105.364 127.920 143.540  0.00  0.00    +0.000 A 
ENDROOT
BRANCH   4  18
ATOM     13  O   UNL     1     106.865 125.752 146.920  0.00  0.00    +0.000 OA
ATOM     14  O   UNL     1     105.069 124.476 148.047  0.00  0.00    +0.000 OA
ATOM     15  O   UNL     1     106.646 124.220 148.459  0.00  0.00    +0.000 OA
ATOM     16  C   UNL     1     105.477 125.455 147.090  0.00  0.00    +0.000 C 
ATOM     17  C   UNL     1     105.668 124.901 147.672  0.00  0.00    +0.000 C 
ATOM     18  C   UNL     1     106.076 125.880 146.714  0.00  0.00    +0.000 C 
ATOM     19  C   UNL     1     106.456 124.773 147.877  0.00  0.00    +0.000 C 
ATOM     20  C   UNL     1     107.055 125.199 147.501  0.00  0.00    +0.000 C 
BRANCH  20  22
ATOM     21  O   UNL     1     108.435 125.558 147.399  0.00  0.00    +0.000 OA
ATOM     22  C   UNL     1     107.843 125.071 147.707  0.00  0.00    +0.000 C 
ENDBRANCH  20  22
BRANCH  16  23
ATOM     23  O   UNL     1     104.689 125.583 146.884  0.00  0.00    +0.000 OA
BRANCH  23  28
ATOM     24  O   UNL     1     104.471 124.313 146.266  0.00  0.00    +0.000 OA
ATOM     25  O   UNL     1     103.149 125.557 147.477  0.00  0.00    +0.000 OA
ATOM     26  O   UNL     1     102.162 124.274 147.156  0.00  0.00    +0.000 OA
ATOM     27  O   UNL     1     102.715 123.017 146.241  0.00  0.00    +0.000 OA
ATOM     28  C   UNL     1     104.196 124.941 146.723  0.00  0.00    +0.000 C 
ATOM     29  C   UNL     1     103.426 124.928 147.020  0.00  0.00    +0.000 C 
ATOM     30  C   UNL     1     102.932 124.287 146.859  0.00  0.00    +0.000 C 
ATOM     31  C   UNL     1     103.209 123.659 146.402  0.00  0.00    +0.000 C 
ATOM     32  C   UNL     1     103.979 123.672 146.105  0.00  0.00    +0.000 C 
ATOM     33  C   UNL     1     104.254 123.043 145.648  0.00  0.00    +0.000 C 
ENDBRANCH  23  28
ENDBRANCH  16  23
ENDBRANCH   4  18
BRANCH  12  34
ATOM     34  C   UNL     1     105.173 128.475 142.960  0.00  0.00    +0.000 A 
ATOM     35  C   UNL     1     105.768 128.806 142.495  0.00  0.00    +0.000 A 
ATOM     36  C   UNL     1     104.387 128.698 142.846  0.00  0.00    +0.000 A 
ATOM     37  C   UNL     1     105.576 129.362 141.915  0.00  0.00    +0.000 A 
ATOM     38  C   UNL     1     104.196 129.253 142.267  0.00  0.00    +0.000 A 
ATOM     39  C   UNL     1     104.790 129.585 141.802  0.00  0.00    +0.000 A 
BRANCH  37  40
ATOM     40  O   UNL     1     106.171 129.694 141.450  0.00  0.00    +0.000 OA
ATOM     41  C   UNL     1     106.955 129.667 141.703  0.00  0.00    +0.000 C 
ENDBRANCH  37  40
BRANCH  39  42
ATOM     42  O   UNL     1     104.599 130.140 141.222  0.00  0.00    +0.000 OA
ATOM     43  C   UNL     1     103.840 130.461 141.192  0.00  0.00    +0.000 C 
ENDBRANCH  39  42
ENDBRANCH  12  34
BRANCH   6  44
ATOM     44  O   UNL     1     105.579 127.393 147.146  0.00  0.00    +0.000 OA
ATOM     45  C   UNL     1     105.509 128.185 147.366  0.00  0.00    +0.000 C 
ENDBRANCH   6  44
TORSDOF 8
ENDMDL
MODEL 6
REMARK VINA RESULT:      -9.8      3.619      7.019
REMARK  Name = 44258390
REMARK  8 active torsions:
REMARK  status: ('A' for Active; 'I' for Inactive)
REMARK    1  A    between atoms: O_1  and  C_16
REMARK    2  A    between atoms: O_1  and  C_21
REMARK    3  A    between atoms: O_10  and  C_30
REMARK    4  A    between atoms: O_14  and  C_41
REMARK    5  A    between atoms: O_15  and  C_43
REMARK    6  A    between atoms: C_18  and  C_26
REMARK    7  A    between atoms: C_20  and  C_27
REMARK    8  A    between atoms: C_36  and  C_38
REMARK                            x       y       z     vdW  Elec       q    Type
REMARK                         _______ _______ _______ _____ _____    ______ ____
ROOT
ATOM      1  O   UNL     1     113.327 129.200 138.123  0.00  0.00    +0.000 OA
ATOM      2  O   UNL     1     110.651 130.141 137.548  0.00  0.00    +0.000 OA
ATOM      3  O   UNL     1     113.130 130.126 137.034  0.00  0.00    +0.000 OA
ATOM      4  C   UNL     1     112.226 128.745 138.913  0.00  0.00    +0.000 A 
ATOM      5  C   UNL     1     112.519 129.203 138.292  0.00  0.00    +0.000 A 
ATOM      6  C   UNL     1     111.418 128.748 139.083  0.00  0.00    +0.000 A 
ATOM      7  C   UNL     1     112.004 129.663 137.841  0.00  0.00    +0.000 A 
ATOM      8  C   UNL     1     110.904 129.209 138.631  0.00  0.00    +0.000 A 
ATOM      9  C   UNL     1     111.197 129.666 138.010  0.00  0.00    +0.000 A 
ATOM     10  C   UNL     1     112.321 130.135 137.197  0.00  0.00    +0.000 A 
ATOM     11  C   UNL     1     111.791 130.617 136.722  0.00  0.00    +0.000 A 
ATOM     12  C   UNL     1     110.949 130.620 136.899  0.00  0.00    +0.000 A 
ENDROOT
BRANCH   4  18
ATOM     13  O   UNL     1     112.999 127.555 139.080  0.00  0.00    +0.000 OA
ATOM     14  O   UNL     1     113.769 128.364 141.288  0.00  0.00    +0.000 OA
ATOM     15  O   UNL     1     114.285 126.904 140.719  0.00  0.00    +0.000 OA
ATOM     16  C   UNL     1     112.997 128.555 140.101  0.00  0.00    +0.000 C 
ATOM     17  C   UNL     1     113.513 128.094 140.552  0.00  0.00    +0.000 C 
ATOM     18  C   UNL     1     112.741 128.285 139.365  0.00  0.00    +0.000 C 
ATOM     19  C   UNL     1     113.770 127.364 140.268  0.00  0.00    +0.000 C 
ATOM     20  C   UNL     1     113.513 127.095 139.531  0.00  0.00    +0.000 C 
BRANCH  20  22
ATOM     21  O   UNL     1     113.309 125.945 138.706  0.00  0.00    +0.000 OA
ATOM     22  C   UNL     1     113.771 126.365 139.246  0.00  0.00    +0.000 C 
ENDBRANCH  20  22
BRANCH  16  23
ATOM     23  O   UNL     1     112.739 129.285 140.385  0.00  0.00    +0.000 OA
BRANCH  23  28
ATOM     24  O   UNL     1     114.031 129.892 140.307  0.00  0.00    +0.000 OA
ATOM     25  O   UNL     1     112.347 130.281 141.641  0.00  0.00    +0.000 OA
ATOM     26  O   UNL     1     113.443 131.386 142.191  0.00  0.00    +0.000 OA
ATOM     27  O   UNL     1     114.930 131.494 141.485  0.00  0.00    +0.000 OA
ATOM     28  C   UNL     1     113.288 129.837 140.660  0.00  0.00    +0.000 C 
ATOM     29  C   UNL     1     113.092 130.335 141.288  0.00  0.00    +0.000 C 
ATOM     30  C   UNL     1     113.639 130.888 141.563  0.00  0.00    +0.000 C 
ATOM     31  C   UNL     1     114.382 130.941 141.210  0.00  0.00    +0.000 C 
ATOM     32  C   UNL     1     114.578 130.443 140.582  0.00  0.00    +0.000 C 
ATOM     33  C   UNL     1     115.322 130.498 140.229  0.00  0.00    +0.000 C 
ENDBRANCH  23  28
ENDBRANCH  16  23
ENDBRANCH   4  18
BRANCH  12  34
ATOM     34  C   UNL     1     110.433 131.080 136.449  0.00  0.00    +0.000 A 
ATOM     35  C   UNL     1     110.399 131.896 136.565  0.00  0.00    +0.000 A 
ATOM     36  C   UNL     1     109.950 130.723 135.884  0.00  0.00    +0.000 A 
ATOM     37  C   UNL     1     109.881 132.355 136.115  0.00  0.00    +0.000 A 
ATOM     38  C   UNL     1     109.433 131.182 135.434  0.00  0.00    +0.000 A 
ATOM     39  C   UNL     1     109.399 131.998 135.549  0.00  0.00    +0.000 A 
BRANCH  37  40
ATOM     40  O   UNL     1     109.848 133.172 136.231  0.00  0.00    +0.000 OA
ATOM     41  C   UNL     1     110.445 133.552 136.653  0.00  0.00    +0.000 C 
ENDBRANCH  37  40
BRANCH  39  42
ATOM     42  O   UNL     1     108.882 132.457 135.100  0.00  0.00    +0.000 OA
ATOM     43  C   UNL     1     108.324 132.094 134.613  0.00  0.00    +0.000 C 
ENDBRANCH  39  42
ENDBRANCH  12  34
BRANCH   6  44
ATOM     44  O   UNL     1     111.126 128.291 139.704  0.00  0.00    +0.000 OA
ATOM     45  C   UNL     1     110.316 128.145 139.762  0.00  0.00    +0.000 C 
ENDBRANCH   6  44
TORSDOF 8
ENDMDL
MODEL 7
REMARK VINA RESULT:      -9.7      0.931      2.739
REMARK  Name = 44258390
REMARK  8 active torsions:
REMARK  status: ('A' for Active; 'I' for Inactive)
REMARK    1  A    between atoms: O_1  and  C_16
REMARK    2  A    between atoms: O_1  and  C_21
REMARK    3  A    between atoms: O_10  and  C_30
REMARK    4  A    between atoms: O_14  and  C_41
REMARK    5  A    between atoms: O_15  and  C_43
REMARK    6  A    between atoms: C_18  and  C_26
REMARK    7  A    between atoms: C_20  and  C_27
REMARK    8  A    between atoms: C_36  and  C_38
REMARK                            x       y       z     vdW  Elec       q    Type
REMARK                         _______ _______ _______ _____ _____    ______ ____
ROOT
ATOM      1  O   UNL     1     112.603 131.736 142.069  0.00  0.00    +0.000 OA
ATOM      2  O   UNL     1     111.650 131.376 144.778  0.00  0.00    +0.000 OA
ATOM      3  O   UNL     1     112.587 132.870 142.962  0.00  0.00    +0.000 OA
ATOM      4  C   UNL     1     112.158 130.449 142.503  0.00  0.00    +0.000 A 
ATOM      5  C   UNL     1     112.298 131.247 142.659  0.00  0.00    +0.000 A 
ATOM      6  C   UNL     1     111.852 129.960 143.093  0.00  0.00    +0.000 A 
ATOM      7  C   UNL     1     112.132 131.556 143.407  0.00  0.00    +0.000 A 
ATOM      8  C   UNL     1     111.687 130.269 143.839  0.00  0.00    +0.000 A 
ATOM      9  C   UNL     1     111.826 131.066 143.997  0.00  0.00    +0.000 A 
ATOM     10  C   UNL     1     112.282 132.388 143.558  0.00  0.00    +0.000 A 
ATOM     11  C   UNL     1     112.112 132.716 144.333  0.00  0.00    +0.000 A 
ATOM     12  C   UNL     1     111.793 132.206 144.948  0.00  0.00    +0.000 A 
ENDROOT
BRANCH   4  18
ATOM     13  O   UNL     1     113.001 129.684 141.638  0.00  0.00    +0.000 OA
ATOM     14  O   UNL     1     111.466 130.128 139.748  0.00  0.00    +0.000 OA
ATOM     15  O   UNL     1     112.820 129.216 139.514  0.00  0.00    +0.000 OA
ATOM     16  C   UNL     1     111.812 130.289 141.125  0.00  0.00    +0.000 C 
ATOM     17  C   UNL     1     111.977 129.980 140.378  0.00  0.00    +0.000 C 
ATOM     18  C   UNL     1     112.323 130.140 141.755  0.00  0.00    +0.000 C 
ATOM     19  C   UNL     1     112.655 129.524 140.261  0.00  0.00    +0.000 C 
ATOM     20  C   UNL     1     113.166 129.376 140.891  0.00  0.00    +0.000 C 
BRANCH  20  22
ATOM     21  O   UNL     1     114.586 129.225 140.967  0.00  0.00    +0.000 OA
ATOM     22  C   UNL     1     113.843 128.919 140.774  0.00  0.00    +0.000 C 
ENDBRANCH  20  22
BRANCH  16  23
ATOM     23  O   UNL     1     111.134 130.745 141.242  0.00  0.00    +0.000 OA
BRANCH  23  28
ATOM     24  O   UNL     1     110.195 129.695 141.002  0.00  0.00    +0.000 OA
ATOM     25  O   UNL     1     110.110 131.825 140.531  0.00  0.00    +0.000 OA
ATOM     26  O   UNL     1     108.658 131.315 139.934  0.00  0.00    +0.000 OA
ATOM     27  O   UNL     1     108.231 129.725 140.050  0.00  0.00    +0.000 OA
ATOM     28  C   UNL     1     110.409 130.490 140.944  0.00  0.00    +0.000 C 
ATOM     29  C   UNL     1     109.896 131.029 140.588  0.00  0.00    +0.000 C 
ATOM     30  C   UNL     1     109.170 130.775 140.290  0.00  0.00    +0.000 C 
ATOM     31  C   UNL     1     108.958 129.980 140.348  0.00  0.00    +0.000 C 
ATOM     32  C   UNL     1     109.470 129.440 140.704  0.00  0.00    +0.000 C 
ATOM     33  C   UNL     1     109.256 128.646 140.761  0.00  0.00    +0.000 C 
ENDBRANCH  23  28
ENDBRANCH  16  23
ENDBRANCH   4  18
BRANCH  12  34
ATOM     34  C   UNL     1     111.626 132.512 145.696  0.00  0.00    +0.000 A 
ATOM     35  C   UNL     1     110.880 132.826 145.857  0.00  0.00    +0.000 A 
ATOM     36  C   UNL     1     112.206 132.504 146.283  0.00  0.00    +0.000 A 
ATOM     37  C   UNL     1     110.715 133.132 146.605  0.00  0.00    +0.000 A 
ATOM     38  C   UNL     1     112.040 132.810 147.030  0.00  0.00    +0.000 A 
ATOM     39  C   UNL     1     111.295 133.124 147.192  0.00  0.00    +0.000 A 
BRANCH  37  40
ATOM     40  O   UNL     1     109.969 133.445 146.766  0.00  0.00    +0.000 OA
ATOM     41  C   UNL     1     109.320 133.220 146.310  0.00  0.00    +0.000 C 
ENDBRANCH  37  40
BRANCH  39  42
ATOM     42  O   UNL     1     111.128 133.430 147.939  0.00  0.00    +0.000 OA
ATOM     43  C   UNL     1     111.662 133.320 148.558  0.00  0.00    +0.000 C 
ENDBRANCH  39  42
ENDBRANCH  12  34
BRANCH   6  44
ATOM     44  O   UNL     1     111.712 129.162 142.935  0.00  0.00    +0.000 OA
ATOM     45  C   UNL     1     111.568 128.639 143.556  0.00  0.00    +0.000 C 
ENDBRANCH   6  44
TORSDOF 8
ENDMDL
MODEL 8
REMARK VINA RESULT:      -9.7      4.797      7.487
REMARK  Name = 44258390
REMARK  8 active torsions:
REMARK  status: ('A' for Active; 'I' for Inactive)
REMARK    1  A    between atoms: O_1  and  C_16
REMARK    2  A    between atoms: O_1  and  C_21
REMARK    3  A    between atoms: O_10  and  C_30
REMARK    4  A    between atoms: O_14  and  C_41
REMARK    5  A    between atoms: O_15  and  C_43
REMARK    6  A    between atoms: C_18  and  C_26
REMARK    7  A    between atoms: C_20  and  C_27
REMARK    8  A    between atoms: C_36  and  C_38
REMARK                            x       y       z     vdW  Elec       q    Type
REMARK                         _______ _______ _______ _____ _____    ______ ____
ROOT
ATOM      1  O   UNL     1     113.166 128.820 137.883  0.00  0.00    +0.000 OA
ATOM      2  O   UNL     1     110.625 130.176 137.593  0.00  0.00    +0.000 OA
ATOM      3  O   UNL     1     112.931 129.623 136.706  0.00  0.00    +0.000 OA
ATOM      4  C   UNL     1     112.168 128.688 138.897  0.00  0.00    +0.000 A 
ATOM      5  C   UNL     1     112.415 128.999 138.174  0.00  0.00    +0.000 A 
ATOM      6  C   UNL     1     111.417 128.867 139.189  0.00  0.00    +0.000 A 
ATOM      7  C   UNL     1     111.910 129.489 137.742  0.00  0.00    +0.000 A 
ATOM      8  C   UNL     1     110.913 129.356 138.757  0.00  0.00    +0.000 A 
ATOM      9  C   UNL     1     111.159 129.668 138.033  0.00  0.00    +0.000 A 
ATOM     10  C   UNL     1     112.178 129.806 136.990  0.00  0.00    +0.000 A 
ATOM     11  C   UNL     1     111.658 130.317 136.535  0.00  0.00    +0.000 A 
ATOM     12  C   UNL     1     110.875 130.503 136.839  0.00  0.00    +0.000 A 
ENDROOT
BRANCH   4  18
ATOM     13  O   UNL     1     113.264 128.528 139.801  0.00  0.00    +0.000 OA
ATOM     14  O   UNL     1     113.004 126.070 139.680  0.00  0.00    +0.000 OA
ATOM     15  O   UNL     1     114.186 126.729 140.624  0.00  0.00    +0.000 OA
ATOM     16  C   UNL     1     112.586 127.379 139.289  0.00  0.00    +0.000 C 
ATOM     17  C   UNL     1     113.091 126.889 139.721  0.00  0.00    +0.000 C 
ATOM     18  C   UNL     1     112.673 128.198 139.329  0.00  0.00    +0.000 C 
ATOM     19  C   UNL     1     113.682 127.219 140.193  0.00  0.00    +0.000 C 
ATOM     20  C   UNL     1     113.768 128.038 140.232  0.00  0.00    +0.000 C 
BRANCH  20  22
ATOM     21  O   UNL     1     114.265 129.128 141.013  0.00  0.00    +0.000 OA
ATOM     22  C   UNL     1     114.359 128.368 140.704  0.00  0.00    +0.000 C 
ENDBRANCH  20  22
BRANCH  16  23
ATOM     23  O   UNL     1     111.995 127.049 138.817  0.00  0.00    +0.000 OA
BRANCH  23  28
ATOM     24  O   UNL     1     112.889 126.435 137.887  0.00  0.00    +0.000 OA
ATOM     25  O   UNL     1     110.930 125.805 138.614  0.00  0.00    +0.000 OA
ATOM     26  O   UNL     1     111.291 124.569 137.583  0.00  0.00    +0.000 OA
ATOM     27  O   UNL     1     112.718 124.576 136.755  0.00  0.00    +0.000 OA
ATOM     28  C   UNL     1     112.176 126.431 138.301  0.00  0.00    +0.000 C 
ATOM     29  C   UNL     1     111.644 125.809 138.200  0.00  0.00    +0.000 C 
ATOM     30  C   UNL     1     111.824 125.191 137.685  0.00  0.00    +0.000 C 
ATOM     31  C   UNL     1     112.537 125.195 137.271  0.00  0.00    +0.000 C 
ATOM     32  C   UNL     1     113.070 125.817 137.372  0.00  0.00    +0.000 C 
ATOM     33  C   UNL     1     113.783 125.820 136.957  0.00  0.00    +0.000 C 
ENDBRANCH  23  28
ENDBRANCH  16  23
ENDBRANCH   4  18
BRANCH  12  34
ATOM     34  C   UNL     1     110.369 130.993 136.409  0.00  0.00    +0.000 A 
ATOM     35  C   UNL     1     110.381 131.808 136.532  0.00  0.00    +0.000 A 
ATOM     36  C   UNL     1     109.851 130.666 135.857  0.00  0.00    +0.000 A 
ATOM     37  C   UNL     1     109.874 132.297 136.102  0.00  0.00    +0.000 A 
ATOM     38  C   UNL     1     109.345 131.155 135.427  0.00  0.00    +0.000 A 
ATOM     39  C   UNL     1     109.356 131.970 135.549  0.00  0.00    +0.000 A 
BRANCH  37  40
ATOM     40  O   UNL     1     109.886 133.113 136.225  0.00  0.00    +0.000 OA
ATOM     41  C   UNL     1     110.500 133.456 136.654  0.00  0.00    +0.000 C 
ENDBRANCH  37  40
BRANCH  39  42
ATOM     42  O   UNL     1     108.850 132.459 135.120  0.00  0.00    +0.000 OA
ATOM     43  C   UNL     1     108.288 132.129 134.613  0.00  0.00    +0.000 C 
ENDBRANCH  39  42
ENDBRANCH  12  34
BRANCH   6  44
ATOM     44  O   UNL     1     111.171 128.556 139.912  0.00  0.00    +0.000 OA
ATOM     45  C   UNL     1     110.509 128.868 140.291  0.00  0.00    +0.000 C 
ENDBRANCH   6  44
TORSDOF 8
ENDMDL
MODEL 9
REMARK VINA RESULT:      -9.6      5.880      7.720
REMARK  Name = 44258390
REMARK  8 active torsions:
REMARK  status: ('A' for Active; 'I' for Inactive)
REMARK    1  A    between atoms: O_1  and  C_16
REMARK    2  A    between atoms: O_1  and  C_21
REMARK    3  A    between atoms: O_10  and  C_30
REMARK    4  A    between atoms: O_14  and  C_41
REMARK    5  A    between atoms: O_15  and  C_43
REMARK    6  A    between atoms: C_18  and  C_26
REMARK    7  A    between atoms: C_20  and  C_27
REMARK    8  A    between atoms: C_36  and  C_38
REMARK                            x       y       z     vdW  Elec       q    Type
REMARK                         _______ _______ _______ _____ _____    ______ ____
ROOT
ATOM      1  O   UNL     1     110.079 127.355 137.485  0.00  0.00    +0.000 OA
ATOM      2  O   UNL     1     111.219 129.893 136.685  0.00  0.00    +0.000 OA
ATOM      3  O   UNL     1     109.266 128.545 137.568  0.00  0.00    +0.000 OA
ATOM      4  C   UNL     1     111.428 127.415 137.017  0.00  0.00    +0.000 A 
ATOM      5  C   UNL     1     110.717 127.792 137.197  0.00  0.00    +0.000 A 
ATOM      6  C   UNL     1     112.066 127.851 136.729  0.00  0.00    +0.000 A 
ATOM      7  C   UNL     1     110.644 128.607 137.089  0.00  0.00    +0.000 A 
ATOM      8  C   UNL     1     111.993 128.665 136.622  0.00  0.00    +0.000 A 
ATOM      9  C   UNL     1     111.282 129.044 136.802  0.00  0.00    +0.000 A 
ATOM     10  C   UNL     1     109.899 128.989 137.281  0.00  0.00    +0.000 A 
ATOM     11  C   UNL     1     109.816 129.837 137.171  0.00  0.00    +0.000 A 
ATOM     12  C   UNL     1     110.481 130.292 136.871  0.00  0.00    +0.000 A 
ENDROOT
BRANCH   4  18
ATOM     13  O   UNL     1     111.214 126.080 136.552  0.00  0.00    +0.000 OA
ATOM     14  O   UNL     1     112.293 125.194 138.595  0.00  0.00    +0.000 OA
ATOM     15  O   UNL     1     111.719 124.156 137.448  0.00  0.00    +0.000 OA
ATOM     16  C   UNL     1     111.861 126.304 137.806  0.00  0.00    +0.000 C 
ATOM     17  C   UNL     1     111.933 125.489 137.914  0.00  0.00    +0.000 C 
ATOM     18  C   UNL     1     111.501 126.599 137.125  0.00  0.00    +0.000 C 
ATOM     19  C   UNL     1     111.646 124.970 137.341  0.00  0.00    +0.000 C 
ATOM     20  C   UNL     1     111.286 125.266 136.660  0.00  0.00    +0.000 C 
BRANCH  20  22
ATOM     21  O   UNL     1     110.736 125.038 135.360  0.00  0.00    +0.000 OA
ATOM     22  C   UNL     1     110.999 124.747 136.086  0.00  0.00    +0.000 C 
ENDBRANCH  20  22
BRANCH  16  23
ATOM     23  O   UNL     1     112.148 126.824 138.379  0.00  0.00    +0.000 OA
BRANCH  23  28
ATOM     24  O   UNL     1     111.182 126.493 139.379  0.00  0.00    +0.000 OA
ATOM     25  O   UNL     1     113.288 127.040 139.552  0.00  0.00    +0.000 OA
ATOM     26  O   UNL     1     112.893 126.818 141.138  0.00  0.00    +0.000 OA
ATOM     27  O   UNL     1     111.357 126.379 141.552  0.00  0.00    +0.000 OA
ATOM     28  C   UNL     1     111.949 126.712 139.172  0.00  0.00    +0.000 C 
ATOM     29  C   UNL     1     112.520 126.821 139.759  0.00  0.00    +0.000 C 
ATOM     30  C   UNL     1     112.323 126.709 140.552  0.00  0.00    +0.000 C 
ATOM     31  C   UNL     1     111.555 126.490 140.758  0.00  0.00    +0.000 C 
ATOM     32  C   UNL     1     110.984 126.382 140.172  0.00  0.00    +0.000 C 
ATOM     33  C   UNL     1     110.217 126.162 140.380  0.00  0.00    +0.000 C 
ENDBRANCH  23  28
ENDBRANCH  16  23
ENDBRANCH   4  18
BRANCH  12  34
ATOM     34  C   UNL     1     110.411 131.107 136.762  0.00  0.00    +0.000 A 
ATOM     35  C   UNL     1     109.925 131.404 136.165  0.00  0.00    +0.000 A 
ATOM     36  C   UNL     1     110.826 131.626 137.252  0.00  0.00    +0.000 A 
ATOM     37  C   UNL     1     109.856 132.219 136.057  0.00  0.00    +0.000 A 
ATOM     38  C   UNL     1     110.756 132.440 137.144  0.00  0.00    +0.000 A 
ATOM     39  C   UNL     1     110.271 132.737 136.546  0.00  0.00    +0.000 A 
BRANCH  37  40
ATOM     40  O   UNL     1     109.370 132.515 135.459  0.00  0.00    +0.000 OA
ATOM     41  C   UNL     1     108.909 132.000 135.010  0.00  0.00    +0.000 C 
ENDBRANCH  37  40
BRANCH  39  42
ATOM     42  O   UNL     1     110.201 133.552 136.438  0.00  0.00    +0.000 OA
ATOM     43  C   UNL     1     110.768 134.060 136.755  0.00  0.00    +0.000 C 
ENDBRANCH  39  42
ENDBRANCH  12  34
BRANCH   6  44
ATOM     44  O   UNL     1     112.777 127.473 136.549  0.00  0.00    +0.000 OA
ATOM     45  C   UNL     1     113.365 127.876 136.134  0.00  0.00    +0.000 C 
ENDBRANCH   6  44
TORSDOF 8
ENDMDL
MODEL 10
REMARK VINA RESULT:      -9.6      4.108      7.482
REMARK  Name = 44258390
REMARK  8 active torsions:
REMARK  status: ('A' for Active; 'I' for Inactive)
REMARK    1  A    between atoms: O_1  and  C_16
REMARK    2  A    between atoms: O_1  and  C_21
REMARK    3  A    between atoms: O_10  and  C_30
REMARK    4  A    between atoms: O_14  and  C_41
REMARK    5  A    between atoms: O_15  and  C_43
REMARK    6  A    between atoms: C_18  and  C_26
REMARK    7  A    between atoms: C_20  and  C_27
REMARK    8  A    between atoms: C_36  and  C_38
REMARK                            x       y       z     vdW  Elec       q    Type
REMARK                         _______ _______ _______ _____ _____    ______ ____
ROOT
ATOM      1  O   UNL     1     109.392 128.767 137.937  0.00  0.00    +0.000 OA
ATOM      2  O   UNL     1     112.167 128.076 137.485  0.00  0.00    +0.000 OA
ATOM      3  O   UNL     1     109.836 127.426 138.232  0.00  0.00    +0.000 OA
ATOM      4  C   UNL     1     110.298 129.749 137.429  0.00  0.00    +0.000 A 
ATOM      5  C   UNL     1     110.151 128.982 137.693  0.00  0.00    +0.000 A 
ATOM      6  C   UNL     1     111.056 129.964 137.185  0.00  0.00    +0.000 A 
ATOM      7  C   UNL     1     110.763 128.428 137.713  0.00  0.00    +0.000 A 
ATOM      8  C   UNL     1     111.667 129.411 137.205  0.00  0.00    +0.000 A 
ATOM      9  C   UNL     1     111.521 128.643 137.469  0.00  0.00    +0.000 A 
ATOM     10  C   UNL     1     110.598 127.632 137.990  0.00  0.00    +0.000 A 
ATOM     11  C   UNL     1     111.230 127.051 138.014  0.00  0.00    +0.000 A 
ATOM     12  C   UNL     1     112.020 127.274 137.759  0.00  0.00    +0.000 A 
ENDROOT
BRANCH   4  18
ATOM     13  O   UNL     1     109.153 130.306 136.779  0.00  0.00    +0.000 OA
ATOM     14  O   UNL     1     108.917 131.956 138.609  0.00  0.00    +0.000 OA
ATOM     15  O   UNL     1     107.851 131.962 137.349  0.00  0.00    +0.000 OA
ATOM     16  C   UNL     1     109.607 130.852 138.019  0.00  0.00    +0.000 C 
ATOM     17  C   UNL     1     108.995 131.406 137.999  0.00  0.00    +0.000 C 
ATOM     18  C   UNL     1     109.686 130.303 137.409  0.00  0.00    +0.000 C 
ATOM     19  C   UNL     1     108.462 131.409 137.369  0.00  0.00    +0.000 C 
ATOM     20  C   UNL     1     108.541 130.859 136.759  0.00  0.00    +0.000 C 
BRANCH  20  22
ATOM     21  O   UNL     1     108.237 130.565 135.394  0.00  0.00    +0.000 OA
ATOM     22  C   UNL     1     108.009 130.862 136.129  0.00  0.00    +0.000 C 
ENDBRANCH  20  22
BRANCH  16  23
ATOM     23  O   UNL     1     110.140 130.849 138.649  0.00  0.00    +0.000 OA
BRANCH  23  28
ATOM     24  O   UNL     1     109.158 130.466 139.613  0.00  0.00    +0.000 OA
ATOM     25  O   UNL     1     110.988 131.638 139.824  0.00  0.00    +0.000 OA
ATOM     26  O   UNL     1     110.430 131.648 141.377  0.00  0.00    +0.000 OA
ATOM     27  O   UNL     1     109.024 130.871 141.754  0.00  0.00    +0.000 OA
ATOM     28  C   UNL     1     109.861 130.854 139.425  0.00  0.00    +0.000 C 
ATOM     29  C   UNL     1     110.284 131.248 140.013  0.00  0.00    +0.000 C 
ATOM     30  C   UNL     1     110.006 131.254 140.789  0.00  0.00    +0.000 C 
ATOM     31  C   UNL     1     109.303 130.865 140.977  0.00  0.00    +0.000 C 
ATOM     32  C   UNL     1     108.879 130.471 140.389  0.00  0.00    +0.000 C 
ATOM     33  C   UNL     1     108.177 130.082 140.578  0.00  0.00    +0.000 C 
ENDBRANCH  23  28
ENDBRANCH  16  23
ENDBRANCH   4  18
BRANCH  12  34
ATOM     34  C   UNL     1     112.634 126.723 137.779  0.00  0.00    +0.000 A 
ATOM     35  C   UNL     1     113.133 126.684 138.434  0.00  0.00    +0.000 A 
ATOM     36  C   UNL     1     112.748 126.211 137.142  0.00  0.00    +0.000 A 
ATOM     37  C   UNL     1     113.747 126.132 138.453  0.00  0.00    +0.000 A 
ATOM     38  C   UNL     1     113.361 125.660 137.161  0.00  0.00    +0.000 A 
ATOM     39  C   UNL     1     113.860 125.621 137.816  0.00  0.00    +0.000 A 
BRANCH  37  40
ATOM     40  O   UNL     1     114.246 126.093 139.108  0.00  0.00    +0.000 OA
ATOM     41  C   UNL     1     114.101 126.570 139.765  0.00  0.00    +0.000 C 
ENDBRANCH  37  40
BRANCH  39  42
ATOM     42  O   UNL     1     114.474 125.069 137.835  0.00  0.00    +0.000 OA
ATOM     43  C   UNL     1     114.542 124.507 137.235  0.00  0.00    +0.000 C 
ENDBRANCH  39  42
ENDBRANCH  12  34
BRANCH   6  44
ATOM     44  O   UNL     1     111.202 130.732 136.921  0.00  0.00    +0.000 OA
ATOM     45  C   UNL     1     111.917 130.911 136.549  0.00  0.00    +0.000 C 
ENDBRANCH   6  44
TORSDOF 8
ENDMDL
