MODEL 1
REMARK VINA RESULT:      -9.7      0.000      0.000
REMARK  Name = 
REMARK  4 active torsions:
REMARK  status: ('A' for Active; 'I' for Inactive)
REMARK    1  A    between atoms: C_7  and  C_12
REMARK    2  A    between atoms: C_13  and  O_16
REMARK    3  A    between atoms: C_20  and  O_21
REMARK    4  A    between atoms: O_21  and  C_22
REMARK                            x       y       z     vdW  Elec       q    Type
REMARK                         _______ _______ _______ _____ _____    ______ ____
ROOT
ATOM      1  C   UNL     1     104.960 123.973 139.472  0.00  0.00    +0.000 A 
ATOM      2  C   UNL     1     105.276 123.377 139.949  0.00  0.00    +0.000 A 
ATOM      3  C   UNL     1     105.210 124.753 139.568  0.00  0.00    +0.000 A 
ATOM      4  C   UNL     1     105.840 123.563 140.521  0.00  0.00    +0.000 A 
ATOM      5  C   UNL     1     105.774 124.939 140.141  0.00  0.00    +0.000 A 
ATOM      6  C   UNL     1     106.089 124.344 140.617  0.00  0.00    +0.000 A 
ENDROOT
BRANCH   1  13
ATOM      7  O   UNL     1     102.229 123.611 138.715  0.00  0.00    +0.000 OA
ATOM      8  C   UNL     1     103.031 123.607 138.521  0.00  0.00    +0.000 C 
ATOM      9  C   UNL     1     103.268 123.417 137.754  0.00  0.00    +0.000 A 
ATOM     10  C   UNL     1     103.595 123.792 139.093  0.00  0.00    +0.000 C 
ATOM     11  C   UNL     1     104.070 123.413 137.559  0.00  0.00    +0.000 A 
ATOM     12  C   UNL     1     102.704 123.232 137.181  0.00  0.00    +0.000 A 
ATOM     13  C   UNL     1     104.397 123.788 138.900  0.00  0.00    +0.000 C 
ATOM     14  O   UNL     1     104.635 123.598 138.132  0.00  0.00    +0.000 OA
ATOM     15  C   UNL     1     104.308 123.223 136.793  0.00  0.00    +0.000 A 
ATOM     16  O   UNL     1     101.903 123.236 137.375  0.00  0.00    +0.000 OA
ATOM     17  C   UNL     1     102.942 123.042 136.414  0.00  0.00    +0.000 A 
ATOM     18  C   UNL     1     103.743 123.037 136.220  0.00  0.00    +0.000 A 
BRANCH  18  19
ATOM     19  O   UNL     1     103.981 122.848 135.453  0.00  0.00    +0.000 OA
ATOM     20  C   UNL     1     104.074 123.443 134.890  0.00  0.00    +0.000 C 
ENDBRANCH  18  19
ENDBRANCH   1  13
BRANCH   6  21
ATOM     21  O   UNL     1     106.654 124.529 141.190  0.00  0.00    +0.000 OA
BRANCH  21  22
ATOM     22  C   UNL     1     106.415 124.802 141.931  0.00  0.00    +0.000 C 
ATOM     23  O   UNL     1     105.761 124.464 142.304  0.00  0.00    +0.000 OA
ATOM     24  C   UNL     1     106.829 125.412 142.300  0.00  0.00    +0.000 C 
ATOM     25  C   UNL     1     105.522 124.736 143.045  0.00  0.00    +0.000 C 
ATOM     26  O   UNL     1     107.484 125.751 141.927  0.00  0.00    +0.000 OA
ATOM     27  C   UNL     1     106.591 125.685 143.040  0.00  0.00    +0.000 C 
ATOM     28  C   UNL     1     105.937 125.347 143.413  0.00  0.00    +0.000 C 
ATOM     29  O   UNL     1     107.005 126.296 143.409  0.00  0.00    +0.000 OA
ATOM     30  O   UNL     1     105.697 125.620 144.155  0.00  0.00    +0.000 OA
ENDBRANCH  21  22
ENDBRANCH   6  21
TORSDOF 4
ENDMDL
MODEL 2
REMARK VINA RESULT:      -9.6      7.866      9.485
REMARK  Name = 
REMARK  4 active torsions:
REMARK  status: ('A' for Active; 'I' for Inactive)
REMARK    1  A    between atoms: C_7  and  C_12
REMARK    2  A    between atoms: C_13  and  O_16
REMARK    3  A    between atoms: C_20  and  O_21
REMARK    4  A    between atoms: O_21  and  C_22
REMARK                            x       y       z     vdW  Elec       q    Type
REMARK                         _______ _______ _______ _____ _____    ______ ____
ROOT
ATOM      1  C   UNL     1     113.413 126.956 139.352  0.00  0.00    +0.000 A 
ATOM      2  C   UNL     1     113.851 126.848 140.043  0.00  0.00    +0.000 A 
ATOM      3  C   UNL     1     112.960 127.639 139.255  0.00  0.00    +0.000 A 
ATOM      4  C   UNL     1     113.836 127.421 140.636  0.00  0.00    +0.000 A 
ATOM      5  C   UNL     1     112.945 128.212 139.848  0.00  0.00    +0.000 A 
ATOM      6  C   UNL     1     113.383 128.104 140.537  0.00  0.00    +0.000 A 
ENDROOT
BRANCH   1  13
ATOM      7  O   UNL     1     114.879 125.146 137.698  0.00  0.00    +0.000 OA
ATOM      8  C   UNL     1     114.160 125.477 137.932  0.00  0.00    +0.000 C 
ATOM      9  C   UNL     1     113.458 125.236 137.575  0.00  0.00    +0.000 A 
ATOM     10  C   UNL     1     114.145 126.051 138.525  0.00  0.00    +0.000 C 
ATOM     11  C   UNL     1     112.739 125.567 137.809  0.00  0.00    +0.000 A 
ATOM     12  C   UNL     1     113.473 124.661 136.981  0.00  0.00    +0.000 A 
ATOM     13  C   UNL     1     113.428 126.383 138.760  0.00  0.00    +0.000 C 
ATOM     14  O   UNL     1     112.724 126.141 138.402  0.00  0.00    +0.000 OA
ATOM     15  C   UNL     1     112.037 125.326 137.452  0.00  0.00    +0.000 A 
ATOM     16  O   UNL     1     114.190 124.330 136.747  0.00  0.00    +0.000 OA
ATOM     17  C   UNL     1     112.769 124.420 136.624  0.00  0.00    +0.000 A 
ATOM     18  C   UNL     1     112.052 124.751 136.858  0.00  0.00    +0.000 A 
BRANCH  18  19
ATOM     19  O   UNL     1     111.348 124.510 136.501  0.00  0.00    +0.000 OA
ATOM     20  C   UNL     1     110.993 124.984 135.928  0.00  0.00    +0.000 C 
ENDBRANCH  18  19
ENDBRANCH   1  13
BRANCH   6  21
ATOM     21  O   UNL     1     113.368 128.678 141.131  0.00  0.00    +0.000 OA
BRANCH  21  22
ATOM     22  C   UNL     1     113.806 129.371 141.044  0.00  0.00    +0.000 C 
ATOM     23  O   UNL     1     114.504 129.366 140.605  0.00  0.00    +0.000 OA
ATOM     24  C   UNL     1     113.546 130.071 141.397  0.00  0.00    +0.000 C 
ATOM     25  C   UNL     1     114.942 130.060 140.518  0.00  0.00    +0.000 C 
ATOM     26  O   UNL     1     112.847 130.076 141.837  0.00  0.00    +0.000 OA
ATOM     27  C   UNL     1     113.984 130.764 141.311  0.00  0.00    +0.000 C 
ATOM     28  C   UNL     1     114.682 130.759 140.871  0.00  0.00    +0.000 C 
ATOM     29  O   UNL     1     113.724 131.463 141.664  0.00  0.00    +0.000 OA
ATOM     30  O   UNL     1     115.120 131.453 140.784  0.00  0.00    +0.000 OA
ENDBRANCH  21  22
ENDBRANCH   6  21
TORSDOF 4
ENDMDL
MODEL 3
REMARK VINA RESULT:      -9.3      7.566      9.018
REMARK  Name = 
REMARK  4 active torsions:
REMARK  status: ('A' for Active; 'I' for Inactive)
REMARK    1  A    between atoms: C_7  and  C_12
REMARK    2  A    between atoms: C_13  and  O_16
REMARK    3  A    between atoms: C_20  and  O_21
REMARK    4  A    between atoms: O_21  and  C_22
REMARK                            x       y       z     vdW  Elec       q    Type
REMARK                         _______ _______ _______ _____ _____    ______ ____
ROOT
ATOM      1  C   UNL     1     110.733 126.241 136.167  0.00  0.00    +0.000 A 
ATOM      2  C   UNL     1     110.437 126.738 136.756  0.00  0.00    +0.000 A 
ATOM      3  C   UNL     1     110.422 126.276 135.404  0.00  0.00    +0.000 A 
ATOM      4  C   UNL     1     109.830 127.269 136.582  0.00  0.00    +0.000 A 
ATOM      5  C   UNL     1     109.815 126.807 135.229  0.00  0.00    +0.000 A 
ATOM      6  C   UNL     1     109.520 127.303 135.818  0.00  0.00    +0.000 A 
ENDROOT
BRANCH   1  13
ATOM      7  O   UNL     1     111.590 123.613 136.890  0.00  0.00    +0.000 OA
ATOM      8  C   UNL     1     111.769 124.396 136.703  0.00  0.00    +0.000 C 
ATOM      9  C   UNL     1     112.553 124.649 136.690  0.00  0.00    +0.000 A 
ATOM     10  C   UNL     1     111.162 124.927 136.528  0.00  0.00    +0.000 C 
ATOM     11  C   UNL     1     112.732 125.432 136.502  0.00  0.00    +0.000 A 
ATOM     12  C   UNL     1     113.161 124.117 136.864  0.00  0.00    +0.000 A 
ATOM     13  C   UNL     1     111.340 125.711 136.341  0.00  0.00    +0.000 C 
ATOM     14  O   UNL     1     112.126 125.963 136.328  0.00  0.00    +0.000 OA
ATOM     15  C   UNL     1     113.517 125.685 136.489  0.00  0.00    +0.000 A 
ATOM     16  O   UNL     1     112.983 123.335 137.052  0.00  0.00    +0.000 OA
ATOM     17  C   UNL     1     113.946 124.370 136.851  0.00  0.00    +0.000 A 
ATOM     18  C   UNL     1     114.125 125.153 136.664  0.00  0.00    +0.000 A 
BRANCH  18  19
ATOM     19  O   UNL     1     114.910 125.406 136.650  0.00  0.00    +0.000 OA
ATOM     20  C   UNL     1     115.338 125.388 135.946  0.00  0.00    +0.000 C 
ENDBRANCH  18  19
ENDBRANCH   1  13
BRANCH   6  21
ATOM     21  O   UNL     1     108.912 127.834 135.643  0.00  0.00    +0.000 OA
BRANCH  21  22
ATOM     22  C   UNL     1     109.092 128.611 135.433  0.00  0.00    +0.000 C 
ATOM     23  O   UNL     1     109.771 128.773 134.994  0.00  0.00    +0.000 OA
ATOM     24  C   UNL     1     108.592 129.227 135.662  0.00  0.00    +0.000 C 
ATOM     25  C   UNL     1     109.951 129.551 134.784  0.00  0.00    +0.000 C 
ATOM     26  O   UNL     1     107.912 129.065 136.102  0.00  0.00    +0.000 OA
ATOM     27  C   UNL     1     108.772 130.004 135.452  0.00  0.00    +0.000 C 
ATOM     28  C   UNL     1     109.452 130.166 135.013  0.00  0.00    +0.000 C 
ATOM     29  O   UNL     1     108.273 130.620 135.681  0.00  0.00    +0.000 OA
ATOM     30  O   UNL     1     109.632 130.943 134.803  0.00  0.00    +0.000 OA
ENDBRANCH  21  22
ENDBRANCH   6  21
TORSDOF 4
ENDMDL
MODEL 4
REMARK VINA RESULT:      -9.2      8.123      9.603
REMARK  Name = 
REMARK  4 active torsions:
REMARK  status: ('A' for Active; 'I' for Inactive)
REMARK    1  A    between atoms: C_7  and  C_12
REMARK    2  A    between atoms: C_13  and  O_16
REMARK    3  A    between atoms: C_20  and  O_21
REMARK    4  A    between atoms: O_21  and  C_22
REMARK                            x       y       z     vdW  Elec       q    Type
REMARK                         _______ _______ _______ _____ _____    ______ ____
ROOT
ATOM      1  C   UNL     1     113.128 127.078 139.492  0.00  0.00    +0.000 A 
ATOM      2  C   UNL     1     113.583 126.957 140.170  0.00  0.00    +0.000 A 
ATOM      3  C   UNL     1     112.709 127.783 139.397  0.00  0.00    +0.000 A 
ATOM      4  C   UNL     1     113.618 127.540 140.753  0.00  0.00    +0.000 A 
ATOM      5  C   UNL     1     112.744 128.366 139.980  0.00  0.00    +0.000 A 
ATOM      6  C   UNL     1     113.198 128.244 140.657  0.00  0.00    +0.000 A 
ENDROOT
BRANCH   1  13
ATOM      7  O   UNL     1     111.645 125.106 138.052  0.00  0.00    +0.000 OA
ATOM      8  C   UNL     1     112.351 125.509 138.189  0.00  0.00    +0.000 C 
ATOM      9  C   UNL     1     113.022 125.330 137.745  0.00  0.00    +0.000 A 
ATOM     10  C   UNL     1     112.387 126.092 138.772  0.00  0.00    +0.000 C 
ATOM     11  C   UNL     1     113.729 125.733 137.882  0.00  0.00    +0.000 A 
ATOM     12  C   UNL     1     112.987 124.746 137.161  0.00  0.00    +0.000 A 
ATOM     13  C   UNL     1     113.092 126.496 138.910  0.00  0.00    +0.000 C 
ATOM     14  O   UNL     1     113.764 126.316 138.464  0.00  0.00    +0.000 OA
ATOM     15  C   UNL     1     114.399 125.554 137.437  0.00  0.00    +0.000 A 
ATOM     16  O   UNL     1     112.281 124.343 137.024  0.00  0.00    +0.000 OA
ATOM     17  C   UNL     1     113.658 124.567 136.717  0.00  0.00    +0.000 A 
ATOM     18  C   UNL     1     114.364 124.970 136.854  0.00  0.00    +0.000 A 
BRANCH  18  19
ATOM     19  O   UNL     1     115.036 124.791 136.409  0.00  0.00    +0.000 OA
ATOM     20  C   UNL     1     115.315 125.327 135.848  0.00  0.00    +0.000 C 
ENDBRANCH  18  19
ENDBRANCH   1  13
BRANCH   6  21
ATOM     21  O   UNL     1     113.233 128.828 141.240  0.00  0.00    +0.000 OA
BRANCH  21  22
ATOM     22  C   UNL     1     113.711 129.491 141.132  0.00  0.00    +0.000 C 
ATOM     23  O   UNL     1     114.382 129.442 140.654  0.00  0.00    +0.000 OA
ATOM     24  C   UNL     1     113.520 130.204 141.501  0.00  0.00    +0.000 C 
ATOM     25  C   UNL     1     114.861 130.105 140.545  0.00  0.00    +0.000 C 
ATOM     26  O   UNL     1     112.848 130.253 141.979  0.00  0.00    +0.000 OA
ATOM     27  C   UNL     1     113.998 130.866 141.392  0.00  0.00    +0.000 C 
ATOM     28  C   UNL     1     114.669 130.817 140.914  0.00  0.00    +0.000 C 
ATOM     29  O   UNL     1     113.807 131.579 141.761  0.00  0.00    +0.000 OA
ATOM     30  O   UNL     1     115.148 131.481 140.805  0.00  0.00    +0.000 OA
ENDBRANCH  21  22
ENDBRANCH   6  21
TORSDOF 4
ENDMDL
MODEL 5
REMARK VINA RESULT:      -9.2      1.238      6.047
REMARK  Name = 
REMARK  4 active torsions:
REMARK  status: ('A' for Active; 'I' for Inactive)
REMARK    1  A    between atoms: C_7  and  C_12
REMARK    2  A    between atoms: C_13  and  O_16
REMARK    3  A    between atoms: C_20  and  O_21
REMARK    4  A    between atoms: O_21  and  C_22
REMARK                            x       y       z     vdW  Elec       q    Type
REMARK                         _______ _______ _______ _____ _____    ______ ____
ROOT
ATOM      1  C   UNL     1     105.745 124.857 140.349  0.00  0.00    +0.000 A 
ATOM      2  C   UNL     1     105.571 125.159 139.600  0.00  0.00    +0.000 A 
ATOM      3  C   UNL     1     105.570 124.071 140.527  0.00  0.00    +0.000 A 
ATOM      4  C   UNL     1     105.223 124.674 139.030  0.00  0.00    +0.000 A 
ATOM      5  C   UNL     1     105.222 123.586 139.957  0.00  0.00    +0.000 A 
ATOM      6  C   UNL     1     105.049 123.887 139.210  0.00  0.00    +0.000 A 
ENDROOT
BRANCH   1  13
ATOM      7  O   UNL     1     108.068 125.760 141.745  0.00  0.00    +0.000 OA
ATOM      8  C   UNL     1     107.254 125.794 141.617  0.00  0.00    +0.000 C 
ATOM      9  C   UNL     1     106.787 126.311 142.057  0.00  0.00    +0.000 A 
ATOM     10  C   UNL     1     106.906 125.309 141.047  0.00  0.00    +0.000 C 
ATOM     11  C   UNL     1     105.973 126.345 141.929  0.00  0.00    +0.000 A 
ATOM     12  C   UNL     1     107.135 126.797 142.628  0.00  0.00    +0.000 A 
ATOM     13  C   UNL     1     106.092 125.341 140.918  0.00  0.00    +0.000 C 
ATOM     14  O   UNL     1     105.625 125.860 141.360  0.00  0.00    +0.000 OA
ATOM     15  C   UNL     1     105.506 126.862 142.370  0.00  0.00    +0.000 A 
ATOM     16  O   UNL     1     107.949 126.764 142.756  0.00  0.00    +0.000 OA
ATOM     17  C   UNL     1     106.668 127.315 143.069  0.00  0.00    +0.000 A 
ATOM     18  C   UNL     1     105.854 127.348 142.941  0.00  0.00    +0.000 A 
BRANCH  18  19
ATOM     19  O   UNL     1     105.387 127.865 143.382  0.00  0.00    +0.000 OA
ATOM     20  C   UNL     1     104.941 128.445 143.001  0.00  0.00    +0.000 C 
ENDBRANCH  18  19
ENDBRANCH   1  13
BRANCH   6  21
ATOM     21  O   UNL     1     104.701 123.402 138.639  0.00  0.00    +0.000 OA
BRANCH  21  22
ATOM     22  C   UNL     1     103.889 123.444 138.502  0.00  0.00    +0.000 C 
ATOM     23  O   UNL     1     103.369 123.552 139.133  0.00  0.00    +0.000 OA
ATOM     24  C   UNL     1     103.597 123.379 137.733  0.00  0.00    +0.000 C 
ATOM     25  C   UNL     1     102.556 123.595 138.995  0.00  0.00    +0.000 C 
ATOM     26  O   UNL     1     104.117 123.271 137.101  0.00  0.00    +0.000 OA
ATOM     27  C   UNL     1     102.785 123.422 137.595  0.00  0.00    +0.000 C 
ATOM     28  C   UNL     1     102.265 123.530 138.226  0.00  0.00    +0.000 C 
ATOM     29  O   UNL     1     102.492 123.357 136.826  0.00  0.00    +0.000 OA
ATOM     30  O   UNL     1     101.452 123.573 138.089  0.00  0.00    +0.000 OA
ENDBRANCH  21  22
ENDBRANCH   6  21
TORSDOF 4
ENDMDL
MODEL 6
REMARK VINA RESULT:      -9.1      7.311      8.535
REMARK  Name = 
REMARK  4 active torsions:
REMARK  status: ('A' for Active; 'I' for Inactive)
REMARK    1  A    between atoms: C_7  and  C_12
REMARK    2  A    between atoms: C_13  and  O_16
REMARK    3  A    between atoms: C_20  and  O_21
REMARK    4  A    between atoms: O_21  and  C_22
REMARK                            x       y       z     vdW  Elec       q    Type
REMARK                         _______ _______ _______ _____ _____    ______ ____
ROOT
ATOM      1  C   UNL     1     110.181 126.917 135.953  0.00  0.00    +0.000 A 
ATOM      2  C   UNL     1     110.220 126.501 136.665  0.00  0.00    +0.000 A 
ATOM      3  C   UNL     1     110.504 126.590 135.268  0.00  0.00    +0.000 A 
ATOM      4  C   UNL     1     110.582 125.760 136.691  0.00  0.00    +0.000 A 
ATOM      5  C   UNL     1     110.866 125.849 135.294  0.00  0.00    +0.000 A 
ATOM      6  C   UNL     1     110.905 125.435 136.005  0.00  0.00    +0.000 A 
ENDROOT
BRANCH   1  13
ATOM      7  O   UNL     1     107.823 128.511 135.704  0.00  0.00    +0.000 OA
ATOM      8  C   UNL     1     108.641 128.455 135.802  0.00  0.00    +0.000 C 
ATOM      9  C   UNL     1     109.096 129.138 135.874  0.00  0.00    +0.000 A 
ATOM     10  C   UNL     1     109.003 127.714 135.828  0.00  0.00    +0.000 C 
ATOM     11  C   UNL     1     109.913 129.082 135.973  0.00  0.00    +0.000 A 
ATOM     12  C   UNL     1     108.734 129.880 135.848  0.00  0.00    +0.000 A 
ATOM     13  C   UNL     1     109.820 127.657 135.927  0.00  0.00    +0.000 C 
ATOM     14  O   UNL     1     110.275 128.341 135.999  0.00  0.00    +0.000 OA
ATOM     15  C   UNL     1     110.368 129.766 136.045  0.00  0.00    +0.000 A 
ATOM     16  O   UNL     1     107.917 129.937 135.750  0.00  0.00    +0.000 OA
ATOM     17  C   UNL     1     109.189 130.564 135.920  0.00  0.00    +0.000 A 
ATOM     18  C   UNL     1     110.006 130.508 136.019  0.00  0.00    +0.000 A 
BRANCH  18  19
ATOM     19  O   UNL     1     110.462 131.192 136.091  0.00  0.00    +0.000 OA
ATOM     20  C   UNL     1     110.636 131.495 136.838  0.00  0.00    +0.000 C 
ENDBRANCH  18  19
ENDBRANCH   1  13
BRANCH   6  21
ATOM     21  O   UNL     1     111.267 124.693 136.031  0.00  0.00    +0.000 OA
BRANCH  21  22
ATOM     22  C   UNL     1     112.043 124.622 136.302  0.00  0.00    +0.000 C 
ATOM     23  O   UNL     1     112.583 125.232 136.171  0.00  0.00    +0.000 OA
ATOM     24  C   UNL     1     112.280 123.943 136.706  0.00  0.00    +0.000 C 
ATOM     25  C   UNL     1     113.359 125.162 136.442  0.00  0.00    +0.000 C 
ATOM     26  O   UNL     1     111.739 123.332 136.838  0.00  0.00    +0.000 OA
ATOM     27  C   UNL     1     113.055 123.872 136.977  0.00  0.00    +0.000 C 
ATOM     28  C   UNL     1     113.595 124.482 136.845  0.00  0.00    +0.000 C 
ATOM     29  O   UNL     1     113.292 123.192 137.380  0.00  0.00    +0.000 OA
ATOM     30  O   UNL     1     114.371 124.412 137.116  0.00  0.00    +0.000 OA
ENDBRANCH  21  22
ENDBRANCH   6  21
TORSDOF 4
ENDMDL
MODEL 7
REMARK VINA RESULT:      -8.9      1.370      5.914
REMARK  Name = 
REMARK  4 active torsions:
REMARK  status: ('A' for Active; 'I' for Inactive)
REMARK    1  A    between atoms: C_7  and  C_12
REMARK    2  A    between atoms: C_13  and  O_16
REMARK    3  A    between atoms: C_20  and  O_21
REMARK    4  A    between atoms: O_21  and  C_22
REMARK                            x       y       z     vdW  Elec       q    Type
REMARK                         _______ _______ _______ _____ _____    ______ ____
ROOT
ATOM      1  C   UNL     1     105.278 124.698 140.047  0.00  0.00    +0.000 A 
ATOM      2  C   UNL     1     104.795 125.172 139.573  0.00  0.00    +0.000 A 
ATOM      3  C   UNL     1     105.128 123.890 140.109  0.00  0.00    +0.000 A 
ATOM      4  C   UNL     1     104.163 124.837 139.163  0.00  0.00    +0.000 A 
ATOM      5  C   UNL     1     104.495 123.554 139.699  0.00  0.00    +0.000 A 
ATOM      6  C   UNL     1     104.013 124.028 139.227  0.00  0.00    +0.000 A 
ENDROOT
BRANCH   1  13
ATOM      7  O   UNL     1     106.317 125.961 142.390  0.00  0.00    +0.000 OA
ATOM      8  C   UNL     1     106.430 125.665 141.628  0.00  0.00    +0.000 C 
ATOM      9  C   UNL     1     107.175 125.704 141.276  0.00  0.00    +0.000 A 
ATOM     10  C   UNL     1     105.798 125.330 141.218  0.00  0.00    +0.000 C 
ATOM     11  C   UNL     1     107.288 125.408 140.515  0.00  0.00    +0.000 A 
ATOM     12  C   UNL     1     107.808 126.040 141.687  0.00  0.00    +0.000 A 
ATOM     13  C   UNL     1     105.910 125.033 140.456  0.00  0.00    +0.000 C 
ATOM     14  O   UNL     1     106.656 125.073 140.105  0.00  0.00    +0.000 OA
ATOM     15  C   UNL     1     108.033 125.447 140.163  0.00  0.00    +0.000 A 
ATOM     16  O   UNL     1     107.695 126.336 142.448  0.00  0.00    +0.000 OA
ATOM     17  C   UNL     1     108.553 126.079 141.335  0.00  0.00    +0.000 A 
ATOM     18  C   UNL     1     108.666 125.783 140.573  0.00  0.00    +0.000 A 
BRANCH  18  19
ATOM     19  O   UNL     1     109.411 125.822 140.221  0.00  0.00    +0.000 OA
ATOM     20  C   UNL     1     109.605 126.457 139.733  0.00  0.00    +0.000 C 
ENDBRANCH  18  19
ENDBRANCH   1  13
BRANCH   6  21
ATOM     21  O   UNL     1     103.380 123.692 138.816  0.00  0.00    +0.000 OA
BRANCH  21  22
ATOM     22  C   UNL     1     103.467 123.482 138.024  0.00  0.00    +0.000 C 
ATOM     23  O   UNL     1     104.217 123.321 137.720  0.00  0.00    +0.000 OA
ATOM     24  C   UNL     1     102.805 123.433 137.534  0.00  0.00    +0.000 C 
ATOM     25  C   UNL     1     104.305 123.111 136.927  0.00  0.00    +0.000 C 
ATOM     26  O   UNL     1     102.054 123.595 137.838  0.00  0.00    +0.000 OA
ATOM     27  C   UNL     1     102.893 123.223 136.741  0.00  0.00    +0.000 C 
ATOM     28  C   UNL     1     103.643 123.062 136.438  0.00  0.00    +0.000 C 
ATOM     29  O   UNL     1     102.231 123.175 136.251  0.00  0.00    +0.000 OA
ATOM     30  O   UNL     1     103.731 122.852 135.644  0.00  0.00    +0.000 OA
ENDBRANCH  21  22
ENDBRANCH   6  21
TORSDOF 4
ENDMDL
MODEL 8
REMARK VINA RESULT:      -8.8      7.583      8.831
REMARK  Name = 
REMARK  4 active torsions:
REMARK  status: ('A' for Active; 'I' for Inactive)
REMARK    1  A    between atoms: C_7  and  C_12
REMARK    2  A    between atoms: C_13  and  O_16
REMARK    3  A    between atoms: C_20  and  O_21
REMARK    4  A    between atoms: O_21  and  C_22
REMARK                            x       y       z     vdW  Elec       q    Type
REMARK                         _______ _______ _______ _____ _____    ______ ____
ROOT
ATOM      1  C   UNL     1     110.138 127.606 135.716  0.00  0.00    +0.000 A 
ATOM      2  C   UNL     1     110.258 128.088 135.057  0.00  0.00    +0.000 A 
ATOM      3  C   UNL     1     109.527 127.775 136.244  0.00  0.00    +0.000 A 
ATOM      4  C   UNL     1     109.768 128.739 134.926  0.00  0.00    +0.000 A 
ATOM      5  C   UNL     1     109.036 128.425 136.113  0.00  0.00    +0.000 A 
ATOM      6  C   UNL     1     109.157 128.907 135.455  0.00  0.00    +0.000 A 
ENDROOT
BRANCH   1  13
ATOM      7  O   UNL     1     110.639 124.802 135.501  0.00  0.00    +0.000 OA
ATOM      8  C   UNL     1     110.879 125.554 135.740  0.00  0.00    +0.000 C 
ATOM      9  C   UNL     1     111.609 125.656 136.109  0.00  0.00    +0.000 A 
ATOM     10  C   UNL     1     110.389 126.204 135.609  0.00  0.00    +0.000 C 
ATOM     11  C   UNL     1     111.850 126.409 136.347  0.00  0.00    +0.000 A 
ATOM     12  C   UNL     1     112.101 125.005 136.240  0.00  0.00    +0.000 A 
ATOM     13  C   UNL     1     110.628 126.957 135.847  0.00  0.00    +0.000 C 
ATOM     14  O   UNL     1     111.359 127.059 136.216  0.00  0.00    +0.000 OA
ATOM     15  C   UNL     1     112.580 126.511 136.716  0.00  0.00    +0.000 A 
ATOM     16  O   UNL     1     111.861 124.254 136.001  0.00  0.00    +0.000 OA
ATOM     17  C   UNL     1     112.831 125.108 136.609  0.00  0.00    +0.000 A 
ATOM     18  C   UNL     1     113.071 125.860 136.847  0.00  0.00    +0.000 A 
BRANCH  18  19
ATOM     19  O   UNL     1     113.802 125.963 137.216  0.00  0.00    +0.000 OA
ATOM     20  C   UNL     1     113.900 125.746 138.006  0.00  0.00    +0.000 C 
ENDBRANCH  18  19
ENDBRANCH   1  13
BRANCH   6  21
ATOM     21  O   UNL     1     108.665 129.558 135.324  0.00  0.00    +0.000 OA
BRANCH  21  22
ATOM     22  C   UNL     1     108.797 130.262 135.731  0.00  0.00    +0.000 C 
ATOM     23  O   UNL     1     109.568 130.519 135.872  0.00  0.00    +0.000 OA
ATOM     24  C   UNL     1     108.158 130.710 136.000  0.00  0.00    +0.000 C 
ATOM     25  C   UNL     1     109.701 131.224 136.280  0.00  0.00    +0.000 C 
ATOM     26  O   UNL     1     107.386 130.453 135.859  0.00  0.00    +0.000 OA
ATOM     27  C   UNL     1     108.290 131.414 136.407  0.00  0.00    +0.000 C 
ATOM     28  C   UNL     1     109.061 131.671 136.547  0.00  0.00    +0.000 C 
ATOM     29  O   UNL     1     107.651 131.863 136.675  0.00  0.00    +0.000 OA
ATOM     30  O   UNL     1     109.194 132.377 136.956  0.00  0.00    +0.000 OA
ENDBRANCH  21  22
ENDBRANCH   6  21
TORSDOF 4
ENDMDL
MODEL 9
REMARK VINA RESULT:      -8.8      7.146      8.699
REMARK  Name = 
REMARK  4 active torsions:
REMARK  status: ('A' for Active; 'I' for Inactive)
REMARK    1  A    between atoms: C_7  and  C_12
REMARK    2  A    between atoms: C_13  and  O_16
REMARK    3  A    between atoms: C_20  and  O_21
REMARK    4  A    between atoms: O_21  and  C_22
REMARK                            x       y       z     vdW  Elec       q    Type
REMARK                         _______ _______ _______ _____ _____    ______ ____
ROOT
ATOM      1  C   UNL     1     113.415 126.838 139.287  0.00  0.00    +0.000 A 
ATOM      2  C   UNL     1     113.718 126.638 140.029  0.00  0.00    +0.000 A 
ATOM      3  C   UNL     1     113.105 127.592 139.159  0.00  0.00    +0.000 A 
ATOM      4  C   UNL     1     113.710 127.190 140.641  0.00  0.00    +0.000 A 
ATOM      5  C   UNL     1     113.097 128.145 139.772  0.00  0.00    +0.000 A 
ATOM      6  C   UNL     1     113.399 127.944 140.512  0.00  0.00    +0.000 A 
ENDROOT
BRANCH   1  13
ATOM      7  O   UNL     1     114.861 125.082 137.558  0.00  0.00    +0.000 OA
ATOM      8  C   UNL     1     114.146 125.407 137.811  0.00  0.00    +0.000 C 
ATOM      9  C   UNL     1     113.440 125.180 137.451  0.00  0.00    +0.000 A 
ATOM     10  C   UNL     1     114.138 125.960 138.423  0.00  0.00    +0.000 C 
ATOM     11  C   UNL     1     112.724 125.505 137.703  0.00  0.00    +0.000 A 
ATOM     12  C   UNL     1     113.448 124.627 136.838  0.00  0.00    +0.000 A 
ATOM     13  C   UNL     1     113.424 126.286 138.676  0.00  0.00    +0.000 C 
ATOM     14  O   UNL     1     112.716 126.058 138.316  0.00  0.00    +0.000 OA
ATOM     15  C   UNL     1     112.018 125.278 137.344  0.00  0.00    +0.000 A 
ATOM     16  O   UNL     1     114.162 124.302 136.586  0.00  0.00    +0.000 OA
ATOM     17  C   UNL     1     112.740 124.400 136.479  0.00  0.00    +0.000 A 
ATOM     18  C   UNL     1     112.026 124.725 136.731  0.00  0.00    +0.000 A 
BRANCH  18  19
ATOM     19  O   UNL     1     111.319 124.498 136.372  0.00  0.00    +0.000 OA
ATOM     20  C   UNL     1     110.966 124.986 135.809  0.00  0.00    +0.000 C 
ENDBRANCH  18  19
ENDBRANCH   1  13
BRANCH   6  21
ATOM     21  O   UNL     1     113.391 128.498 141.125  0.00  0.00    +0.000 OA
BRANCH  21  22
ATOM     22  C   UNL     1     112.743 128.541 141.633  0.00  0.00    +0.000 C 
ATOM     23  O   UNL     1     112.278 127.872 141.764  0.00  0.00    +0.000 OA
ATOM     24  C   UNL     1     112.560 129.251 142.009  0.00  0.00    +0.000 C 
ATOM     25  C   UNL     1     111.629 127.915 142.273  0.00  0.00    +0.000 C 
ATOM     26  O   UNL     1     113.026 129.920 141.878  0.00  0.00    +0.000 OA
ATOM     27  C   UNL     1     111.912 129.294 142.517  0.00  0.00    +0.000 C 
ATOM     28  C   UNL     1     111.446 128.626 142.649  0.00  0.00    +0.000 C 
ATOM     29  O   UNL     1     111.729 130.005 142.894  0.00  0.00    +0.000 OA
ATOM     30  O   UNL     1     110.797 128.669 143.158  0.00  0.00    +0.000 OA
ENDBRANCH  21  22
ENDBRANCH   6  21
TORSDOF 4
ENDMDL
MODEL 10
REMARK VINA RESULT:      -8.7      8.110      9.410
REMARK  Name = 
REMARK  4 active torsions:
REMARK  status: ('A' for Active; 'I' for Inactive)
REMARK    1  A    between atoms: C_7  and  C_12
REMARK    2  A    between atoms: C_13  and  O_16
REMARK    3  A    between atoms: C_20  and  O_21
REMARK    4  A    between atoms: O_21  and  C_22
REMARK                            x       y       z     vdW  Elec       q    Type
REMARK                         _______ _______ _______ _____ _____    ______ ____
ROOT
ATOM      1  C   UNL     1     111.647 127.680 136.148  0.00  0.00    +0.000 A 
ATOM      2  C   UNL     1     111.948 128.103 135.506  0.00  0.00    +0.000 A 
ATOM      3  C   UNL     1     111.207 128.068 136.728  0.00  0.00    +0.000 A 
ATOM      4  C   UNL     1     111.807 128.914 135.445  0.00  0.00    +0.000 A 
ATOM      5  C   UNL     1     111.066 128.878 136.666  0.00  0.00    +0.000 A 
ATOM      6  C   UNL     1     111.367 129.301 136.025  0.00  0.00    +0.000 A 
ENDROOT
BRANCH   1  13
ATOM      7  O   UNL     1     110.844 124.985 135.645  0.00  0.00    +0.000 OA
ATOM      8  C   UNL     1     111.386 125.522 135.958  0.00  0.00    +0.000 C 
ATOM      9  C   UNL     1     112.068 125.249 136.333  0.00  0.00    +0.000 A 
ATOM     10  C   UNL     1     111.246 126.332 135.897  0.00  0.00    +0.000 C 
ATOM     11  C   UNL     1     112.611 125.786 136.646  0.00  0.00    +0.000 A 
ATOM     12  C   UNL     1     112.209 124.437 136.394  0.00  0.00    +0.000 A 
ATOM     13  C   UNL     1     111.787 126.870 136.210  0.00  0.00    +0.000 C 
ATOM     14  O   UNL     1     112.470 126.596 136.585  0.00  0.00    +0.000 OA
ATOM     15  C   UNL     1     113.293 125.513 137.020  0.00  0.00    +0.000 A 
ATOM     16  O   UNL     1     111.667 123.900 136.081  0.00  0.00    +0.000 OA
ATOM     17  C   UNL     1     112.891 124.165 136.769  0.00  0.00    +0.000 A 
ATOM     18  C   UNL     1     113.433 124.701 137.082  0.00  0.00    +0.000 A 
BRANCH  18  19
ATOM     19  O   UNL     1     114.116 124.429 137.457  0.00  0.00    +0.000 OA
ATOM     20  C   UNL     1     114.858 124.628 137.159  0.00  0.00    +0.000 C 
ENDBRANCH  18  19
ENDBRANCH   1  13
BRANCH   6  21
ATOM     21  O   UNL     1     111.226 130.113 135.964  0.00  0.00    +0.000 OA
BRANCH  21  22
ATOM     22  C   UNL     1     110.525 130.385 135.626  0.00  0.00    +0.000 C 
ATOM     23  O   UNL     1     110.192 129.984 134.987  0.00  0.00    +0.000 OA
ATOM     24  C   UNL     1     110.155 131.058 135.928  0.00  0.00    +0.000 C 
ATOM     25  C   UNL     1     109.490 130.256 134.648  0.00  0.00    +0.000 C 
ATOM     26  O   UNL     1     110.489 131.460 136.568  0.00  0.00    +0.000 OA
ATOM     27  C   UNL     1     109.454 131.331 135.590  0.00  0.00    +0.000 C 
ATOM     28  C   UNL     1     109.122 130.930 134.950  0.00  0.00    +0.000 C 
ATOM     29  O   UNL     1     109.085 132.004 135.891  0.00  0.00    +0.000 OA
ATOM     30  O   UNL     1     108.419 131.202 134.612  0.00  0.00    +0.000 OA
ENDBRANCH  21  22
ENDBRANCH   6  21
TORSDOF 4
ENDMDL
