MODEL 1
REMARK VINA RESULT:      -8.6      0.000      0.000
REMARK  Name = 15491078
REMARK  2 active torsions:
REMARK  status: ('A' for Active; 'I' for Inactive)
REMARK    1  A    between atoms: O_4  and  C_16
REMARK    2  A    between atoms: C_6  and  C_8
REMARK                            x       y       z     vdW  Elec       q    Type
REMARK                         _______ _______ _______ _____ _____    ______ ____
ROOT
ATOM      1  O   UNL     1     104.660 123.584 138.248  0.00  0.00    +0.000 OA
ATOM      2  O   UNL     1     102.249 123.694 138.795  0.00  0.00    +0.000 OA
ATOM      3  O   UNL     1     101.896 123.324 137.447  0.00  0.00    +0.000 OA
ATOM      4  C   UNL     1     104.419 123.787 139.011  0.00  0.00    +0.000 C 
ATOM      5  C   UNL     1     103.615 123.823 139.193  0.00  0.00    +0.000 C 
ATOM      6  C   UNL     1     103.294 123.455 137.851  0.00  0.00    +0.000 A 
ATOM      7  C   UNL     1     103.053 123.658 138.613  0.00  0.00    +0.000 C 
ATOM      8  C   UNL     1     104.097 123.418 137.668  0.00  0.00    +0.000 A 
ATOM      9  C   UNL     1     102.698 123.285 137.255  0.00  0.00    +0.000 A 
ATOM     10  C   UNL     1     104.361 123.209 136.877  0.00  0.00    +0.000 A 
ATOM     11  C   UNL     1     103.780 123.035 136.269  0.00  0.00    +0.000 A 
ATOM     12  C   UNL     1     102.943 123.073 136.459  0.00  0.00    +0.000 A 
ENDROOT
BRANCH   4  14
ATOM     13  O   UNL     1     104.963 125.331 139.218  0.00  0.00    +0.000 OA
ATOM     14  C   UNL     1     104.982 123.952 139.591  0.00  0.00    +0.000 A 
ATOM     15  C   UNL     1     105.254 124.724 139.694  0.00  0.00    +0.000 A 
ATOM     16  C   UNL     1     105.274 123.344 140.067  0.00  0.00    +0.000 A 
ATOM     17  C   UNL     1     105.817 124.888 140.274  0.00  0.00    +0.000 A 
ATOM     18  C   UNL     1     105.837 123.510 140.647  0.00  0.00    +0.000 A 
ATOM     19  C   UNL     1     106.108 124.282 140.750  0.00  0.00    +0.000 A 
ENDBRANCH   4  14
BRANCH  11  20
ATOM     20  O   UNL     1     104.024 122.833 135.507  0.00  0.00    +0.000 OA
ATOM     21  C   UNL     1     104.116 123.420 134.935  0.00  0.00    +0.000 C 
ENDBRANCH  11  20
TORSDOF 2
ENDMDL
MODEL 2
REMARK VINA RESULT:      -8.3      7.855      9.519
REMARK  Name = 15491078
REMARK  2 active torsions:
REMARK  status: ('A' for Active; 'I' for Inactive)
REMARK    1  A    between atoms: O_4  and  C_16
REMARK    2  A    between atoms: C_6  and  C_8
REMARK                            x       y       z     vdW  Elec       q    Type
REMARK                         _______ _______ _______ _____ _____    ______ ____
ROOT
ATOM      1  O   UNL     1     104.966 124.327 147.282  0.00  0.00    +0.000 OA
ATOM      2  O   UNL     1     106.112 125.386 145.361  0.00  0.00    +0.000 OA
ATOM      3  O   UNL     1     107.262 125.690 146.177  0.00  0.00    +0.000 OA
ATOM      4  C   UNL     1     104.594 124.359 146.545  0.00  0.00    +0.000 C 
ATOM      5  C   UNL     1     104.976 124.713 145.905  0.00  0.00    +0.000 C 
ATOM      6  C   UNL     1     106.102 125.001 146.736  0.00  0.00    +0.000 A 
ATOM      7  C   UNL     1     105.730 125.033 146.001  0.00  0.00    +0.000 C 
ATOM      8  C   UNL     1     105.720 124.647 147.376  0.00  0.00    +0.000 A 
ATOM      9  C   UNL     1     106.888 125.338 146.823  0.00  0.00    +0.000 A 
ATOM     10  C   UNL     1     106.098 124.607 148.148  0.00  0.00    +0.000 A 
ATOM     11  C   UNL     1     106.883 124.940 148.253  0.00  0.00    +0.000 A 
ATOM     12  C   UNL     1     107.280 125.307 147.587  0.00  0.00    +0.000 A 
ENDROOT
BRANCH   4  14
ATOM     13  O   UNL     1     104.407 122.890 145.819  0.00  0.00    +0.000 OA
ATOM     14  C   UNL     1     103.840 124.039 146.450  0.00  0.00    +0.000 A 
ATOM     15  C   UNL     1     103.746 123.304 146.087  0.00  0.00    +0.000 A 
ATOM     16  C   UNL     1     103.179 124.454 146.719  0.00  0.00    +0.000 A 
ATOM     17  C   UNL     1     102.992 122.984 145.993  0.00  0.00    +0.000 A 
ATOM     18  C   UNL     1     102.425 124.133 146.625  0.00  0.00    +0.000 A 
ATOM     19  C   UNL     1     102.331 123.398 146.262  0.00  0.00    +0.000 A 
ENDBRANCH   4  14
BRANCH  11  20
ATOM     20  O   UNL     1     107.252 124.905 148.991  0.00  0.00    +0.000 OA
ATOM     21  C   UNL     1     107.915 124.426 149.097  0.00  0.00    +0.000 C 
ENDBRANCH  11  20
TORSDOF 2
ENDMDL
MODEL 3
REMARK VINA RESULT:      -8.2      7.683      8.944
REMARK  Name = 15491078
REMARK  2 active torsions:
REMARK  status: ('A' for Active; 'I' for Inactive)
REMARK    1  A    between atoms: O_4  and  C_16
REMARK    2  A    between atoms: C_6  and  C_8
REMARK                            x       y       z     vdW  Elec       q    Type
REMARK                         _______ _______ _______ _____ _____    ______ ____
ROOT
ATOM      1  O   UNL     1     112.042 125.635 136.037  0.00  0.00    +0.000 OA
ATOM      2  O   UNL     1     111.800 123.380 137.026  0.00  0.00    +0.000 OA
ATOM      3  O   UNL     1     113.213 123.322 137.312  0.00  0.00    +0.000 OA
ATOM      4  C   UNL     1     111.300 125.275 136.066  0.00  0.00    +0.000 C 
ATOM      5  C   UNL     1     111.219 124.523 136.396  0.00  0.00    +0.000 C 
ATOM      6  C   UNL     1     112.622 124.492 136.667  0.00  0.00    +0.000 A 
ATOM      7  C   UNL     1     111.881 124.132 136.696  0.00  0.00    +0.000 C 
ATOM      8  C   UNL     1     112.702 125.244 136.337  0.00  0.00    +0.000 A 
ATOM      9  C   UNL     1     113.303 124.074 136.984  0.00  0.00    +0.000 A 
ATOM     10  C   UNL     1     113.470 125.629 136.301  0.00  0.00    +0.000 A 
ATOM     11  C   UNL     1     114.162 125.227 136.612  0.00  0.00    +0.000 A 
ATOM     12  C   UNL     1     114.078 124.444 136.956  0.00  0.00    +0.000 A 
ENDROOT
BRANCH   4  14
ATOM     13  O   UNL     1     110.373 126.213 137.058  0.00  0.00    +0.000 OA
ATOM     14  C   UNL     1     110.639 125.666 135.765  0.00  0.00    +0.000 A 
ATOM     15  C   UNL     1     110.176 126.136 136.261  0.00  0.00    +0.000 A 
ATOM     16  C   UNL     1     110.441 125.589 134.967  0.00  0.00    +0.000 A 
ATOM     17  C   UNL     1     109.515 126.527 135.959  0.00  0.00    +0.000 A 
ATOM     18  C   UNL     1     109.781 125.981 134.667  0.00  0.00    +0.000 A 
ATOM     19  C   UNL     1     109.318 126.450 135.163  0.00  0.00    +0.000 A 
ENDBRANCH   4  14
BRANCH  11  20
ATOM     20  O   UNL     1     114.902 125.590 136.581  0.00  0.00    +0.000 OA
ATOM     21  C   UNL     1     115.371 125.513 135.907  0.00  0.00    +0.000 C 
ENDBRANCH  11  20
TORSDOF 2
ENDMDL
MODEL 4
REMARK VINA RESULT:      -8.1      7.873      9.436
REMARK  Name = 15491078
REMARK  2 active torsions:
REMARK  status: ('A' for Active; 'I' for Inactive)
REMARK    1  A    between atoms: O_4  and  C_16
REMARK    2  A    between atoms: C_6  and  C_8
REMARK                            x       y       z     vdW  Elec       q    Type
REMARK                         _______ _______ _______ _____ _____    ______ ____
ROOT
ATOM      1  O   UNL     1     105.543 124.359 147.326  0.00  0.00    +0.000 OA
ATOM      2  O   UNL     1     104.004 125.895 148.508  0.00  0.00    +0.000 OA
ATOM      3  O   UNL     1     102.897 125.463 147.690  0.00  0.00    +0.000 OA
ATOM      4  C   UNL     1     105.826 124.839 147.936  0.00  0.00    +0.000 C 
ATOM      5  C   UNL     1     105.313 125.351 148.330  0.00  0.00    +0.000 C 
ATOM      6  C   UNL     1     104.234 124.905 147.506  0.00  0.00    +0.000 A 
ATOM      7  C   UNL     1     104.517 125.383 148.114  0.00  0.00    +0.000 C 
ATOM      8  C   UNL     1     104.747 124.393 147.112  0.00  0.00    +0.000 A 
ATOM      9  C   UNL     1     103.403 124.948 147.291  0.00  0.00    +0.000 A 
ATOM     10  C   UNL     1     104.464 123.888 146.475  0.00  0.00    +0.000 A 
ATOM     11  C   UNL     1     103.637 123.918 146.247  0.00  0.00    +0.000 A 
ATOM     12  C   UNL     1     103.103 124.451 146.657  0.00  0.00    +0.000 A 
ENDROOT
BRANCH   4  14
ATOM     13  O   UNL     1     106.961 125.609 147.019  0.00  0.00    +0.000 OA
ATOM     14  C   UNL     1     106.622 124.806 148.150  0.00  0.00    +0.000 A 
ATOM     15  C   UNL     1     107.189 125.191 147.692  0.00  0.00    +0.000 A 
ATOM     16  C   UNL     1     106.850 124.387 148.824  0.00  0.00    +0.000 A 
ATOM     17  C   UNL     1     107.985 125.157 147.907  0.00  0.00    +0.000 A 
ATOM     18  C   UNL     1     107.645 124.354 149.038  0.00  0.00    +0.000 A 
ATOM     19  C   UNL     1     108.213 124.739 148.580  0.00  0.00    +0.000 A 
ENDBRANCH   4  14
BRANCH  11  20
ATOM     20  O   UNL     1     103.357 123.437 145.637  0.00  0.00    +0.000 OA
ATOM     21  C   UNL     1     102.954 122.739 145.815  0.00  0.00    +0.000 C 
ENDBRANCH  11  20
TORSDOF 2
ENDMDL
MODEL 5
REMARK VINA RESULT:      -8.0      6.734      9.051
REMARK  Name = 15491078
REMARK  2 active torsions:
REMARK  status: ('A' for Active; 'I' for Inactive)
REMARK    1  A    between atoms: O_4  and  C_16
REMARK    2  A    between atoms: C_6  and  C_8
REMARK                            x       y       z     vdW  Elec       q    Type
REMARK                         _______ _______ _______ _____ _____    ______ ____
ROOT
ATOM      1  O   UNL     1     106.623 125.104 146.719  0.00  0.00    +0.000 OA
ATOM      2  O   UNL     1     106.825 127.563 146.530  0.00  0.00    +0.000 OA
ATOM      3  O   UNL     1     106.262 127.537 145.202  0.00  0.00    +0.000 OA
ATOM      4  C   UNL     1     106.936 125.542 147.345  0.00  0.00    +0.000 C 
ATOM      5  C   UNL     1     107.004 126.361 147.282  0.00  0.00    +0.000 C 
ATOM      6  C   UNL     1     106.444 126.307 145.968  0.00  0.00    +0.000 A 
ATOM      7  C   UNL     1     106.757 126.744 146.593  0.00  0.00    +0.000 C 
ATOM      8  C   UNL     1     106.377 125.487 146.031  0.00  0.00    +0.000 A 
ATOM      9  C   UNL     1     106.191 126.717 145.256  0.00  0.00    +0.000 A 
ATOM     10  C   UNL     1     106.052 125.020 145.386  0.00  0.00    +0.000 A 
ATOM     11  C   UNL     1     105.794 125.413 144.667  0.00  0.00    +0.000 A 
ATOM     12  C   UNL     1     105.864 126.267 144.601  0.00  0.00    +0.000 A 
ENDROOT
BRANCH   4  14
ATOM     13  O   UNL     1     108.524 125.140 147.544  0.00  0.00    +0.000 OA
ATOM     14  C   UNL     1     107.182 125.159 148.032  0.00  0.00    +0.000 A 
ATOM     15  C   UNL     1     107.976 124.958 148.132  0.00  0.00    +0.000 A 
ATOM     16  C   UNL     1     106.633 124.976 148.621  0.00  0.00    +0.000 A 
ATOM     17  C   UNL     1     108.221 124.575 148.821  0.00  0.00    +0.000 A 
ATOM     18  C   UNL     1     106.879 124.593 149.309  0.00  0.00    +0.000 A 
ATOM     19  C   UNL     1     107.672 124.392 149.409  0.00  0.00    +0.000 A 
ENDBRANCH   4  14
BRANCH  11  20
ATOM     20  O   UNL     1     105.481 124.972 144.043  0.00  0.00    +0.000 OA
ATOM     21  C   UNL     1     105.914 124.879 143.346  0.00  0.00    +0.000 C 
ENDBRANCH  11  20
TORSDOF 2
ENDMDL
MODEL 6
REMARK VINA RESULT:      -8.0      6.535      8.166
REMARK  Name = 15491078
REMARK  2 active torsions:
REMARK  status: ('A' for Active; 'I' for Inactive)
REMARK    1  A    between atoms: O_4  and  C_16
REMARK    2  A    between atoms: C_6  and  C_8
REMARK                            x       y       z     vdW  Elec       q    Type
REMARK                         _______ _______ _______ _____ _____    ______ ____
ROOT
ATOM      1  O   UNL     1     102.911 130.497 142.185  0.00  0.00    +0.000 OA
ATOM      2  O   UNL     1     102.790 129.315 140.014  0.00  0.00    +0.000 OA
ATOM      3  O   UNL     1     103.748 128.334 140.461  0.00  0.00    +0.000 OA
ATOM      4  C   UNL     1     102.415 130.779 141.588  0.00  0.00    +0.000 C 
ATOM      5  C   UNL     1     102.375 130.385 140.864  0.00  0.00    +0.000 C 
ATOM      6  C   UNL     1     103.326 129.427 141.333  0.00  0.00    +0.000 A 
ATOM      7  C   UNL     1     102.830 129.709 140.737  0.00  0.00    +0.000 C 
ATOM      8  C   UNL     1     103.366 129.821 142.057  0.00  0.00    +0.000 A 
ATOM      9  C   UNL     1     103.795 128.722 141.188  0.00  0.00    +0.000 A 
ATOM     10  C   UNL     1     103.879 129.537 142.686  0.00  0.00    +0.000 A 
ATOM     11  C   UNL     1     104.355 128.834 142.559  0.00  0.00    +0.000 A 
ATOM     12  C   UNL     1     104.313 128.423 141.805  0.00  0.00    +0.000 A 
ENDROOT
BRANCH   4  14
ATOM     13  O   UNL     1     103.024 132.268 141.218  0.00  0.00    +0.000 OA
ATOM     14  C   UNL     1     101.960 131.455 141.716  0.00  0.00    +0.000 A 
ATOM     15  C   UNL     1     102.264 132.199 141.531  0.00  0.00    +0.000 A 
ATOM     16  C   UNL     1     101.199 131.387 142.029  0.00  0.00    +0.000 A 
ATOM     17  C   UNL     1     101.808 132.875 141.660  0.00  0.00    +0.000 A 
ATOM     18  C   UNL     1     100.744 132.063 142.158  0.00  0.00    +0.000 A 
ATOM     19  C   UNL     1     101.049 132.807 141.973  0.00  0.00    +0.000 A 
ENDBRANCH   4  14
BRANCH  11  20
ATOM     20  O   UNL     1     104.850 128.554 143.157  0.00  0.00    +0.000 OA
ATOM     21  C   UNL     1     105.635 128.806 143.194  0.00  0.00    +0.000 C 
ENDBRANCH  11  20
TORSDOF 2
ENDMDL
MODEL 7
REMARK VINA RESULT:      -8.0      7.781      8.652
REMARK  Name = 15491078
REMARK  2 active torsions:
REMARK  status: ('A' for Active; 'I' for Inactive)
REMARK    1  A    between atoms: O_4  and  C_16
REMARK    2  A    between atoms: C_6  and  C_8
REMARK                            x       y       z     vdW  Elec       q    Type
REMARK                         _______ _______ _______ _____ _____    ______ ____
ROOT
ATOM      1  O   UNL     1     112.350 126.446 136.136  0.00  0.00    +0.000 OA
ATOM      2  O   UNL     1     110.763 124.594 135.716  0.00  0.00    +0.000 OA
ATOM      3  O   UNL     1     109.884 125.474 134.986  0.00  0.00    +0.000 OA
ATOM      4  C   UNL     1     112.512 125.690 136.426  0.00  0.00    +0.000 C 
ATOM      5  C   UNL     1     111.983 125.073 136.286  0.00  0.00    +0.000 C 
ATOM      6  C   UNL     1     111.131 125.966 135.567  0.00  0.00    +0.000 A 
ATOM      7  C   UNL     1     111.292 125.211 135.856  0.00  0.00    +0.000 C 
ATOM      8  C   UNL     1     111.660 126.584 135.707  0.00  0.00    +0.000 A 
ATOM      9  C   UNL     1     110.408 126.098 135.121  0.00  0.00    +0.000 A 
ATOM     10  C   UNL     1     111.502 127.375 135.410  0.00  0.00    +0.000 A 
ATOM     11  C   UNL     1     110.785 127.525 134.962  0.00  0.00    +0.000 A 
ATOM     12  C   UNL     1     110.234 126.882 134.816  0.00  0.00    +0.000 A 
ENDROOT
BRANCH   4  14
ATOM     13  O   UNL     1     112.541 125.961 138.053  0.00  0.00    +0.000 OA
ATOM     14  C   UNL     1     113.203 125.553 136.855  0.00  0.00    +0.000 A 
ATOM     15  C   UNL     1     113.217 125.688 137.669  0.00  0.00    +0.000 A 
ATOM     16  C   UNL     1     113.880 125.279 136.470  0.00  0.00    +0.000 A 
ATOM     17  C   UNL     1     113.909 125.551 138.098  0.00  0.00    +0.000 A 
ATOM     18  C   UNL     1     114.571 125.142 136.900  0.00  0.00    +0.000 A 
ATOM     19  C   UNL     1     114.585 125.277 137.713  0.00  0.00    +0.000 A 
ENDBRANCH   4  14
BRANCH  11  20
ATOM     20  O   UNL     1     110.627 128.282 134.674  0.00  0.00    +0.000 OA
ATOM     21  C   UNL     1     110.171 128.806 135.120  0.00  0.00    +0.000 C 
ENDBRANCH  11  20
TORSDOF 2
ENDMDL
MODEL 8
REMARK VINA RESULT:      -7.9      7.956      9.663
REMARK  Name = 15491078
REMARK  2 active torsions:
REMARK  status: ('A' for Active; 'I' for Inactive)
REMARK    1  A    between atoms: O_4  and  C_16
REMARK    2  A    between atoms: C_6  and  C_8
REMARK                            x       y       z     vdW  Elec       q    Type
REMARK                         _______ _______ _______ _____ _____    ______ ____
ROOT
ATOM      1  O   UNL     1     106.994 126.260 147.414  0.00  0.00    +0.000 OA
ATOM      2  O   UNL     1     106.370 124.893 145.447  0.00  0.00    +0.000 OA
ATOM      3  O   UNL     1     106.183 126.077 144.646  0.00  0.00    +0.000 OA
ATOM      4  C   UNL     1     106.979 125.437 147.471  0.00  0.00    +0.000 C 
ATOM      5  C   UNL     1     106.771 124.981 146.816  0.00  0.00    +0.000 C 
ATOM      6  C   UNL     1     106.592 126.171 146.045  0.00  0.00    +0.000 A 
ATOM      7  C   UNL     1     106.578 125.348 146.103  0.00  0.00    +0.000 C 
ATOM      8  C   UNL     1     106.800 126.627 146.700  0.00  0.00    +0.000 A 
ATOM      9  C   UNL     1     106.389 126.541 145.296  0.00  0.00    +0.000 A 
ATOM     10  C   UNL     1     106.819 127.485 146.653  0.00  0.00    +0.000 A 
ATOM     11  C   UNL     1     106.619 127.872 145.913  0.00  0.00    +0.000 A 
ATOM     12  C   UNL     1     106.403 127.398 145.230  0.00  0.00    +0.000 A 
ENDROOT
BRANCH   4  14
ATOM     13  O   UNL     1     108.547 125.041 147.799  0.00  0.00    +0.000 OA
ATOM     14  C   UNL     1     107.172 125.070 148.185  0.00  0.00    +0.000 A 
ATOM     15  C   UNL     1     107.956 124.873 148.348  0.00  0.00    +0.000 A 
ATOM     16  C   UNL     1     106.580 124.901 148.735  0.00  0.00    +0.000 A 
ATOM     17  C   UNL     1     108.148 124.506 149.062  0.00  0.00    +0.000 A 
ATOM     18  C   UNL     1     106.773 124.535 149.448  0.00  0.00    +0.000 A 
ATOM     19  C   UNL     1     107.557 124.338 149.612  0.00  0.00    +0.000 A 
ENDBRANCH   4  14
BRANCH  11  20
ATOM     20  O   UNL     1     106.635 128.696 145.859  0.00  0.00    +0.000 OA
ATOM     21  C   UNL     1     107.336 129.082 145.659  0.00  0.00    +0.000 C 
ENDBRANCH  11  20
TORSDOF 2
ENDMDL
MODEL 9
REMARK VINA RESULT:      -7.7      7.796      9.588
REMARK  Name = 15491078
REMARK  2 active torsions:
REMARK  status: ('A' for Active; 'I' for Inactive)
REMARK    1  A    between atoms: O_4  and  C_16
REMARK    2  A    between atoms: C_6  and  C_8
REMARK                            x       y       z     vdW  Elec       q    Type
REMARK                         _______ _______ _______ _____ _____    ______ ____
ROOT
ATOM      1  O   UNL     1     111.989 126.189 137.116  0.00  0.00    +0.000 OA
ATOM      2  O   UNL     1     114.078 125.071 136.401  0.00  0.00    +0.000 OA
ATOM      3  O   UNL     1     114.673 125.291 137.696  0.00  0.00    +0.000 OA
ATOM      4  C   UNL     1     112.054 125.887 136.350  0.00  0.00    +0.000 C 
ATOM      5  C   UNL     1     112.751 125.514 136.112  0.00  0.00    +0.000 C 
ATOM      6  C   UNL     1     113.316 125.745 137.404  0.00  0.00    +0.000 A 
ATOM      7  C   UNL     1     113.381 125.444 136.639  0.00  0.00    +0.000 C 
ATOM      8  C   UNL     1     112.620 126.118 137.642  0.00  0.00    +0.000 A 
ATOM      9  C   UNL     1     113.981 125.665 137.943  0.00  0.00    +0.000 A 
ATOM     10  C   UNL     1     112.540 126.437 138.436  0.00  0.00    +0.000 A 
ATOM     11  C   UNL     1     113.193 126.366 138.989  0.00  0.00    +0.000 A 
ATOM     12  C   UNL     1     113.918 125.977 138.741  0.00  0.00    +0.000 A 
ENDROOT
BRANCH   4  14
ATOM     13  O   UNL     1     110.999 124.634 136.151  0.00  0.00    +0.000 OA
ATOM     14  C   UNL     1     111.423 125.959 135.824  0.00  0.00    +0.000 A 
ATOM     15  C   UNL     1     110.896 125.332 135.724  0.00  0.00    +0.000 A 
ATOM     16  C   UNL     1     111.320 126.658 135.397  0.00  0.00    +0.000 A 
ATOM     17  C   UNL     1     110.265 125.405 135.197  0.00  0.00    +0.000 A 
ATOM     18  C   UNL     1     110.688 126.729 134.870  0.00  0.00    +0.000 A 
ATOM     19  C   UNL     1     110.161 126.103 134.771  0.00  0.00    +0.000 A 
ENDBRANCH   4  14
BRANCH  11  20
ATOM     20  O   UNL     1     113.125 126.669 139.754  0.00  0.00    +0.000 OA
ATOM     21  C   UNL     1     113.385 127.434 139.919  0.00  0.00    +0.000 C 
ENDBRANCH  11  20
TORSDOF 2
ENDMDL
MODEL 10
REMARK VINA RESULT:      -7.6      9.358     10.612
REMARK  Name = 15491078
REMARK  2 active torsions:
REMARK  status: ('A' for Active; 'I' for Inactive)
REMARK    1  A    between atoms: O_4  and  C_16
REMARK    2  A    between atoms: C_6  and  C_8
REMARK                            x       y       z     vdW  Elec       q    Type
REMARK                         _______ _______ _______ _____ _____    ______ ____
ROOT
ATOM      1  O   UNL     1     113.845 127.158 136.287  0.00  0.00    +0.000 OA
ATOM      2  O   UNL     1     112.504 128.261 138.051  0.00  0.00    +0.000 OA
ATOM      3  O   UNL     1     112.685 129.548 137.424  0.00  0.00    +0.000 OA
ATOM      4  C   UNL     1     113.524 126.711 136.902  0.00  0.00    +0.000 C 
ATOM      5  C   UNL     1     113.077 127.078 137.490  0.00  0.00    +0.000 C 
ATOM      6  C   UNL     1     113.272 128.340 136.849  0.00  0.00    +0.000 A 
ATOM      7  C   UNL     1     112.951 127.893 137.463  0.00  0.00    +0.000 C 
ATOM      8  C   UNL     1     113.719 127.973 136.261  0.00  0.00    +0.000 A 
ATOM      9  C   UNL     1     113.133 129.189 136.832  0.00  0.00    +0.000 A 
ATOM     10  C   UNL     1     114.058 128.428 135.615  0.00  0.00    +0.000 A 
ATOM     11  C   UNL     1     113.930 129.276 135.582  0.00  0.00    +0.000 A 
ATOM     12  C   UNL     1     113.465 129.659 136.194  0.00  0.00    +0.000 A 
ENDROOT
BRANCH   4  14
ATOM     13  O   UNL     1     112.448 125.684 136.187  0.00  0.00    +0.000 OA
ATOM     14  C   UNL     1     113.650 125.896 136.928  0.00  0.00    +0.000 A 
ATOM     15  C   UNL     1     113.112 125.383 136.571  0.00  0.00    +0.000 A 
ATOM     16  C   UNL     1     114.316 125.594 137.313  0.00  0.00    +0.000 A 
ATOM     17  C   UNL     1     113.240 124.568 136.598  0.00  0.00    +0.000 A 
ATOM     18  C   UNL     1     114.442 124.780 137.339  0.00  0.00    +0.000 A 
ATOM     19  C   UNL     1     113.904 124.266 136.982  0.00  0.00    +0.000 A 
ENDBRANCH   4  14
BRANCH  11  20
ATOM     20  O   UNL     1     114.253 129.721 134.966  0.00  0.00    +0.000 OA
ATOM     21  C   UNL     1     114.996 130.068 135.053  0.00  0.00    +0.000 C 
ENDBRANCH  11  20
TORSDOF 2
ENDMDL
