MODEL 1
REMARK VINA RESULT:     -11.5      0.000      0.000
REMARK  Name = 131833703
REMARK  7 active torsions:
REMARK  status: ('A' for Active; 'I' for Inactive)
REMARK    1  A    between atoms: O_1  and  C_20
REMARK    2  A    between atoms: O_1  and  C_21
REMARK    3  A    between atoms: O_10  and  C_39
REMARK    4  A    between atoms: O_10  and  C_47
REMARK    5  A    between atoms: C_25  and  C_30
REMARK    6  A    between atoms: C_38  and  C_44
REMARK    7  A    between atoms: C_45  and  C_48
REMARK                            x       y       z     vdW  Elec       q    Type
REMARK                         _______ _______ _______ _____ _____    ______ ____
ROOT
ATOM      1  O   UNL     1     112.775 127.107 137.502  0.00  0.00    +0.000 OA
ATOM      2  O   UNL     1     111.125 125.512 139.205  0.00  0.00    +0.000 OA
ATOM      3  O   UNL     1     112.041 128.084 140.126  0.00  0.00    +0.000 OA
ATOM      4  O   UNL     1     113.255 128.401 137.926  0.00  0.00    +0.000 OA
ATOM      5  C   UNL     1     111.950 126.310 138.354  0.00  0.00    +0.000 A 
ATOM      6  C   UNL     1     112.379 127.001 138.218  0.00  0.00    +0.000 A 
ATOM      7  C   UNL     1     111.553 126.204 139.070  0.00  0.00    +0.000 A 
ATOM      8  C   UNL     1     112.411 127.588 138.798  0.00  0.00    +0.000 A 
ATOM      9  C   UNL     1     111.586 126.790 139.649  0.00  0.00    +0.000 A 
ATOM     10  C   UNL     1     112.015 127.482 139.514  0.00  0.00    +0.000 A 
ATOM     11  C   UNL     1     112.861 128.303 138.645  0.00  0.00    +0.000 A 
ATOM     12  C   UNL     1     112.486 128.807 139.990  0.00  0.00    +0.000 A 
ATOM     13  C   UNL     1     112.899 128.917 139.244  0.00  0.00    +0.000 A 
ENDROOT
BRANCH   5  18
ATOM     14  O   UNL     1     112.558 125.215 137.665  0.00  0.00    +0.000 OA
ATOM     15  O   UNL     1     110.540 124.985 136.250  0.00  0.00    +0.000 OA
ATOM     16  O   UNL     1     111.820 123.967 136.034  0.00  0.00    +0.000 OA
ATOM     17  C   UNL     1     111.245 125.648 137.302  0.00  0.00    +0.000 C 
ATOM     18  C   UNL     1     111.918 125.724 137.774  0.00  0.00    +0.000 C 
ATOM     19  C   UNL     1     111.213 125.061 136.722  0.00  0.00    +0.000 C 
ATOM     20  C   UNL     1     112.525 124.629 137.086  0.00  0.00    +0.000 C 
ATOM     21  C   UNL     1     111.853 124.552 136.613  0.00  0.00    +0.000 C 
ATOM     22  C   UNL     1     113.165 124.120 136.977  0.00  0.00    +0.000 C 
BRANCH  17  23
ATOM     23  O   UNL     1     110.605 126.157 137.411  0.00  0.00    +0.000 OA
BRANCH  23  28
ATOM     24  O   UNL     1     110.790 126.814 136.155  0.00  0.00    +0.000 OA
ATOM     25  O   UNL     1     108.992 126.499 137.352  0.00  0.00    +0.000 OA
ATOM     26  O   UNL     1     108.370 127.328 136.068  0.00  0.00    +0.000 OA
ATOM     27  O   UNL     1     109.362 127.814 134.841  0.00  0.00    +0.000 OA
ATOM     28  C   UNL     1     110.295 126.571 136.768  0.00  0.00    +0.000 C 
ATOM     29  C   UNL     1     109.488 126.742 136.739  0.00  0.00    +0.000 C 
ATOM     30  C   UNL     1     109.177 127.157 136.097  0.00  0.00    +0.000 C 
ATOM     31  C   UNL     1     109.673 127.399 135.484  0.00  0.00    +0.000 C 
ATOM     32  C   UNL     1     110.479 127.228 135.513  0.00  0.00    +0.000 C 
ATOM     33  C   UNL     1     110.975 127.471 134.900  0.00  0.00    +0.000 C 
ENDBRANCH  23  28
ENDBRANCH  17  23
ENDBRANCH   5  18
BRANCH  12  35
ATOM     34  C   UNL     1     112.577 130.560 141.735  0.00  0.00    +0.000 A 
ATOM     35  C   UNL     1     112.517 129.391 140.572  0.00  0.00    +0.000 A 
ATOM     36  C   UNL     1     113.172 129.990 141.692  0.00  0.00    +0.000 A 
ATOM     37  C   UNL     1     111.952 130.546 141.196  0.00  0.00    +0.000 A 
ATOM     38  C   UNL     1     113.142 129.405 141.110  0.00  0.00    +0.000 A 
ATOM     39  C   UNL     1     111.922 129.962 140.616  0.00  0.00    +0.000 A 
BRANCH  34  40
ATOM     40  O   UNL     1     112.608 131.145 142.316  0.00  0.00    +0.000 OA
BRANCH  40  49
ATOM     41  O   UNL     1     112.030 130.381 143.377  0.00  0.00    +0.000 OA
ATOM     42  O   UNL     1     110.800 132.386 144.150  0.00  0.00    +0.000 OA
ATOM     43  O   UNL     1     110.632 130.954 144.953  0.00  0.00    +0.000 OA
ATOM     44  O   UNL     1     111.787 132.480 142.831  0.00  0.00    +0.000 OA
ATOM     45  C   UNL     1     111.210 131.718 143.892  0.00  0.00    +0.000 C 
ATOM     46  C   UNL     1     111.126 131.002 144.294  0.00  0.00    +0.000 C 
ATOM     47  C   UNL     1     111.704 131.765 143.233  0.00  0.00    +0.000 C 
ATOM     48  C   UNL     1     111.536 130.334 144.037  0.00  0.00    +0.000 C 
ATOM     49  C   UNL     1     112.114 131.097 142.976  0.00  0.00    +0.000 C 
BRANCH  48  52
ATOM     50  O   UNL     1     111.967 129.428 145.054  0.00  0.00    +0.000 OA
ATOM     51  O   UNL     1     110.853 129.092 144.225  0.00  0.00    +0.000 OA
ATOM     52  C   UNL     1     111.452 129.618 144.439  0.00  0.00    +0.000 C 
ENDBRANCH  48  52
ENDBRANCH  40  49
ENDBRANCH  34  40
ENDBRANCH  12  35
TORSDOF 7
ENDMDL
MODEL 2
REMARK VINA RESULT:     -11.2      8.050     10.219
REMARK  Name = 131833703
REMARK  7 active torsions:
REMARK  status: ('A' for Active; 'I' for Inactive)
REMARK    1  A    between atoms: O_1  and  C_20
REMARK    2  A    between atoms: O_1  and  C_21
REMARK    3  A    between atoms: O_10  and  C_39
REMARK    4  A    between atoms: O_10  and  C_47
REMARK    5  A    between atoms: C_25  and  C_30
REMARK    6  A    between atoms: C_38  and  C_44
REMARK    7  A    between atoms: C_45  and  C_48
REMARK                            x       y       z     vdW  Elec       q    Type
REMARK                         _______ _______ _______ _____ _____    ______ ____
ROOT
ATOM      1  O   UNL     1     105.571 127.388 146.293  0.00  0.00    +0.000 OA
ATOM      2  O   UNL     1     106.629 125.470 144.457  0.00  0.00    +0.000 OA
ATOM      3  O   UNL     1     105.391 127.867 143.444  0.00  0.00    +0.000 OA
ATOM      4  O   UNL     1     104.943 128.601 145.825  0.00  0.00    +0.000 OA
ATOM      5  C   UNL     1     106.100 126.429 145.374  0.00  0.00    +0.000 A 
ATOM      6  C   UNL     1     105.718 127.146 145.518  0.00  0.00    +0.000 A 
ATOM      7  C   UNL     1     106.247 126.188 144.599  0.00  0.00    +0.000 A 
ATOM      8  C   UNL     1     105.483 127.622 144.885  0.00  0.00    +0.000 A 
ATOM      9  C   UNL     1     106.013 126.663 143.968  0.00  0.00    +0.000 A 
ATOM     10  C   UNL     1     105.631 127.381 144.110  0.00  0.00    +0.000 A 
ATOM     11  C   UNL     1     105.087 128.366 145.047  0.00  0.00    +0.000 A 
ATOM     12  C   UNL     1     104.993 128.615 143.586  0.00  0.00    +0.000 A 
ATOM     13  C   UNL     1     104.839 128.867 144.394  0.00  0.00    +0.000 A 
ENDROOT
BRANCH   5  18
ATOM     14  O   UNL     1     107.014 126.142 146.435  0.00  0.00    +0.000 OA
ATOM     15  O   UNL     1     105.679 124.150 147.046  0.00  0.00    +0.000 OA
ATOM     16  O   UNL     1     107.038 124.527 147.902  0.00  0.00    +0.000 OA
ATOM     17  C   UNL     1     105.890 125.290 146.210  0.00  0.00    +0.000 C 
ATOM     18  C   UNL     1     106.335 125.954 146.007  0.00  0.00    +0.000 C 
ATOM     19  C   UNL     1     106.124 124.814 146.843  0.00  0.00    +0.000 C 
ATOM     20  C   UNL     1     107.248 125.667 147.067  0.00  0.00    +0.000 C 
ATOM     21  C   UNL     1     106.804 125.002 147.271  0.00  0.00    +0.000 C 
ATOM     22  C   UNL     1     107.928 125.856 147.495  0.00  0.00    +0.000 C 
BRANCH  17  23
ATOM     23  O   UNL     1     105.210 125.101 145.782  0.00  0.00    +0.000 OA
BRANCH  23  28
ATOM     24  O   UNL     1     104.304 125.376 146.851  0.00  0.00    +0.000 OA
ATOM     25  O   UNL     1     104.196 123.925 145.225  0.00  0.00    +0.000 OA
ATOM     26  O   UNL     1     102.782 123.611 146.016  0.00  0.00    +0.000 OA
ATOM     27  O   UNL     1     102.383 124.475 147.364  0.00  0.00    +0.000 OA
ATOM     28  C   UNL     1     104.503 124.945 146.178  0.00  0.00    +0.000 C 
ATOM     29  C   UNL     1     103.996 124.357 145.899  0.00  0.00    +0.000 C 
ATOM     30  C   UNL     1     103.290 124.200 146.294  0.00  0.00    +0.000 C 
ATOM     31  C   UNL     1     103.090 124.631 146.968  0.00  0.00    +0.000 C 
ATOM     32  C   UNL     1     103.598 125.220 147.247  0.00  0.00    +0.000 C 
ATOM     33  C   UNL     1     103.397 125.651 147.921  0.00  0.00    +0.000 C 
ENDBRANCH  23  28
ENDBRANCH  17  23
ENDBRANCH   5  18
BRANCH  12  35
ATOM     34  C   UNL     1     104.293 130.037 141.685  0.00  0.00    +0.000 A 
ATOM     35  C   UNL     1     104.759 129.089 142.952  0.00  0.00    +0.000 A 
ATOM     36  C   UNL     1     103.919 129.314 141.818  0.00  0.00    +0.000 A 
ATOM     37  C   UNL     1     104.900 130.285 142.185  0.00  0.00    +0.000 A 
ATOM     38  C   UNL     1     104.152 128.839 142.452  0.00  0.00    +0.000 A 
ATOM     39  C   UNL     1     105.133 129.812 142.818  0.00  0.00    +0.000 A 
BRANCH  34  40
ATOM     40  O   UNL     1     104.060 130.510 141.051  0.00  0.00    +0.000 OA
BRANCH  40  49
ATOM     41  O   UNL     1     102.877 131.061 141.635  0.00  0.00    +0.000 OA
ATOM     42  O   UNL     1     103.419 133.267 140.651  0.00  0.00    +0.000 OA
ATOM     43  O   UNL     1     102.057 133.082 141.563  0.00  0.00    +0.000 OA
ATOM     44  O   UNL     1     104.421 131.981 140.395  0.00  0.00    +0.000 OA
ATOM     45  C   UNL     1     103.239 132.532 140.979  0.00  0.00    +0.000 C 
ATOM     46  C   UNL     1     102.558 132.439 141.435  0.00  0.00    +0.000 C 
ATOM     47  C   UNL     1     103.739 131.888 140.851  0.00  0.00    +0.000 C 
ATOM     48  C   UNL     1     102.376 131.705 141.763  0.00  0.00    +0.000 C 
ATOM     49  C   UNL     1     103.559 131.153 141.179  0.00  0.00    +0.000 C 
BRANCH  48  52
ATOM     50  O   UNL     1     101.721 131.754 143.031  0.00  0.00    +0.000 OA
ATOM     51  O   UNL     1     100.989 131.379 141.863  0.00  0.00    +0.000 OA
ATOM     52  C   UNL     1     101.695 131.613 142.219  0.00  0.00    +0.000 C 
ENDBRANCH  48  52
ENDBRANCH  40  49
ENDBRANCH  34  40
ENDBRANCH  12  35
TORSDOF 7
ENDMDL
MODEL 3
REMARK VINA RESULT:     -10.9      6.993      9.730
REMARK  Name = 131833703
REMARK  7 active torsions:
REMARK  status: ('A' for Active; 'I' for Inactive)
REMARK    1  A    between atoms: O_1  and  C_20
REMARK    2  A    between atoms: O_1  and  C_21
REMARK    3  A    between atoms: O_10  and  C_39
REMARK    4  A    between atoms: O_10  and  C_47
REMARK    5  A    between atoms: C_25  and  C_30
REMARK    6  A    between atoms: C_38  and  C_44
REMARK    7  A    between atoms: C_45  and  C_48
REMARK                            x       y       z     vdW  Elec       q    Type
REMARK                         _______ _______ _______ _____ _____    ______ ____
ROOT
ATOM      1  O   UNL     1     109.727 132.311 144.427  0.00  0.00    +0.000 OA
ATOM      2  O   UNL     1     111.698 130.514 145.454  0.00  0.00    +0.000 OA
ATOM      3  O   UNL     1     108.938 129.690 145.371  0.00  0.00    +0.000 OA
ATOM      4  O   UNL     1     108.334 131.936 144.369  0.00  0.00    +0.000 OA
ATOM      5  C   UNL     1     110.712 131.412 144.941  0.00  0.00    +0.000 A 
ATOM      6  C   UNL     1     109.926 131.580 144.754  0.00  0.00    +0.000 A 
ATOM      7  C   UNL     1     110.911 130.681 145.267  0.00  0.00    +0.000 A 
ATOM      8  C   UNL     1     109.339 131.016 144.894  0.00  0.00    +0.000 A 
ATOM      9  C   UNL     1     110.325 130.118 145.407  0.00  0.00    +0.000 A 
ATOM     10  C   UNL     1     109.539 130.285 145.221  0.00  0.00    +0.000 A 
ATOM     11  C   UNL     1     108.525 131.203 144.695  0.00  0.00    +0.000 A 
ATOM     12  C   UNL     1     108.117 129.859 145.179  0.00  0.00    +0.000 A 
ATOM     13  C   UNL     1     107.909 130.621 144.838  0.00  0.00    +0.000 A 
ENDROOT
BRANCH   5  18
ATOM     14  O   UNL     1     111.782 131.911 144.135  0.00  0.00    +0.000 OA
ATOM     15  O   UNL     1     112.091 133.793 145.713  0.00  0.00    +0.000 OA
ATOM     16  O   UNL     1     113.057 133.665 144.381  0.00  0.00    +0.000 OA
ATOM     17  C   UNL     1     111.401 132.602 145.327  0.00  0.00    +0.000 C 
ATOM     18  C   UNL     1     111.299 131.975 144.801  0.00  0.00    +0.000 C 
ATOM     19  C   UNL     1     111.988 133.166 145.187  0.00  0.00    +0.000 C 
ATOM     20  C   UNL     1     112.367 132.474 143.995  0.00  0.00    +0.000 C 
ATOM     21  C   UNL     1     112.471 133.102 144.521  0.00  0.00    +0.000 C 
ATOM     22  C   UNL     1     112.850 132.411 143.329  0.00  0.00    +0.000 C 
BRANCH  17  23
ATOM     23  O   UNL     1     110.918 132.666 145.993  0.00  0.00    +0.000 OA
BRANCH  23  28
ATOM     24  O   UNL     1     111.978 132.454 146.927  0.00  0.00    +0.000 OA
ATOM     25  O   UNL     1     110.141 133.621 147.091  0.00  0.00    +0.000 OA
ATOM     26  O   UNL     1     110.812 133.887 148.575  0.00  0.00    +0.000 OA
ATOM     27  O   UNL     1     112.261 133.197 148.960  0.00  0.00    +0.000 OA
ATOM     28  C   UNL     1     111.255 132.799 146.734  0.00  0.00    +0.000 C 
ATOM     29  C   UNL     1     110.866 133.276 147.284  0.00  0.00    +0.000 C 
ATOM     30  C   UNL     1     111.201 133.409 148.025  0.00  0.00    +0.000 C 
ATOM     31  C   UNL     1     111.925 133.064 148.217  0.00  0.00    +0.000 C 
ATOM     32  C   UNL     1     112.314 132.587 147.668  0.00  0.00    +0.000 C 
ATOM     33  C   UNL     1     113.039 132.243 147.862  0.00  0.00    +0.000 C 
ENDBRANCH  23  28
ENDBRANCH  17  23
ENDBRANCH   5  18
BRANCH  12  35
ATOM     34  C   UNL     1     106.364 128.164 145.601  0.00  0.00    +0.000 A 
ATOM     35  C   UNL     1     107.533 129.294 145.320  0.00  0.00    +0.000 A 
ATOM     36  C   UNL     1     106.532 128.734 146.172  0.00  0.00    +0.000 A 
ATOM     37  C   UNL     1     106.781 128.158 144.889  0.00  0.00    +0.000 A 
ATOM     38  C   UNL     1     107.116 129.300 146.032  0.00  0.00    +0.000 A 
ATOM     39  C   UNL     1     107.365 128.723 144.749  0.00  0.00    +0.000 A 
BRANCH  34  40
ATOM     40  O   UNL     1     105.780 127.599 145.742  0.00  0.00    +0.000 OA
BRANCH  40  49
ATOM     41  O   UNL     1     106.535 126.698 146.555  0.00  0.00    +0.000 OA
ATOM     42  O   UNL     1     105.541 124.778 145.351  0.00  0.00    +0.000 OA
ATOM     43  O   UNL     1     106.628 124.518 146.565  0.00  0.00    +0.000 OA
ATOM     44  O   UNL     1     105.117 126.318 144.940  0.00  0.00    +0.000 OA
ATOM     45  C   UNL     1     105.872 125.418 145.752  0.00  0.00    +0.000 C 
ATOM     46  C   UNL     1     106.415 125.288 146.359  0.00  0.00    +0.000 C 
ATOM     47  C   UNL     1     105.661 126.188 145.547  0.00  0.00    +0.000 C 
ATOM     48  C   UNL     1     106.747 125.927 146.761  0.00  0.00    +0.000 C 
ATOM     49  C   UNL     1     105.992 126.828 145.948  0.00  0.00    +0.000 C 
BRANCH  48  52
ATOM     50  O   UNL     1     107.033 125.757 148.150  0.00  0.00    +0.000 OA
ATOM     51  O   UNL     1     108.092 125.707 147.192  0.00  0.00    +0.000 OA
ATOM     52  C   UNL     1     107.291 125.797 147.368  0.00  0.00    +0.000 C 
ENDBRANCH  48  52
ENDBRANCH  40  49
ENDBRANCH  34  40
ENDBRANCH  12  35
TORSDOF 7
ENDMDL
MODEL 4
REMARK VINA RESULT:     -10.8      1.276      2.145
REMARK  Name = 131833703
REMARK  7 active torsions:
REMARK  status: ('A' for Active; 'I' for Inactive)
REMARK    1  A    between atoms: O_1  and  C_20
REMARK    2  A    between atoms: O_1  and  C_21
REMARK    3  A    between atoms: O_10  and  C_39
REMARK    4  A    between atoms: O_10  and  C_47
REMARK    5  A    between atoms: C_25  and  C_30
REMARK    6  A    between atoms: C_38  and  C_44
REMARK    7  A    between atoms: C_45  and  C_48
REMARK                            x       y       z     vdW  Elec       q    Type
REMARK                         _______ _______ _______ _____ _____    ______ ____
ROOT
ATOM      1  O   UNL     1     111.869 125.739 139.298  0.00  0.00    +0.000 OA
ATOM      2  O   UNL     1     113.640 127.784 138.378  0.00  0.00    +0.000 OA
ATOM      3  O   UNL     1     112.131 128.201 140.797  0.00  0.00    +0.000 OA
ATOM      4  O   UNL     1     111.095 125.909 140.504  0.00  0.00    +0.000 OA
ATOM      5  C   UNL     1     112.754 126.762 138.838  0.00  0.00    +0.000 A 
ATOM      6  C   UNL     1     112.208 126.485 139.390  0.00  0.00    +0.000 A 
ATOM      7  C   UNL     1     113.093 127.508 138.931  0.00  0.00    +0.000 A 
ATOM      8  C   UNL     1     112.000 126.956 140.036  0.00  0.00    +0.000 A 
ATOM      9  C   UNL     1     112.886 127.978 139.576  0.00  0.00    +0.000 A 
ATOM     10  C   UNL     1     112.339 127.702 140.129  0.00  0.00    +0.000 A 
ATOM     11  C   UNL     1     111.429 126.657 140.604  0.00  0.00    +0.000 A 
ATOM     12  C   UNL     1     111.561 127.919 141.376  0.00  0.00    +0.000 A 
ATOM     13  C   UNL     1     111.208 127.141 141.279  0.00  0.00    +0.000 A 
ENDROOT
BRANCH   5  18
ATOM     14  O   UNL     1     113.668 125.864 138.204  0.00  0.00    +0.000 OA
ATOM     15  O   UNL     1     112.173 125.736 136.235  0.00  0.00    +0.000 OA
ATOM     16  O   UNL     1     113.585 124.881 136.257  0.00  0.00    +0.000 OA
ATOM     17  C   UNL     1     112.464 126.249 137.537  0.00  0.00    +0.000 C 
ATOM     18  C   UNL     1     112.962 126.291 138.193  0.00  0.00    +0.000 C 
ATOM     19  C   UNL     1     112.672 125.778 136.891  0.00  0.00    +0.000 C 
ATOM     20  C   UNL     1     113.875 125.395 137.559  0.00  0.00    +0.000 C 
ATOM     21  C   UNL     1     113.378 125.351 136.902  0.00  0.00    +0.000 C 
ATOM     22  C   UNL     1     114.581 124.968 137.569  0.00  0.00    +0.000 C 
BRANCH  17  23
ATOM     23  O   UNL     1     111.758 126.676 137.526  0.00  0.00    +0.000 OA
BRANCH  23  28
ATOM     24  O   UNL     1     112.168 127.576 136.494  0.00  0.00    +0.000 OA
ATOM     25  O   UNL     1     110.200 126.775 136.993  0.00  0.00    +0.000 OA
ATOM     26  O   UNL     1     109.830 127.724 135.695  0.00  0.00    +0.000 OA
ATOM     27  O   UNL     1     111.019 128.574 134.930  0.00  0.00    +0.000 OA
ATOM     28  C   UNL     1     111.574 127.151 136.877  0.00  0.00    +0.000 C 
ATOM     29  C   UNL     1     110.795 127.200 136.610  0.00  0.00    +0.000 C 
ATOM     30  C   UNL     1     110.609 127.674 135.962  0.00  0.00    +0.000 C 
ATOM     31  C   UNL     1     111.204 128.099 135.579  0.00  0.00    +0.000 C 
ATOM     32  C   UNL     1     111.983 128.050 135.846  0.00  0.00    +0.000 C 
ATOM     33  C   UNL     1     112.577 128.476 135.463  0.00  0.00    +0.000 C 
ENDBRANCH  23  28
ENDBRANCH  17  23
ENDBRANCH   5  18
BRANCH  12  35
ATOM     34  C   UNL     1     110.942 129.335 143.308  0.00  0.00    +0.000 A 
ATOM     35  C   UNL     1     111.355 128.391 142.020  0.00  0.00    +0.000 A 
ATOM     36  C   UNL     1     111.588 128.824 143.362  0.00  0.00    +0.000 A 
ATOM     37  C   UNL     1     110.504 129.374 142.611  0.00  0.00    +0.000 A 
ATOM     38  C   UNL     1     111.794 128.352 142.718  0.00  0.00    +0.000 A 
ATOM     39  C   UNL     1     110.710 128.902 141.967  0.00  0.00    +0.000 A 
BRANCH  34  40
ATOM     40  O   UNL     1     110.736 129.808 143.952  0.00  0.00    +0.000 OA
BRANCH  40  49
ATOM     41  O   UNL     1     111.417 130.990 143.528  0.00  0.00    +0.000 OA
ATOM     42  O   UNL     1     112.044 131.470 145.874  0.00  0.00    +0.000 OA
ATOM     43  O   UNL     1     112.517 132.492 144.668  0.00  0.00    +0.000 OA
ATOM     44  O   UNL     1     111.154 130.128 145.516  0.00  0.00    +0.000 OA
ATOM     45  C   UNL     1     111.835 131.310 145.093  0.00  0.00    +0.000 C 
ATOM     46  C   UNL     1     112.071 131.821 144.489  0.00  0.00    +0.000 C 
ATOM     47  C   UNL     1     111.390 130.639 144.913  0.00  0.00    +0.000 C 
ATOM     48  C   UNL     1     111.863 131.662 143.708  0.00  0.00    +0.000 C 
ATOM     49  C   UNL     1     111.181 130.479 144.131  0.00  0.00    +0.000 C 
BRANCH  48  52
ATOM     50  O   UNL     1     112.835 132.074 142.746  0.00  0.00    +0.000 OA
ATOM     51  O   UNL     1     111.599 132.782 142.861  0.00  0.00    +0.000 OA
ATOM     52  C   UNL     1     112.099 132.173 143.105  0.00  0.00    +0.000 C 
ENDBRANCH  48  52
ENDBRANCH  40  49
ENDBRANCH  34  40
ENDBRANCH  12  35
TORSDOF 7
ENDMDL
MODEL 5
REMARK VINA RESULT:     -10.8      7.641     10.134
REMARK  Name = 131833703
REMARK  7 active torsions:
REMARK  status: ('A' for Active; 'I' for Inactive)
REMARK    1  A    between atoms: O_1  and  C_20
REMARK    2  A    between atoms: O_1  and  C_21
REMARK    3  A    between atoms: O_10  and  C_39
REMARK    4  A    between atoms: O_10  and  C_47
REMARK    5  A    between atoms: C_25  and  C_30
REMARK    6  A    between atoms: C_38  and  C_44
REMARK    7  A    between atoms: C_45  and  C_48
REMARK                            x       y       z     vdW  Elec       q    Type
REMARK                         _______ _______ _______ _____ _____    ______ ____
ROOT
ATOM      1  O   UNL     1     106.429 125.447 145.294  0.00  0.00    +0.000 OA
ATOM      2  O   UNL     1     105.306 127.180 147.269  0.00  0.00    +0.000 OA
ATOM      3  O   UNL     1     105.388 128.034 144.519  0.00  0.00    +0.000 OA
ATOM      4  O   UNL     1     106.489 125.838 143.906  0.00  0.00    +0.000 OA
ATOM      5  C   UNL     1     105.867 126.314 146.281  0.00  0.00    +0.000 A 
ATOM      6  C   UNL     1     106.071 126.162 145.496  0.00  0.00    +0.000 A 
ATOM      7  C   UNL     1     105.508 127.029 146.484  0.00  0.00    +0.000 A 
ATOM      8  C   UNL     1     105.914 126.725 144.913  0.00  0.00    +0.000 A 
ATOM      9  C   UNL     1     105.353 127.591 145.901  0.00  0.00    +0.000 A 
ATOM     10  C   UNL     1     105.556 127.440 145.116  0.00  0.00    +0.000 A 
ATOM     11  C   UNL     1     106.131 126.555 144.100  0.00  0.00    +0.000 A 
ATOM     12  C   UNL     1     105.597 127.882 143.699  0.00  0.00    +0.000 A 
ATOM     13  C   UNL     1     105.971 127.137 143.488  0.00  0.00    +0.000 A 
ENDROOT
BRANCH   5  18
ATOM     14  O   UNL     1     106.793 125.645 147.141  0.00  0.00    +0.000 OA
ATOM     15  O   UNL     1     104.950 124.272 148.058  0.00  0.00    +0.000 OA
ATOM     16  O   UNL     1     106.490 124.062 148.611  0.00  0.00    +0.000 OA
ATOM     17  C   UNL     1     105.409 125.293 147.169  0.00  0.00    +0.000 C 
ATOM     18  C   UNL     1     106.023 125.750 146.864  0.00  0.00    +0.000 C 
ATOM     19  C   UNL     1     105.565 124.729 147.752  0.00  0.00    +0.000 C 
ATOM     20  C   UNL     1     106.949 125.083 147.723  0.00  0.00    +0.000 C 
ATOM     21  C   UNL     1     106.335 124.624 148.029  0.00  0.00    +0.000 C 
ATOM     22  C   UNL     1     107.719 124.978 148.000  0.00  0.00    +0.000 C 
BRANCH  17  23
ATOM     23  O   UNL     1     104.639 125.398 146.893  0.00  0.00    +0.000 OA
BRANCH  23  28
ATOM     24  O   UNL     1     104.534 124.158 146.190  0.00  0.00    +0.000 OA
ATOM     25  O   UNL     1     103.062 125.266 147.361  0.00  0.00    +0.000 OA
ATOM     26  O   UNL     1     102.169 123.960 146.893  0.00  0.00    +0.000 OA
ATOM     27  O   UNL     1     102.852 122.786 145.955  0.00  0.00    +0.000 OA
ATOM     28  C   UNL     1     104.192 124.745 146.658  0.00  0.00    +0.000 C 
ATOM     29  C   UNL     1     103.404 124.679 146.892  0.00  0.00    +0.000 C 
ATOM     30  C   UNL     1     102.957 124.026 146.658  0.00  0.00    +0.000 C 
ATOM     31  C   UNL     1     103.299 123.440 146.190  0.00  0.00    +0.000 C 
ATOM     32  C   UNL     1     104.087 123.506 145.956  0.00  0.00    +0.000 C 
ATOM     33  C   UNL     1     104.429 122.918 145.487  0.00  0.00    +0.000 C 
ENDBRANCH  23  28
ENDBRANCH  17  23
ENDBRANCH   5  18
BRANCH  12  35
ATOM     34  C   UNL     1     105.125 129.575 141.957  0.00  0.00    +0.000 A 
ATOM     35  C   UNL     1     105.440 128.447 143.118  0.00  0.00    +0.000 A 
ATOM     36  C   UNL     1     105.731 129.703 142.502  0.00  0.00    +0.000 A 
ATOM     37  C   UNL     1     104.678 128.883 141.992  0.00  0.00    +0.000 A 
ATOM     38  C   UNL     1     105.889 129.138 143.083  0.00  0.00    +0.000 A 
ATOM     39  C   UNL     1     104.835 128.320 142.572  0.00  0.00    +0.000 A 
BRANCH  34  40
ATOM     40  O   UNL     1     104.968 130.140 141.376  0.00  0.00    +0.000 OA
BRANCH  40  49
ATOM     41  O   UNL     1     103.799 130.734 141.943  0.00  0.00    +0.000 OA
ATOM     42  O   UNL     1     104.658 132.981 141.359  0.00  0.00    +0.000 OA
ATOM     43  O   UNL     1     103.203 132.826 142.121  0.00  0.00    +0.000 OA
ATOM     44  O   UNL     1     105.540 131.637 140.987  0.00  0.00    +0.000 OA
ATOM     45  C   UNL     1     104.372 132.232 141.554  0.00  0.00    +0.000 C 
ATOM     46  C   UNL     1     103.644 132.154 141.935  0.00  0.00    +0.000 C 
ATOM     47  C   UNL     1     104.813 131.560 141.368  0.00  0.00    +0.000 C 
ATOM     48  C   UNL     1     103.357 131.406 142.130  0.00  0.00    +0.000 C 
ATOM     49  C   UNL     1     104.527 130.811 141.562  0.00  0.00    +0.000 C 
BRANCH  48  52
ATOM     50  O   UNL     1     101.943 131.216 142.068  0.00  0.00    +0.000 OA
ATOM     51  O   UNL     1     102.589 131.365 143.334  0.00  0.00    +0.000 OA
ATOM     52  C   UNL     1     102.629 131.329 142.510  0.00  0.00    +0.000 C 
ENDBRANCH  48  52
ENDBRANCH  40  49
ENDBRANCH  34  40
ENDBRANCH  12  35
TORSDOF 7
ENDMDL
MODEL 6
REMARK VINA RESULT:     -10.7      1.270      2.997
REMARK  Name = 131833703
REMARK  7 active torsions:
REMARK  status: ('A' for Active; 'I' for Inactive)
REMARK    1  A    between atoms: O_1  and  C_20
REMARK    2  A    between atoms: O_1  and  C_21
REMARK    3  A    between atoms: O_10  and  C_39
REMARK    4  A    between atoms: O_10  and  C_47
REMARK    5  A    between atoms: C_25  and  C_30
REMARK    6  A    between atoms: C_38  and  C_44
REMARK    7  A    between atoms: C_45  and  C_48
REMARK                            x       y       z     vdW  Elec       q    Type
REMARK                         _______ _______ _______ _____ _____    ______ ____
ROOT
ATOM      1  O   UNL     1     110.212 125.984 138.371  0.00  0.00    +0.000 OA
ATOM      2  O   UNL     1     110.955 128.465 137.162  0.00  0.00    +0.000 OA
ATOM      3  O   UNL     1     111.155 128.168 140.021  0.00  0.00    +0.000 OA
ATOM      4  O   UNL     1     110.298 125.795 139.799  0.00  0.00    +0.000 OA
ATOM      5  C   UNL     1     110.584 127.225 137.767  0.00  0.00    +0.000 A 
ATOM      6  C   UNL     1     110.491 126.757 138.440  0.00  0.00    +0.000 A 
ATOM      7  C   UNL     1     110.863 127.998 137.836  0.00  0.00    +0.000 A 
ATOM      8  C   UNL     1     110.678 127.064 139.184  0.00  0.00    +0.000 A 
ATOM      9  C   UNL     1     111.049 128.304 138.579  0.00  0.00    +0.000 A 
ATOM     10  C   UNL     1     110.957 127.837 139.253  0.00  0.00    +0.000 A 
ATOM     11  C   UNL     1     110.577 126.568 139.877  0.00  0.00    +0.000 A 
ATOM     12  C   UNL     1     111.060 127.686 140.727  0.00  0.00    +0.000 A 
ATOM     13  C   UNL     1     110.770 126.880 140.654  0.00  0.00    +0.000 A 
ENDROOT
BRANCH   5  18
ATOM     14  O   UNL     1     109.612 126.902 136.769  0.00  0.00    +0.000 OA
ATOM     15  O   UNL     1     111.407 126.032 135.304  0.00  0.00    +0.000 OA
ATOM     16  O   UNL     1     109.838 125.999 134.795  0.00  0.00    +0.000 OA
ATOM     17  C   UNL     1     110.995 126.628 136.535  0.00  0.00    +0.000 C 
ATOM     18  C   UNL     1     110.397 126.918 137.023  0.00  0.00    +0.000 C 
ATOM     19  C   UNL     1     110.809 126.322 135.792  0.00  0.00    +0.000 C 
ATOM     20  C   UNL     1     109.426 126.596 136.026  0.00  0.00    +0.000 C 
ATOM     21  C   UNL     1     110.024 126.305 135.537  0.00  0.00    +0.000 C 
ATOM     22  C   UNL     1     108.641 126.579 135.772  0.00  0.00    +0.000 C 
BRANCH  17  23
ATOM     23  O   UNL     1     111.780 126.645 136.790  0.00  0.00    +0.000 OA
BRANCH  23  28
ATOM     24  O   UNL     1     111.895 125.224 136.884  0.00  0.00    +0.000 OA
ATOM     25  O   UNL     1     113.391 126.752 136.451  0.00  0.00    +0.000 OA
ATOM     26  O   UNL     1     114.312 125.385 136.376  0.00  0.00    +0.000 OA
ATOM     27  O   UNL     1     113.620 123.910 136.639  0.00  0.00    +0.000 OA
ATOM     28  C   UNL     1     112.240 125.961 136.752  0.00  0.00    +0.000 C 
ATOM     29  C   UNL     1     113.045 126.014 136.583  0.00  0.00    +0.000 C 
ATOM     30  C   UNL     1     113.506 125.331 136.545  0.00  0.00    +0.000 C 
ATOM     31  C   UNL     1     113.160 124.594 136.677  0.00  0.00    +0.000 C 
ATOM     32  C   UNL     1     112.354 124.540 136.846  0.00  0.00    +0.000 C 
ATOM     33  C   UNL     1     112.009 123.802 136.978  0.00  0.00    +0.000 C 
ENDBRANCH  23  28
ENDBRANCH  17  23
ENDBRANCH   5  18
BRANCH  12  35
ATOM     34  C   UNL     1     111.621 128.612 142.952  0.00  0.00    +0.000 A 
ATOM     35  C   UNL     1     111.248 127.995 141.468  0.00  0.00    +0.000 A 
ATOM     36  C   UNL     1     112.224 128.380 142.438  0.00  0.00    +0.000 A 
ATOM     37  C   UNL     1     110.832 128.535 142.724  0.00  0.00    +0.000 A 
ATOM     38  C   UNL     1     112.037 128.071 141.696  0.00  0.00    +0.000 A 
ATOM     39  C   UNL     1     110.646 128.227 141.982  0.00  0.00    +0.000 A 
BRANCH  34  40
ATOM     40  O   UNL     1     111.808 128.921 143.694  0.00  0.00    +0.000 OA
BRANCH  40  49
ATOM     41  O   UNL     1     111.936 130.267 143.230  0.00  0.00    +0.000 OA
ATOM     42  O   UNL     1     111.189 131.097 145.440  0.00  0.00    +0.000 OA
ATOM     43  O   UNL     1     111.565 132.166 144.240  0.00  0.00    +0.000 OA
ATOM     44  O   UNL     1     111.311 129.475 145.166  0.00  0.00    +0.000 OA
ATOM     45  C   UNL     1     111.438 130.820 144.704  0.00  0.00    +0.000 C 
ATOM     46  C   UNL     1     111.626 131.354 144.104  0.00  0.00    +0.000 C 
ATOM     47  C   UNL     1     111.499 130.009 144.566  0.00  0.00    +0.000 C 
ATOM     48  C   UNL     1     111.875 131.079 143.367  0.00  0.00    +0.000 C 
ATOM     49  C   UNL     1     111.748 129.732 143.830  0.00  0.00    +0.000 C 
BRANCH  48  52
ATOM     50  O   UNL     1     112.849 131.820 142.632  0.00  0.00    +0.000 OA
ATOM     51  O   UNL     1     111.464 131.940 142.304  0.00  0.00    +0.000 OA
ATOM     52  C   UNL     1     112.063 131.613 142.768  0.00  0.00    +0.000 C 
ENDBRANCH  48  52
ENDBRANCH  40  49
ENDBRANCH  34  40
ENDBRANCH  12  35
TORSDOF 7
ENDMDL
MODEL 7
REMARK VINA RESULT:     -10.6      3.263      4.334
REMARK  Name = 131833703
REMARK  7 active torsions:
REMARK  status: ('A' for Active; 'I' for Inactive)
REMARK    1  A    between atoms: O_1  and  C_20
REMARK    2  A    between atoms: O_1  and  C_21
REMARK    3  A    between atoms: O_10  and  C_39
REMARK    4  A    between atoms: O_10  and  C_47
REMARK    5  A    between atoms: C_25  and  C_30
REMARK    6  A    between atoms: C_38  and  C_44
REMARK    7  A    between atoms: C_45  and  C_48
REMARK                            x       y       z     vdW  Elec       q    Type
REMARK                         _______ _______ _______ _____ _____    ______ ____
ROOT
ATOM      1  O   UNL     1     111.032 128.591 137.680  0.00  0.00    +0.000 OA
ATOM      2  O   UNL     1     113.191 127.300 139.036  0.00  0.00    +0.000 OA
ATOM      3  O   UNL     1     110.678 127.663 140.398  0.00  0.00    +0.000 OA
ATOM      4  O   UNL     1     109.758 128.792 138.327  0.00  0.00    +0.000 OA
ATOM      5  C   UNL     1     112.111 127.945 138.358  0.00  0.00    +0.000 A 
ATOM      6  C   UNL     1     111.334 128.223 138.353  0.00  0.00    +0.000 A 
ATOM      7  C   UNL     1     112.414 127.577 139.032  0.00  0.00    +0.000 A 
ATOM      8  C   UNL     1     110.859 128.132 139.022  0.00  0.00    +0.000 A 
ATOM      9  C   UNL     1     111.939 127.486 139.700  0.00  0.00    +0.000 A 
ATOM     10  C   UNL     1     111.162 127.764 139.696  0.00  0.00    +0.000 A 
ATOM     11  C   UNL     1     110.052 128.425 139.005  0.00  0.00    +0.000 A 
ATOM     12  C   UNL     1     109.868 127.950 140.400  0.00  0.00    +0.000 A 
ATOM     13  C   UNL     1     109.552 128.333 139.698  0.00  0.00    +0.000 A 
ENDROOT
BRANCH   5  18
ATOM     14  O   UNL     1     112.922 128.770 137.518  0.00  0.00    +0.000 OA
ATOM     15  O   UNL     1     113.336 126.841 136.024  0.00  0.00    +0.000 OA
ATOM     16  O   UNL     1     114.008 128.309 135.682  0.00  0.00    +0.000 OA
ATOM     17  C   UNL     1     112.723 127.393 137.191  0.00  0.00    +0.000 C 
ATOM     18  C   UNL     1     112.586 128.036 137.689  0.00  0.00    +0.000 C 
ATOM     19  C   UNL     1     113.198 127.484 136.522  0.00  0.00    +0.000 C 
ATOM     20  C   UNL     1     113.396 128.861 136.850  0.00  0.00    +0.000 C 
ATOM     21  C   UNL     1     113.534 128.218 136.351  0.00  0.00    +0.000 C 
ATOM     22  C   UNL     1     113.732 129.595 136.679  0.00  0.00    +0.000 C 
BRANCH  17  23
ATOM     23  O   UNL     1     112.387 126.659 137.362  0.00  0.00    +0.000 OA
BRANCH  23  28
ATOM     24  O   UNL     1     111.484 126.699 136.256  0.00  0.00    +0.000 OA
ATOM     25  O   UNL     1     112.408 125.011 137.286  0.00  0.00    +0.000 OA
ATOM     26  O   UNL     1     111.515 124.227 136.142  0.00  0.00    +0.000 OA
ATOM     27  O   UNL     1     110.601 125.090 135.073  0.00  0.00    +0.000 OA
ATOM     28  C   UNL     1     111.940 126.268 136.789  0.00  0.00    +0.000 C 
ATOM     29  C   UNL     1     111.951 125.443 136.752  0.00  0.00    +0.000 C 
ATOM     30  C   UNL     1     111.505 125.051 136.180  0.00  0.00    +0.000 C 
ATOM     31  C   UNL     1     111.048 125.483 135.646  0.00  0.00    +0.000 C 
ATOM     32  C   UNL     1     111.038 126.307 135.684  0.00  0.00    +0.000 C 
ATOM     33  C   UNL     1     110.580 126.738 135.149  0.00  0.00    +0.000 C 
ENDBRANCH  23  28
ENDBRANCH  17  23
ENDBRANCH   5  18
BRANCH  12  35
ATOM     34  C   UNL     1     108.451 127.672 142.410  0.00  0.00    +0.000 A 
ATOM     35  C   UNL     1     109.396 127.857 141.070  0.00  0.00    +0.000 A 
ATOM     36  C   UNL     1     108.876 128.370 142.299  0.00  0.00    +0.000 A 
ATOM     37  C   UNL     1     108.498 127.067 141.851  0.00  0.00    +0.000 A 
ATOM     38  C   UNL     1     109.349 128.463 141.629  0.00  0.00    +0.000 A 
ATOM     39  C   UNL     1     108.970 127.160 141.182  0.00  0.00    +0.000 A 
BRANCH  34  40
ATOM     40  O   UNL     1     107.979 127.580 143.080  0.00  0.00    +0.000 OA
BRANCH  40  49
ATOM     41  O   UNL     1     106.815 128.239 142.578  0.00  0.00    +0.000 OA
ATOM     42  O   UNL     1     105.381 126.565 143.703  0.00  0.00    +0.000 OA
ATOM     43  O   UNL     1     104.695 127.783 142.826  0.00  0.00    +0.000 OA
ATOM     44  O   UNL     1     107.022 126.464 143.830  0.00  0.00    +0.000 OA
ATOM     45  C   UNL     1     105.859 127.123 143.328  0.00  0.00    +0.000 C 
ATOM     46  C   UNL     1     105.516 127.732 142.890  0.00  0.00    +0.000 C 
ATOM     47  C   UNL     1     106.680 127.073 143.391  0.00  0.00    +0.000 C 
ATOM     48  C   UNL     1     105.993 128.290 142.514  0.00  0.00    +0.000 C 
ATOM     49  C   UNL     1     107.158 127.630 143.016  0.00  0.00    +0.000 C 
BRANCH  48  52
ATOM     50  O   UNL     1     105.451 128.774 141.285  0.00  0.00    +0.000 OA
ATOM     51  O   UNL     1     105.507 129.631 142.428  0.00  0.00    +0.000 OA
ATOM     52  C   UNL     1     105.650 128.899 142.075  0.00  0.00    +0.000 C 
ENDBRANCH  48  52
ENDBRANCH  40  49
ENDBRANCH  34  40
ENDBRANCH  12  35
TORSDOF 7
ENDMDL
MODEL 8
REMARK VINA RESULT:     -10.6      3.385      5.423
REMARK  Name = 131833703
REMARK  7 active torsions:
REMARK  status: ('A' for Active; 'I' for Inactive)
REMARK    1  A    between atoms: O_1  and  C_20
REMARK    2  A    between atoms: O_1  and  C_21
REMARK    3  A    between atoms: O_10  and  C_39
REMARK    4  A    between atoms: O_10  and  C_47
REMARK    5  A    between atoms: C_25  and  C_30
REMARK    6  A    between atoms: C_38  and  C_44
REMARK    7  A    between atoms: C_45  and  C_48
REMARK                            x       y       z     vdW  Elec       q    Type
REMARK                         _______ _______ _______ _____ _____    ______ ____
ROOT
ATOM      1  O   UNL     1     112.759 126.586 139.044  0.00  0.00    +0.000 OA
ATOM      2  O   UNL     1     111.496 125.218 136.876  0.00  0.00    +0.000 OA
ATOM      3  O   UNL     1     110.000 125.745 139.281  0.00  0.00    +0.000 OA
ATOM      4  O   UNL     1     112.044 126.869 140.265  0.00  0.00    +0.000 OA
ATOM      5  C   UNL     1     112.127 125.902 137.960  0.00  0.00    +0.000 A 
ATOM      6  C   UNL     1     112.095 126.219 138.721  0.00  0.00    +0.000 A 
ATOM      7  C   UNL     1     111.462 125.535 137.637  0.00  0.00    +0.000 A 
ATOM      8  C   UNL     1     111.397 126.170 139.159  0.00  0.00    +0.000 A 
ATOM      9  C   UNL     1     110.766 125.486 138.075  0.00  0.00    +0.000 A 
ATOM     10  C   UNL     1     110.732 125.803 138.836  0.00  0.00    +0.000 A 
ATOM     11  C   UNL     1     111.375 126.504 139.950  0.00  0.00    +0.000 A 
ATOM     12  C   UNL     1     109.959 126.074 140.075  0.00  0.00    +0.000 A 
ATOM     13  C   UNL     1     110.652 126.456 140.411  0.00  0.00    +0.000 A 
ENDROOT
BRANCH   5  18
ATOM     14  O   UNL     1     113.449 125.436 137.681  0.00  0.00    +0.000 OA
ATOM     15  O   UNL     1     113.669 127.131 135.892  0.00  0.00    +0.000 OA
ATOM     16  O   UNL     1     114.917 126.100 136.210  0.00  0.00    +0.000 OA
ATOM     17  C   UNL     1     112.898 126.517 136.926  0.00  0.00    +0.000 C 
ATOM     18  C   UNL     1     112.825 125.951 137.522  0.00  0.00    +0.000 C 
ATOM     19  C   UNL     1     113.596 126.566 136.488  0.00  0.00    +0.000 C 
ATOM     20  C   UNL     1     114.146 125.485 137.244  0.00  0.00    +0.000 C 
ATOM     21  C   UNL     1     114.221 126.050 136.647  0.00  0.00    +0.000 C 
ATOM     22  C   UNL     1     114.770 124.969 137.403  0.00  0.00    +0.000 C 
BRANCH  17  23
ATOM     23  O   UNL     1     112.274 127.032 136.768  0.00  0.00    +0.000 OA
BRANCH  23  28
ATOM     24  O   UNL     1     112.932 128.208 137.243  0.00  0.00    +0.000 OA
ATOM     25  O   UNL     1     111.513 127.927 135.609  0.00  0.00    +0.000 OA
ATOM     26  O   UNL     1     111.791 129.550 135.505  0.00  0.00    +0.000 OA
ATOM     27  O   UNL     1     112.829 130.279 136.561  0.00  0.00    +0.000 OA
ATOM     28  C   UNL     1     112.413 127.844 136.716  0.00  0.00    +0.000 C 
ATOM     29  C   UNL     1     112.033 128.292 136.137  0.00  0.00    +0.000 C 
ATOM     30  C   UNL     1     112.171 129.103 136.085  0.00  0.00    +0.000 C 
ATOM     31  C   UNL     1     112.690 129.467 136.612  0.00  0.00    +0.000 C 
ATOM     32  C   UNL     1     113.071 129.019 137.192  0.00  0.00    +0.000 C 
ATOM     33  C   UNL     1     113.590 129.384 137.719  0.00  0.00    +0.000 C 
ENDBRANCH  23  28
ENDBRANCH  17  23
ENDBRANCH   5  18
BRANCH  12  35
ATOM     34  C   UNL     1     107.863 125.923 141.381  0.00  0.00    +0.000 A 
ATOM     35  C   UNL     1     109.260 126.023 140.510  0.00  0.00    +0.000 A 
ATOM     36  C   UNL     1     108.339 125.256 141.287  0.00  0.00    +0.000 A 
ATOM     37  C   UNL     1     108.085 126.640 141.039  0.00  0.00    +0.000 A 
ATOM     38  C   UNL     1     109.038 125.306 140.852  0.00  0.00    +0.000 A 
ATOM     39  C   UNL     1     108.784 126.690 140.604  0.00  0.00    +0.000 A 
BRANCH  34  40
ATOM     40  O   UNL     1     107.164 125.873 141.816  0.00  0.00    +0.000 OA
BRANCH  40  49
ATOM     41  O   UNL     1     106.269 125.523 140.758  0.00  0.00    +0.000 OA
ATOM     42  O   UNL     1     105.171 123.868 142.235  0.00  0.00    +0.000 OA
ATOM     43  O   UNL     1     104.642 124.070 140.686  0.00  0.00    +0.000 OA
ATOM     44  O   UNL     1     106.431 124.769 142.800  0.00  0.00    +0.000 OA
ATOM     45  C   UNL     1     105.537 124.420 141.743  0.00  0.00    +0.000 C 
ATOM     46  C   UNL     1     105.272 124.521 140.968  0.00  0.00    +0.000 C 
ATOM     47  C   UNL     1     106.167 124.870 142.025  0.00  0.00    +0.000 C 
ATOM     48  C   UNL     1     105.637 125.072 140.476  0.00  0.00    +0.000 C 
ATOM     49  C   UNL     1     106.533 125.422 141.533  0.00  0.00    +0.000 C 
BRANCH  48  52
ATOM     50  O   UNL     1     105.663 124.688 139.100  0.00  0.00    +0.000 OA
ATOM     51  O   UNL     1     104.819 125.759 139.527  0.00  0.00    +0.000 OA
ATOM     52  C   UNL     1     105.373 125.173 139.701  0.00  0.00    +0.000 C 
ENDBRANCH  48  52
ENDBRANCH  40  49
ENDBRANCH  34  40
ENDBRANCH  12  35
TORSDOF 7
ENDMDL
MODEL 9
REMARK VINA RESULT:     -10.6      2.012      3.062
REMARK  Name = 131833703
REMARK  7 active torsions:
REMARK  status: ('A' for Active; 'I' for Inactive)
REMARK    1  A    between atoms: O_1  and  C_20
REMARK    2  A    between atoms: O_1  and  C_21
REMARK    3  A    between atoms: O_10  and  C_39
REMARK    4  A    between atoms: O_10  and  C_47
REMARK    5  A    between atoms: C_25  and  C_30
REMARK    6  A    between atoms: C_38  and  C_44
REMARK    7  A    between atoms: C_45  and  C_48
REMARK                            x       y       z     vdW  Elec       q    Type
REMARK                         _______ _______ _______ _____ _____    ______ ____
ROOT
ATOM      1  O   UNL     1     111.947 127.959 137.928  0.00  0.00    +0.000 OA
ATOM      2  O   UNL     1     112.253 130.798 137.808  0.00  0.00    +0.000 OA
ATOM      3  O   UNL     1     111.719 129.537 140.343  0.00  0.00    +0.000 OA
ATOM      4  O   UNL     1     111.679 127.289 139.178  0.00  0.00    +0.000 OA
ATOM      5  C   UNL     1     112.100 129.378 137.868  0.00  0.00    +0.000 A 
ATOM      6  C   UNL     1     111.960 128.692 138.305  0.00  0.00    +0.000 A 
ATOM      7  C   UNL     1     112.113 130.112 138.245  0.00  0.00    +0.000 A 
ATOM      8  C   UNL     1     111.835 128.740 139.119  0.00  0.00    +0.000 A 
ATOM      9  C   UNL     1     111.988 130.160 139.059  0.00  0.00    +0.000 A 
ATOM     10  C   UNL     1     111.848 129.474 139.496  0.00  0.00    +0.000 A 
ATOM     11  C   UNL     1     111.691 128.019 139.563  0.00  0.00    +0.000 A 
ATOM     12  C   UNL     1     111.573 128.826 140.804  0.00  0.00    +0.000 A 
ATOM     13  C   UNL     1     111.559 128.061 140.411  0.00  0.00    +0.000 A 
ENDROOT
BRANCH   5  18
ATOM     14  O   UNL     1     112.955 129.077 136.763  0.00  0.00    +0.000 OA
ATOM     15  O   UNL     1     111.143 129.693 135.194  0.00  0.00    +0.000 OA
ATOM     16  O   UNL     1     112.602 129.187 134.612  0.00  0.00    +0.000 OA
ATOM     17  C   UNL     1     111.621 129.536 136.531  0.00  0.00    +0.000 C 
ATOM     18  C   UNL     1     112.225 129.330 137.054  0.00  0.00    +0.000 C 
ATOM     19  C   UNL     1     111.747 129.488 135.716  0.00  0.00    +0.000 C 
ATOM     20  C   UNL     1     113.080 129.029 135.950  0.00  0.00    +0.000 C 
ATOM     21  C   UNL     1     112.476 129.234 135.426  0.00  0.00    +0.000 C 
ATOM     22  C   UNL     1     113.809 128.776 135.659  0.00  0.00    +0.000 C 
BRANCH  17  23
ATOM     23  O   UNL     1     110.892 129.789 136.822  0.00  0.00    +0.000 OA
BRANCH  23  28
ATOM     24  O   UNL     1     110.157 128.632 136.417  0.00  0.00    +0.000 OA
ATOM     25  O   UNL     1     109.576 130.734 136.512  0.00  0.00    +0.000 OA
ATOM     26  O   UNL     1     108.182 130.050 135.952  0.00  0.00    +0.000 OA
ATOM     27  O   UNL     1     108.105 128.421 135.702  0.00  0.00    +0.000 OA
ATOM     28  C   UNL     1     110.195 129.446 136.542  0.00  0.00    +0.000 C 
ATOM     29  C   UNL     1     109.537 129.919 136.387  0.00  0.00    +0.000 C 
ATOM     30  C   UNL     1     108.840 129.578 136.107  0.00  0.00    +0.000 C 
ATOM     31  C   UNL     1     108.802 128.763 135.982  0.00  0.00    +0.000 C 
ATOM     32  C   UNL     1     109.461 128.290 136.137  0.00  0.00    +0.000 C 
ATOM     33  C   UNL     1     109.421 127.476 136.012  0.00  0.00    +0.000 C 
ENDBRANCH  23  28
ENDBRANCH  17  23
ENDBRANCH   5  18
BRANCH  12  35
ATOM     34  C   UNL     1     111.199 128.978 143.245  0.00  0.00    +0.000 A 
ATOM     35  C   UNL     1     111.448 128.877 141.618  0.00  0.00    +0.000 A 
ATOM     36  C   UNL     1     110.558 129.019 142.727  0.00  0.00    +0.000 A 
ATOM     37  C   UNL     1     111.963 128.886 142.950  0.00  0.00    +0.000 A 
ATOM     38  C   UNL     1     110.683 128.969 141.913  0.00  0.00    +0.000 A 
ATOM     39  C   UNL     1     112.088 128.835 142.137  0.00  0.00    +0.000 A 
BRANCH  34  40
ATOM     40  O   UNL     1     111.073 129.029 144.059  0.00  0.00    +0.000 OA
BRANCH  40  49
ATOM     41  O   UNL     1     110.903 130.443 144.170  0.00  0.00    +0.000 OA
ATOM     42  O   UNL     1     112.293 130.450 146.218  0.00  0.00    +0.000 OA
ATOM     43  O   UNL     1     111.659 131.862 145.646  0.00  0.00    +0.000 OA
ATOM     44  O   UNL     1     112.000 129.034 145.425  0.00  0.00    +0.000 OA
ATOM     45  C   UNL     1     111.830 130.448 145.535  0.00  0.00    +0.000 C 
ATOM     46  C   UNL     1     111.513 131.153 145.249  0.00  0.00    +0.000 C 
ATOM     47  C   UNL     1     111.683 129.740 145.138  0.00  0.00    +0.000 C 
ATOM     48  C   UNL     1     111.049 131.152 144.567  0.00  0.00    +0.000 C 
ATOM     49  C   UNL     1     111.220 129.737 144.456  0.00  0.00    +0.000 C 
BRANCH  48  52
ATOM     50  O   UNL     1     109.981 132.098 144.520  0.00  0.00    +0.000 OA
ATOM     51  O   UNL     1     111.168 132.323 143.757  0.00  0.00    +0.000 OA
ATOM     52  C   UNL     1     110.733 131.858 144.281  0.00  0.00    +0.000 C 
ENDBRANCH  48  52
ENDBRANCH  40  49
ENDBRANCH  34  40
ENDBRANCH  12  35
TORSDOF 7
ENDMDL
