MODEL 1
REMARK VINA RESULT:      -9.1      0.000      0.000
REMARK  Name = 131831912
REMARK  3 active torsions:
REMARK  status: ('A' for Active; 'I' for Inactive)
REMARK    1  A    between atoms: S_1  and  O_3
REMARK    2  A    between atoms: O_3  and  C_11
REMARK    3  A    between atoms: C_10  and  C_13
REMARK                            x       y       z     vdW  Elec       q    Type
REMARK                         _______ _______ _______ _____ _____    ______ ____
ROOT
ATOM      1  O   UNL     1     105.607 124.413 147.736  0.00  0.00    +0.000 OA
ATOM      2  O   UNL     1     107.024 125.507 146.026  0.00  0.00    +0.000 OA
ATOM      3  O   UNL     1     108.148 125.525 146.929  0.00  0.00    +0.000 OA
ATOM      4  O   UNL     1     107.834 124.415 149.611  0.00  0.00    +0.000 OA
ATOM      5  C   UNL     1     105.293 124.593 146.994  0.00  0.00    +0.000 C 
ATOM      6  C   UNL     1     105.765 124.958 146.424  0.00  0.00    +0.000 C 
ATOM      7  C   UNL     1     106.551 125.143 146.596  0.00  0.00    +0.000 C 
ATOM      8  C   UNL     1     106.864 124.963 147.338  0.00  0.00    +0.000 A 
ATOM      9  C   UNL     1     106.392 124.598 147.908  0.00  0.00    +0.000 A 
ATOM     10  C   UNL     1     107.684 125.160 147.505  0.00  0.00    +0.000 A 
ATOM     11  C   UNL     1     106.707 124.406 148.684  0.00  0.00    +0.000 A 
ATOM     12  C   UNL     1     108.016 124.976 148.275  0.00  0.00    +0.000 A 
ATOM     13  C   UNL     1     107.524 124.596 148.869  0.00  0.00    +0.000 A 
ENDROOT
BRANCH   5  14
ATOM     14  C   UNL     1     104.508 124.408 146.822  0.00  0.00    +0.000 A 
ATOM     15  C   UNL     1     103.908 124.946 147.001  0.00  0.00    +0.000 A 
ATOM     16  C   UNL     1     104.322 123.685 146.470  0.00  0.00    +0.000 A 
ATOM     17  C   UNL     1     103.124 124.761 146.829  0.00  0.00    +0.000 A 
ATOM     18  C   UNL     1     103.536 123.500 146.298  0.00  0.00    +0.000 A 
ATOM     19  C   UNL     1     102.937 124.038 146.477  0.00  0.00    +0.000 A 
ENDBRANCH   5  14
BRANCH   6  20
ATOM     20  O   UNL     1     105.453 125.138 145.682  0.00  0.00    +0.000 OA
BRANCH  20  21
ATOM     21  S   UNL     1     105.953 125.371 145.069  0.00  0.00    +0.000 S 
ATOM     22  O   UNL     1     106.453 125.603 144.455  0.00  0.00    +0.000 OA
ATOM     23  O   UNL     1     106.129 124.580 144.913  0.00  0.00    +0.000 OA
ATOM     24  O   UNL     1     105.776 126.161 145.225  0.00  0.00    +0.000 OA
ENDBRANCH  20  21
ENDBRANCH   6  20
TORSDOF 3
ENDMDL
MODEL 2
REMARK VINA RESULT:      -8.5      7.139      8.165
REMARK  Name = 131831912
REMARK  3 active torsions:
REMARK  status: ('A' for Active; 'I' for Inactive)
REMARK    1  A    between atoms: S_1  and  O_3
REMARK    2  A    between atoms: O_3  and  C_11
REMARK    3  A    between atoms: C_10  and  C_13
REMARK                            x       y       z     vdW  Elec       q    Type
REMARK                         _______ _______ _______ _____ _____    ______ ____
ROOT
ATOM      1  O   UNL     1     103.316 130.251 142.370  0.00  0.00    +0.000 OA
ATOM      2  O   UNL     1     103.250 128.775 140.384  0.00  0.00    +0.000 OA
ATOM      3  O   UNL     1     104.242 127.904 140.963  0.00  0.00    +0.000 OA
ATOM      4  O   UNL     1     105.321 128.537 143.602  0.00  0.00    +0.000 OA
ATOM      5  C   UNL     1     102.812 130.429 141.740  0.00  0.00    +0.000 C 
ATOM      6  C   UNL     1     102.790 129.937 141.078  0.00  0.00    +0.000 C 
ATOM      7  C   UNL     1     103.272 129.267 141.046  0.00  0.00    +0.000 C 
ATOM      8  C   UNL     1     103.775 129.090 141.675  0.00  0.00    +0.000 A 
ATOM      9  C   UNL     1     103.796 129.582 142.337  0.00  0.00    +0.000 A 
ATOM     10  C   UNL     1     104.271 128.390 141.630  0.00  0.00    +0.000 A 
ATOM     11  C   UNL     1     104.316 129.407 142.999  0.00  0.00    +0.000 A 
ATOM     12  C   UNL     1     104.797 128.199 142.281  0.00  0.00    +0.000 A 
ATOM     13  C   UNL     1     104.819 128.712 142.971  0.00  0.00    +0.000 A 
ENDROOT
BRANCH   5  14
ATOM     14  C   UNL     1     102.331 131.098 141.773  0.00  0.00    +0.000 A 
ATOM     15  C   UNL     1     102.632 131.834 141.552  0.00  0.00    +0.000 A 
ATOM     16  C   UNL     1     101.549 131.031 142.026  0.00  0.00    +0.000 A 
ATOM     17  C   UNL     1     102.151 132.503 141.584  0.00  0.00    +0.000 A 
ATOM     18  C   UNL     1     101.067 131.701 142.059  0.00  0.00    +0.000 A 
ATOM     19  C   UNL     1     101.369 132.436 141.838  0.00  0.00    +0.000 A 
ENDBRANCH   5  14
BRANCH   6  20
ATOM     20  O   UNL     1     102.288 130.114 140.449  0.00  0.00    +0.000 OA
BRANCH  20  21
ATOM     21  S   UNL     1     102.397 129.748 139.717  0.00  0.00    +0.000 S 
ATOM     22  O   UNL     1     102.507 129.383 138.986  0.00  0.00    +0.000 OA
ATOM     23  O   UNL     1     101.817 129.194 139.908  0.00  0.00    +0.000 OA
ATOM     24  O   UNL     1     102.978 130.303 139.527  0.00  0.00    +0.000 OA
ENDBRANCH  20  21
ENDBRANCH   6  20
TORSDOF 3
ENDMDL
MODEL 3
REMARK VINA RESULT:      -8.5     12.266     13.082
REMARK  Name = 131831912
REMARK  3 active torsions:
REMARK  status: ('A' for Active; 'I' for Inactive)
REMARK    1  A    between atoms: S_1  and  O_3
REMARK    2  A    between atoms: O_3  and  C_11
REMARK    3  A    between atoms: C_10  and  C_13
REMARK                            x       y       z     vdW  Elec       q    Type
REMARK                         _______ _______ _______ _____ _____    ______ ____
ROOT
ATOM      1  O   UNL     1     112.120 125.675 136.105  0.00  0.00    +0.000 OA
ATOM      2  O   UNL     1     112.020 128.146 136.023  0.00  0.00    +0.000 OA
ATOM      3  O   UNL     1     110.749 128.100 135.343  0.00  0.00    +0.000 OA
ATOM      4  O   UNL     1     109.556 125.505 134.734  0.00  0.00    +0.000 OA
ATOM      5  C   UNL     1     112.733 126.123 136.429  0.00  0.00    +0.000 C 
ATOM      6  C   UNL     1     112.699 126.947 136.401  0.00  0.00    +0.000 C 
ATOM      7  C   UNL     1     112.053 127.322 136.050  0.00  0.00    +0.000 C 
ATOM      8  C   UNL     1     111.441 126.873 135.728  0.00  0.00    +0.000 A 
ATOM      9  C   UNL     1     111.474 126.049 135.755  0.00  0.00    +0.000 A 
ATOM     10  C   UNL     1     110.773 127.276 135.365  0.00  0.00    +0.000 A 
ATOM     11  C   UNL     1     110.842 125.571 135.422  0.00  0.00    +0.000 A 
ATOM     12  C   UNL     1     110.133 126.815 135.028  0.00  0.00    +0.000 A 
ATOM     13  C   UNL     1     110.167 125.956 135.056  0.00  0.00    +0.000 A 
ENDROOT
BRANCH   5  14
ATOM     14  C   UNL     1     113.378 125.748 136.779  0.00  0.00    +0.000 A 
ATOM     15  C   UNL     1     113.399 125.638 137.596  0.00  0.00    +0.000 A 
ATOM     16  C   UNL     1     114.004 125.483 136.311  0.00  0.00    +0.000 A 
ATOM     17  C   UNL     1     114.044 125.263 137.946  0.00  0.00    +0.000 A 
ATOM     18  C   UNL     1     114.651 125.108 136.662  0.00  0.00    +0.000 A 
ATOM     19  C   UNL     1     114.670 124.998 137.479  0.00  0.00    +0.000 A 
ENDBRANCH   5  14
BRANCH   6  20
ATOM     20  O   UNL     1     113.312 127.396 136.724  0.00  0.00    +0.000 OA
BRANCH  20  21
ATOM     21  S   UNL     1     113.371 128.199 136.547  0.00  0.00    +0.000 S 
ATOM     22  O   UNL     1     113.431 129.003 136.371  0.00  0.00    +0.000 OA
ATOM     23  O   UNL     1     112.999 128.384 137.260  0.00  0.00    +0.000 OA
ATOM     24  O   UNL     1     113.744 128.015 135.835  0.00  0.00    +0.000 OA
ENDBRANCH  20  21
ENDBRANCH   6  20
TORSDOF 3
ENDMDL
MODEL 4
REMARK VINA RESULT:      -8.5      1.456      3.598
REMARK  Name = 131831912
REMARK  3 active torsions:
REMARK  status: ('A' for Active; 'I' for Inactive)
REMARK    1  A    between atoms: S_1  and  O_3
REMARK    2  A    between atoms: O_3  and  C_11
REMARK    3  A    between atoms: C_10  and  C_13
REMARK                            x       y       z     vdW  Elec       q    Type
REMARK                         _______ _______ _______ _____ _____    ______ ____
ROOT
ATOM      1  O   UNL     1     104.100 124.269 147.396  0.00  0.00    +0.000 OA
ATOM      2  O   UNL     1     104.413 123.839 144.979  0.00  0.00    +0.000 OA
ATOM      3  O   UNL     1     103.162 123.125 144.915  0.00  0.00    +0.000 OA
ATOM      4  O   UNL     1     101.564 122.839 147.343  0.00  0.00    +0.000 OA
ATOM      5  C   UNL     1     104.774 124.549 147.012  0.00  0.00    +0.000 C 
ATOM      6  C   UNL     1     104.879 124.406 146.206  0.00  0.00    +0.000 C 
ATOM      7  C   UNL     1     104.309 123.983 145.785  0.00  0.00    +0.000 C 
ATOM      8  C   UNL     1     103.635 123.703 146.170  0.00  0.00    +0.000 A 
ATOM      9  C   UNL     1     103.531 123.846 146.976  0.00  0.00    +0.000 A 
ATOM     10  C   UNL     1     103.049 123.263 145.721  0.00  0.00    +0.000 A 
ATOM     11  C   UNL     1     102.833 123.559 147.388  0.00  0.00    +0.000 A 
ATOM     12  C   UNL     1     102.345 122.969 146.115  0.00  0.00    +0.000 A 
ATOM     13  C   UNL     1     102.237 123.118 146.955  0.00  0.00    +0.000 A 
ENDROOT
BRANCH   5  14
ATOM     14  C   UNL     1     105.343 124.972 147.432  0.00  0.00    +0.000 A 
ATOM     15  C   UNL     1     106.005 124.585 147.737  0.00  0.00    +0.000 A 
ATOM     16  C   UNL     1     105.252 125.784 147.548  0.00  0.00    +0.000 A 
ATOM     17  C   UNL     1     106.574 125.008 148.157  0.00  0.00    +0.000 A 
ATOM     18  C   UNL     1     105.822 126.208 147.969  0.00  0.00    +0.000 A 
ATOM     19  C   UNL     1     106.482 125.820 148.273  0.00  0.00    +0.000 A 
ENDBRANCH   5  14
BRANCH   6  20
ATOM     20  O   UNL     1     105.552 124.686 145.821  0.00  0.00    +0.000 OA
BRANCH  20  21
ATOM     21  S   UNL     1     105.547 124.789 145.002  0.00  0.00    +0.000 S 
ATOM     22  O   UNL     1     105.541 124.891 144.183  0.00  0.00    +0.000 OA
ATOM     23  O   UNL     1     106.016 124.116 144.915  0.00  0.00    +0.000 OA
ATOM     24  O   UNL     1     105.078 125.462 145.089  0.00  0.00    +0.000 OA
ENDBRANCH  20  21
ENDBRANCH   6  20
TORSDOF 3
ENDMDL
MODEL 5
REMARK VINA RESULT:      -8.3      9.962     11.265
REMARK  Name = 131831912
REMARK  3 active torsions:
REMARK  status: ('A' for Active; 'I' for Inactive)
REMARK    1  A    between atoms: S_1  and  O_3
REMARK    2  A    between atoms: O_3  and  C_11
REMARK    3  A    between atoms: C_10  and  C_13
REMARK                            x       y       z     vdW  Elec       q    Type
REMARK                         _______ _______ _______ _____ _____    ______ ____
ROOT
ATOM      1  O   UNL     1     113.844 126.398 138.855  0.00  0.00    +0.000 OA
ATOM      2  O   UNL     1     111.463 125.745 139.039  0.00  0.00    +0.000 OA
ATOM      3  O   UNL     1     111.347 126.421 140.307  0.00  0.00    +0.000 OA
ATOM      4  O   UNL     1     113.682 127.785 141.410  0.00  0.00    +0.000 OA
ATOM      5  C   UNL     1     113.492 125.950 138.258  0.00  0.00    +0.000 C 
ATOM      6  C   UNL     1     112.699 125.732 138.319  0.00  0.00    +0.000 C 
ATOM      7  C   UNL     1     112.257 125.962 138.978  0.00  0.00    +0.000 C 
ATOM      8  C   UNL     1     112.610 126.410 139.574  0.00  0.00    +0.000 A 
ATOM      9  C   UNL     1     113.403 126.628 139.512  0.00  0.00    +0.000 A 
ATOM     10  C   UNL     1     112.140 126.644 140.255  0.00  0.00    +0.000 A 
ATOM     11  C   UNL     1     113.781 127.094 140.128  0.00  0.00    +0.000 A 
ATOM     12  C   UNL     1     112.500 127.110 140.879  0.00  0.00    +0.000 A 
ATOM     13  C   UNL     1     113.327 127.337 140.815  0.00  0.00    +0.000 A 
ENDROOT
BRANCH   5  14
ATOM     14  C   UNL     1     113.933 125.720 137.600  0.00  0.00    +0.000 A 
ATOM     15  C   UNL     1     113.997 126.222 136.949  0.00  0.00    +0.000 A 
ATOM     16  C   UNL     1     114.310 124.986 137.593  0.00  0.00    +0.000 A 
ATOM     17  C   UNL     1     114.437 125.992 136.291  0.00  0.00    +0.000 A 
ATOM     18  C   UNL     1     114.752 124.755 136.934  0.00  0.00    +0.000 A 
ATOM     19  C   UNL     1     114.815 125.259 136.284  0.00  0.00    +0.000 A 
ENDBRANCH   5  14
BRANCH   6  20
ATOM     20  O   UNL     1     112.346 125.284 137.723  0.00  0.00    +0.000 OA
BRANCH  20  21
ATOM     21  S   UNL     1     111.524 125.270 137.648  0.00  0.00    +0.000 S 
ATOM     22  O   UNL     1     110.703 125.256 137.573  0.00  0.00    +0.000 OA
ATOM     23  O   UNL     1     111.504 124.529 138.011  0.00  0.00    +0.000 OA
ATOM     24  O   UNL     1     111.545 126.011 137.285  0.00  0.00    +0.000 OA
ENDBRANCH  20  21
ENDBRANCH   6  20
TORSDOF 3
ENDMDL
MODEL 6
REMARK VINA RESULT:      -8.2      1.580      2.160
REMARK  Name = 131831912
REMARK  3 active torsions:
REMARK  status: ('A' for Active; 'I' for Inactive)
REMARK    1  A    between atoms: S_1  and  O_3
REMARK    2  A    between atoms: O_3  and  C_11
REMARK    3  A    between atoms: C_10  and  C_13
REMARK                            x       y       z     vdW  Elec       q    Type
REMARK                         _______ _______ _______ _____ _____    ______ ____
ROOT
ATOM      1  O   UNL     1     103.846 124.554 148.120  0.00  0.00    +0.000 OA
ATOM      2  O   UNL     1     105.292 124.155 146.151  0.00  0.00    +0.000 OA
ATOM      3  O   UNL     1     106.443 124.658 146.860  0.00  0.00    +0.000 OA
ATOM      4  O   UNL     1     106.126 125.583 149.611  0.00  0.00    +0.000 OA
ATOM      5  C   UNL     1     103.524 124.236 147.430  0.00  0.00    +0.000 C 
ATOM      6  C   UNL     1     104.006 124.103 146.774  0.00  0.00    +0.000 C 
ATOM      7  C   UNL     1     104.810 124.288 146.807  0.00  0.00    +0.000 C 
ATOM      8  C   UNL     1     105.130 124.606 147.498  0.00  0.00    +0.000 A 
ATOM      9  C   UNL     1     104.648 124.739 148.154  0.00  0.00    +0.000 A 
ATOM     10  C   UNL     1     105.969 124.795 147.521  0.00  0.00    +0.000 A 
ATOM     11  C   UNL     1     104.971 125.071 148.878  0.00  0.00    +0.000 A 
ATOM     12  C   UNL     1     106.310 125.126 148.236  0.00  0.00    +0.000 A 
ATOM     13  C   UNL     1     105.807 125.265 148.920  0.00  0.00    +0.000 A 
ENDROOT
BRANCH   5  14
ATOM     14  C   UNL     1     102.721 124.051 147.396  0.00  0.00    +0.000 A 
ATOM     15  C   UNL     1     102.454 123.318 147.664  0.00  0.00    +0.000 A 
ATOM     16  C   UNL     1     102.184 124.599 147.092  0.00  0.00    +0.000 A 
ATOM     17  C   UNL     1     101.652 123.133 147.630  0.00  0.00    +0.000 A 
ATOM     18  C   UNL     1     101.380 124.414 147.058  0.00  0.00    +0.000 A 
ATOM     19  C   UNL     1     101.115 123.681 147.327  0.00  0.00    +0.000 A 
ENDBRANCH   5  14
BRANCH   6  20
ATOM     20  O   UNL     1     103.685 123.785 146.083  0.00  0.00    +0.000 OA
BRANCH  20  21
ATOM     21  S   UNL     1     104.183 123.502 145.489  0.00  0.00    +0.000 S 
ATOM     22  O   UNL     1     104.680 123.220 144.894  0.00  0.00    +0.000 OA
ATOM     23  O   UNL     1     104.257 122.786 145.891  0.00  0.00    +0.000 OA
ATOM     24  O   UNL     1     104.109 124.219 145.087  0.00  0.00    +0.000 OA
ENDBRANCH  20  21
ENDBRANCH   6  20
TORSDOF 3
ENDMDL
MODEL 7
REMARK VINA RESULT:      -8.2     12.057     13.228
REMARK  Name = 131831912
REMARK  3 active torsions:
REMARK  status: ('A' for Active; 'I' for Inactive)
REMARK    1  A    between atoms: S_1  and  O_3
REMARK    2  A    between atoms: O_3  and  C_11
REMARK    3  A    between atoms: C_10  and  C_13
REMARK                            x       y       z     vdW  Elec       q    Type
REMARK                         _______ _______ _______ _____ _____    ______ ____
ROOT
ATOM      1  O   UNL     1     113.817 127.387 136.346  0.00  0.00    +0.000 OA
ATOM      2  O   UNL     1     111.370 127.152 136.063  0.00  0.00    +0.000 OA
ATOM      3  O   UNL     1     111.274 128.493 135.539  0.00  0.00    +0.000 OA
ATOM      4  O   UNL     1     113.700 130.100 135.296  0.00  0.00    +0.000 OA
ATOM      5  C   UNL     1     113.444 126.682 136.558  0.00  0.00    +0.000 C 
ATOM      6  C   UNL     1     112.628 126.604 136.463  0.00  0.00    +0.000 C 
ATOM      7  C   UNL     1     112.186 127.230 136.157  0.00  0.00    +0.000 C 
ATOM      8  C   UNL     1     112.560 127.934 135.947  0.00  0.00    +0.000 A 
ATOM      9  C   UNL     1     113.376 128.012 136.041  0.00  0.00    +0.000 A 
ATOM     10  C   UNL     1     112.089 128.580 135.629  0.00  0.00    +0.000 A 
ATOM     11  C   UNL     1     113.777 128.741 135.825  0.00  0.00    +0.000 A 
ATOM     12  C   UNL     1     112.472 129.316 135.408  0.00  0.00    +0.000 A 
ATOM     13  C   UNL     1     113.323 129.397 135.506  0.00  0.00    +0.000 A 
ENDROOT
BRANCH   5  14
ATOM     14  C   UNL     1     113.885 126.056 136.863  0.00  0.00    +0.000 A 
ATOM     15  C   UNL     1     113.958 125.961 137.679  0.00  0.00    +0.000 A 
ATOM     16  C   UNL     1     114.254 125.524 136.352  0.00  0.00    +0.000 A 
ATOM     17  C   UNL     1     114.399 125.335 137.985  0.00  0.00    +0.000 A 
ATOM     18  C   UNL     1     114.696 124.897 136.657  0.00  0.00    +0.000 A 
ATOM     19  C   UNL     1     114.768 124.803 137.474  0.00  0.00    +0.000 A 
ENDBRANCH   5  14
BRANCH   6  20
ATOM     20  O   UNL     1     112.253 125.900 136.674  0.00  0.00    +0.000 OA
BRANCH  20  21
ATOM     21  S   UNL     1     111.477 125.757 136.434  0.00  0.00    +0.000 S 
ATOM     22  O   UNL     1     110.700 125.615 136.194  0.00  0.00    +0.000 OA
ATOM     23  O   UNL     1     111.751 125.503 135.699  0.00  0.00    +0.000 OA
ATOM     24  O   UNL     1     111.203 126.011 137.170  0.00  0.00    +0.000 OA
ENDBRANCH  20  21
ENDBRANCH   6  20
TORSDOF 3
ENDMDL
MODEL 8
REMARK VINA RESULT:      -8.2     10.985     11.982
REMARK  Name = 131831912
REMARK  3 active torsions:
REMARK  status: ('A' for Active; 'I' for Inactive)
REMARK    1  A    between atoms: S_1  and  O_3
REMARK    2  A    between atoms: O_3  and  C_11
REMARK    3  A    between atoms: C_10  and  C_13
REMARK                            x       y       z     vdW  Elec       q    Type
REMARK                         _______ _______ _______ _____ _____    ______ ____
ROOT
ATOM      1  O   UNL     1     112.581 125.527 136.148  0.00  0.00    +0.000 OA
ATOM      2  O   UNL     1     112.273 126.568 138.372  0.00  0.00    +0.000 OA
ATOM      3  O   UNL     1     113.577 126.119 138.795  0.00  0.00    +0.000 OA
ATOM      4  O   UNL     1     115.223 124.586 136.932  0.00  0.00    +0.000 OA
ATOM      5  C   UNL     1     111.881 125.929 136.322  0.00  0.00    +0.000 C 
ATOM      6  C   UNL     1     111.779 126.276 137.063  0.00  0.00    +0.000 C 
ATOM      7  C   UNL     1     112.376 126.221 137.631  0.00  0.00    +0.000 C 
ATOM      8  C   UNL     1     113.074 125.819 137.456  0.00  0.00    +0.000 A 
ATOM      9  C   UNL     1     113.177 125.472 136.715  0.00  0.00    +0.000 A 
ATOM     10  C   UNL     1     113.688 125.768 138.056  0.00  0.00    +0.000 A 
ATOM     11  C   UNL     1     113.901 125.050 136.522  0.00  0.00    +0.000 A 
ATOM     12  C   UNL     1     114.418 125.351 137.882  0.00  0.00    +0.000 A 
ATOM     13  C   UNL     1     114.525 124.989 137.109  0.00  0.00    +0.000 A 
ENDROOT
BRANCH   5  14
ATOM     14  C   UNL     1     111.285 125.985 135.755  0.00  0.00    +0.000 A 
ATOM     15  C   UNL     1     110.751 125.364 135.655  0.00  0.00    +0.000 A 
ATOM     16  C   UNL     1     111.223 126.661 135.287  0.00  0.00    +0.000 A 
ATOM     17  C   UNL     1     110.155 125.419 135.088  0.00  0.00    +0.000 A 
ATOM     18  C   UNL     1     110.626 126.717 134.719  0.00  0.00    +0.000 A 
ATOM     19  C   UNL     1     110.093 126.095 134.620  0.00  0.00    +0.000 A 
ENDBRANCH   5  14
BRANCH   6  20
ATOM     20  O   UNL     1     111.080 126.679 137.237  0.00  0.00    +0.000 OA
BRANCH  20  21
ATOM     21  S   UNL     1     110.865 126.811 138.023  0.00  0.00    +0.000 S 
ATOM     22  O   UNL     1     110.650 126.944 138.808  0.00  0.00    +0.000 OA
ATOM     23  O   UNL     1     110.606 126.030 138.083  0.00  0.00    +0.000 OA
ATOM     24  O   UNL     1     111.124 127.592 137.962  0.00  0.00    +0.000 OA
ENDBRANCH  20  21
ENDBRANCH   6  20
TORSDOF 3
ENDMDL
MODEL 9
REMARK VINA RESULT:      -8.2      1.792      4.004
REMARK  Name = 131831912
REMARK  3 active torsions:
REMARK  status: ('A' for Active; 'I' for Inactive)
REMARK    1  A    between atoms: S_1  and  O_3
REMARK    2  A    between atoms: O_3  and  C_11
REMARK    3  A    between atoms: C_10  and  C_13
REMARK                            x       y       z     vdW  Elec       q    Type
REMARK                         _______ _______ _______ _____ _____    ______ ____
ROOT
ATOM      1  O   UNL     1     105.508 124.277 147.411  0.00  0.00    +0.000 OA
ATOM      2  O   UNL     1     103.976 126.021 148.271  0.00  0.00    +0.000 OA
ATOM      3  O   UNL     1     102.916 125.551 147.414  0.00  0.00    +0.000 OA
ATOM      4  O   UNL     1     103.414 123.275 145.653  0.00  0.00    +0.000 OA
ATOM      5  C   UNL     1     105.771 124.810 147.984  0.00  0.00    +0.000 C 
ATOM      6  C   UNL     1     105.260 125.391 148.270  0.00  0.00    +0.000 C 
ATOM      7  C   UNL     1     104.487 125.440 147.984  0.00  0.00    +0.000 C 
ATOM      8  C   UNL     1     104.226 124.907 147.411  0.00  0.00    +0.000 A 
ATOM      9  C   UNL     1     104.737 124.325 147.125  0.00  0.00    +0.000 A 
ATOM     10  C   UNL     1     103.419 124.967 147.121  0.00  0.00    +0.000 A 
ATOM     11  C   UNL     1     104.476 123.764 146.528  0.00  0.00    +0.000 A 
ATOM     12  C   UNL     1     103.140 124.415 146.525  0.00  0.00    +0.000 A 
ATOM     13  C   UNL     1     103.673 123.810 146.226  0.00  0.00    +0.000 A 
ENDROOT
BRANCH   5  14
ATOM     14  C   UNL     1     106.542 124.762 148.270  0.00  0.00    +0.000 A 
ATOM     15  C   UNL     1     107.162 125.104 147.846  0.00  0.00    +0.000 A 
ATOM     16  C   UNL     1     106.695 124.373 148.981  0.00  0.00    +0.000 A 
ATOM     17  C   UNL     1     107.934 125.056 148.132  0.00  0.00    +0.000 A 
ATOM     18  C   UNL     1     107.468 124.325 149.268  0.00  0.00    +0.000 A 
ATOM     19  C   UNL     1     108.087 124.666 148.843  0.00  0.00    +0.000 A 
ENDBRANCH   5  14
BRANCH   6  20
ATOM     20  O   UNL     1     105.521 125.925 148.843  0.00  0.00    +0.000 OA
BRANCH  20  21
ATOM     21  S   UNL     1     105.113 126.631 148.967  0.00  0.00    +0.000 S 
ATOM     22  O   UNL     1     104.705 127.337 149.090  0.00  0.00    +0.000 OA
ATOM     23  O   UNL     1     105.501 126.968 148.321  0.00  0.00    +0.000 OA
ATOM     24  O   UNL     1     104.725 126.294 149.612  0.00  0.00    +0.000 OA
ENDBRANCH  20  21
ENDBRANCH   6  20
TORSDOF 3
ENDMDL
MODEL 10
REMARK VINA RESULT:      -8.1     12.118     12.667
REMARK  Name = 131831912
REMARK  3 active torsions:
REMARK  status: ('A' for Active; 'I' for Inactive)
REMARK    1  A    between atoms: S_1  and  O_3
REMARK    2  A    between atoms: O_3  and  C_11
REMARK    3  A    between atoms: C_10  and  C_13
REMARK                            x       y       z     vdW  Elec       q    Type
REMARK                         _______ _______ _______ _____ _____    ______ ____
ROOT
ATOM      1  O   UNL     1     112.974 126.651 136.542  0.00  0.00    +0.000 OA
ATOM      2  O   UNL     1     111.300 124.911 135.996  0.00  0.00    +0.000 OA
ATOM      3  O   UNL     1     112.212 123.868 136.397  0.00  0.00    +0.000 OA
ATOM      4  O   UNL     1     114.867 124.599 137.368  0.00  0.00    +0.000 OA
ATOM      5  C   UNL     1     112.234 126.869 136.249  0.00  0.00    +0.000 C 
ATOM      6  C   UNL     1     111.676 126.289 136.067  0.00  0.00    +0.000 C 
ATOM      7  C   UNL     1     111.858 125.491 136.178  0.00  0.00    +0.000 C 
ATOM      8  C   UNL     1     112.598 125.275 136.470  0.00  0.00    +0.000 A 
ATOM      9  C   UNL     1     113.156 125.855 136.652  0.00  0.00    +0.000 A 
ATOM     10  C   UNL     1     112.776 124.441 136.581  0.00  0.00    +0.000 A 
ATOM     11  C   UNL     1     113.931 125.641 136.958  0.00  0.00    +0.000 A 
ATOM     12  C   UNL     1     113.545 124.208 136.885  0.00  0.00    +0.000 A 
ATOM     13  C   UNL     1     114.126 124.813 137.075  0.00  0.00    +0.000 A 
ENDROOT
BRANCH   5  14
ATOM     14  C   UNL     1     112.051 127.665 136.139  0.00  0.00    +0.000 A 
ATOM     15  C   UNL     1     111.658 128.085 136.730  0.00  0.00    +0.000 A 
ATOM     16  C   UNL     1     112.262 128.043 135.436  0.00  0.00    +0.000 A 
ATOM     17  C   UNL     1     111.475 128.881 136.620  0.00  0.00    +0.000 A 
ATOM     18  C   UNL     1     112.080 128.840 135.325  0.00  0.00    +0.000 A 
ATOM     19  C   UNL     1     111.686 129.259 135.917  0.00  0.00    +0.000 A 
ENDBRANCH   5  14
BRANCH   6  20
ATOM     20  O   UNL     1     110.935 126.505 135.775  0.00  0.00    +0.000 OA
BRANCH  20  21
ATOM     21  S   UNL     1     110.447 125.939 135.427  0.00  0.00    +0.000 S 
ATOM     22  O   UNL     1     109.958 125.372 135.079  0.00  0.00    +0.000 OA
ATOM     23  O   UNL     1     110.864 126.014 134.719  0.00  0.00    +0.000 OA
ATOM     24  O   UNL     1     110.030 125.864 136.135  0.00  0.00    +0.000 OA
ENDBRANCH  20  21
ENDBRANCH   6  20
TORSDOF 3
ENDMDL
