MODEL 1
REMARK VINA RESULT:      -9.5      0.000      0.000
REMARK  Name = 42607710
REMARK  12 active torsions:
REMARK  status: ('A' for Active; 'I' for Inactive)
REMARK    1  A    between atoms: O_3  and  C_21
REMARK    2  A    between atoms: O_3  and  C_26
REMARK    3  A    between atoms: O_6  and  C_25
REMARK    4  A    between atoms: O_6  and  C_28
REMARK    5  A    between atoms: O_12  and  C_29
REMARK    6  A    between atoms: O_13  and  C_32
REMARK    7  A    between atoms: C_16  and  C_26
REMARK    8  A    between atoms: C_24  and  C_27
REMARK    9  A    between atoms: C_33  and  C_34
REMARK   10  A    between atoms: C_34  and  C_35
REMARK   11  A    between atoms: C_35  and  C_36
REMARK   12  A    between atoms: C_36  and  C_38
REMARK                            x       y       z     vdW  Elec       q    Type
REMARK                         _______ _______ _______ _____ _____    ______ ____
ROOT
ATOM      1  O   UNL     1     109.211 127.522 136.838  0.00  0.00    +0.000 OA
ENDROOT
BRANCH   1  10
ATOM      2  O   UNL     1     110.137 128.567 136.534  0.00  0.00    +0.000 OA
ATOM      3  O   UNL     1     109.892 130.398 135.371  0.00  0.00    +0.000 OA
ATOM      4  O   UNL     1     108.381 129.745 135.246  0.00  0.00    +0.000 OA
ATOM      5  O   UNL     1     108.041 128.307 135.979  0.00  0.00    +0.000 OA
ATOM      6  C   UNL     1     110.307 129.286 136.167  0.00  0.00    +0.000 C 
ATOM      7  C   UNL     1     109.722 129.679 135.738  0.00  0.00    +0.000 C 
ATOM      8  C   UNL     1     108.967 129.352 135.675  0.00  0.00    +0.000 C 
ATOM      9  C   UNL     1     108.797 128.633 136.042  0.00  0.00    +0.000 C 
ATOM     10  C   UNL     1     109.381 128.241 136.471  0.00  0.00    +0.000 C 
BRANCH   6  11
ATOM     11  C   UNL     1     111.062 129.613 136.229  0.00  0.00    +0.000 C 
BRANCH  11  12
ATOM     12  O   UNL     1     111.726 129.125 136.208  0.00  0.00    +0.000 OA
BRANCH  12  19
ATOM     13  O   UNL     1     112.593 130.113 136.768  0.00  0.00    +0.000 OA
ATOM     14  O   UNL     1     113.007 128.451 135.415  0.00  0.00    +0.000 OA
ATOM     15  O   UNL     1     114.514 129.102 135.579  0.00  0.00    +0.000 OA
ATOM     16  O   UNL     1     114.741 130.427 136.535  0.00  0.00    +0.000 OA
ATOM     17  C   UNL     1     113.120 129.114 135.894  0.00  0.00    +0.000 C 
ATOM     18  C   UNL     1     113.874 129.439 135.975  0.00  0.00    +0.000 C 
ATOM     19  C   UNL     1     112.480 129.451 136.290  0.00  0.00    +0.000 C 
ATOM     20  C   UNL     1     113.987 130.101 136.453  0.00  0.00    +0.000 C 
ATOM     21  C   UNL     1     113.346 130.439 136.850  0.00  0.00    +0.000 C 
BRANCH  21  23
ATOM     22  O   UNL     1     113.039 131.178 138.033  0.00  0.00    +0.000 OA
ATOM     23  C   UNL     1     113.460 131.101 137.328  0.00  0.00    +0.000 C 
ENDBRANCH  21  23
ENDBRANCH  12  19
ENDBRANCH  11  12
ENDBRANCH   6  11
ENDBRANCH   1  10
BRANCH   1  25
ATOM     24  O   UNL     1     110.905 125.624 138.140  0.00  0.00    +0.000 OA
ATOM     25  C   UNL     1     109.751 126.899 136.796  0.00  0.00    +0.000 A 
ATOM     26  C   UNL     1     110.058 126.573 137.489  0.00  0.00    +0.000 A 
ATOM     27  C   UNL     1     109.984 126.603 136.062  0.00  0.00    +0.000 A 
ATOM     28  C   UNL     1     110.598 125.950 137.447  0.00  0.00    +0.000 A 
ATOM     29  C   UNL     1     110.523 125.981 136.021  0.00  0.00    +0.000 A 
ATOM     30  C   UNL     1     110.831 125.654 136.713  0.00  0.00    +0.000 A 
BRANCH  26  31
ATOM     31  O   UNL     1     109.825 126.869 138.223  0.00  0.00    +0.000 OA
ATOM     32  C   UNL     1     109.411 126.387 138.749  0.00  0.00    +0.000 C 
ENDBRANCH  26  31
BRANCH  29  33
ATOM     33  O   UNL     1     110.756 125.685 135.287  0.00  0.00    +0.000 OA
ATOM     34  C   UNL     1     110.311 125.856 134.613  0.00  0.00    +0.000 C 
ENDBRANCH  29  33
BRANCH  30  36
ATOM     35  O   UNL     1     111.101 124.255 136.613  0.00  0.00    +0.000 OA
ATOM     36  C   UNL     1     111.370 125.032 136.672  0.00  0.00    +0.000 C 
BRANCH  36  37
ATOM     37  C   UNL     1     112.180 125.187 136.689  0.00  0.00    +0.000 C 
BRANCH  37  38
ATOM     38  C   UNL     1     112.721 124.564 136.660  0.00  0.00    +0.000 C 
BRANCH  38  39
ATOM     39  C   UNL     1     113.528 124.714 136.737  0.00  0.00    +0.000 A 
ATOM     40  C   UNL     1     113.931 125.120 136.142  0.00  0.00    +0.000 A 
ATOM     41  C   UNL     1     113.932 124.459 137.409  0.00  0.00    +0.000 A 
ATOM     42  C   UNL     1     114.738 125.270 136.219  0.00  0.00    +0.000 A 
ATOM     43  C   UNL     1     114.740 124.609 137.486  0.00  0.00    +0.000 A 
ATOM     44  C   UNL     1     115.143 125.014 136.892  0.00  0.00    +0.000 A 
ENDBRANCH  38  39
ENDBRANCH  37  38
ENDBRANCH  36  37
ENDBRANCH  30  36
ENDBRANCH   1  25
TORSDOF 12
ENDMDL
MODEL 2
REMARK VINA RESULT:      -8.7      0.655      1.429
REMARK  Name = 42607710
REMARK  12 active torsions:
REMARK  status: ('A' for Active; 'I' for Inactive)
REMARK    1  A    between atoms: O_3  and  C_21
REMARK    2  A    between atoms: O_3  and  C_26
REMARK    3  A    between atoms: O_6  and  C_25
REMARK    4  A    between atoms: O_6  and  C_28
REMARK    5  A    between atoms: O_12  and  C_29
REMARK    6  A    between atoms: O_13  and  C_32
REMARK    7  A    between atoms: C_16  and  C_26
REMARK    8  A    between atoms: C_24  and  C_27
REMARK    9  A    between atoms: C_33  and  C_34
REMARK   10  A    between atoms: C_34  and  C_35
REMARK   11  A    between atoms: C_35  and  C_36
REMARK   12  A    between atoms: C_36  and  C_38
REMARK                            x       y       z     vdW  Elec       q    Type
REMARK                         _______ _______ _______ _____ _____    ______ ____
ROOT
ATOM      1  O   UNL     1     109.150 127.545 135.786  0.00  0.00    +0.000 OA
ENDROOT
BRANCH   1  10
ATOM      2  O   UNL     1     110.089 128.619 135.869  0.00  0.00    +0.000 OA
ATOM      3  O   UNL     1     109.782 130.779 135.970  0.00  0.00    +0.000 OA
ATOM      4  O   UNL     1     108.223 130.246 135.896  0.00  0.00    +0.000 OA
ATOM      5  O   UNL     1     107.906 128.629 135.804  0.00  0.00    +0.000 OA
ATOM      6  C   UNL     1     110.247 129.428 135.915  0.00  0.00    +0.000 C 
ATOM      7  C   UNL     1     109.624 129.970 135.924  0.00  0.00    +0.000 C 
ATOM      8  C   UNL     1     108.845 129.704 135.887  0.00  0.00    +0.000 C 
ATOM      9  C   UNL     1     108.687 128.895 135.841  0.00  0.00    +0.000 C 
ATOM     10  C   UNL     1     109.308 128.354 135.832  0.00  0.00    +0.000 C 
BRANCH   6  11
ATOM     11  C   UNL     1     111.026 129.695 135.952  0.00  0.00    +0.000 C 
BRANCH  11  12
ATOM     12  O   UNL     1     111.633 129.243 135.623  0.00  0.00    +0.000 OA
BRANCH  12  19
ATOM     13  O   UNL     1     112.607 130.149 136.147  0.00  0.00    +0.000 OA
ATOM     14  O   UNL     1     112.835 128.192 135.207  0.00  0.00    +0.000 OA
ATOM     15  O   UNL     1     114.410 128.572 135.522  0.00  0.00    +0.000 OA
ATOM     16  O   UNL     1     114.782 130.004 136.254  0.00  0.00    +0.000 OA
ATOM     17  C   UNL     1     113.022 128.908 135.573  0.00  0.00    +0.000 C 
ATOM     18  C   UNL     1     113.809 129.098 135.731  0.00  0.00    +0.000 C 
ATOM     19  C   UNL     1     112.421 129.434 135.781  0.00  0.00    +0.000 C 
ATOM     20  C   UNL     1     113.994 129.813 136.096  0.00  0.00    +0.000 C 
ATOM     21  C   UNL     1     113.393 130.339 136.305  0.00  0.00    +0.000 C 
BRANCH  21  23
ATOM     22  O   UNL     1     113.166 131.294 137.343  0.00  0.00    +0.000 OA
ATOM     23  C   UNL     1     113.580 131.055 136.671  0.00  0.00    +0.000 C 
ENDBRANCH  21  23
ENDBRANCH  12  19
ENDBRANCH  11  12
ENDBRANCH   6  11
ENDBRANCH   1  10
BRANCH   1  25
ATOM     24  O   UNL     1     110.863 125.261 135.668  0.00  0.00    +0.000 OA
ATOM     25  C   UNL     1     109.648 127.005 136.162  0.00  0.00    +0.000 A 
ATOM     26  C   UNL     1     110.007 126.403 135.727  0.00  0.00    +0.000 A 
ATOM     27  C   UNL     1     109.787 127.067 136.973  0.00  0.00    +0.000 A 
ATOM     28  C   UNL     1     110.505 125.863 136.104  0.00  0.00    +0.000 A 
ATOM     29  C   UNL     1     110.284 126.528 137.349  0.00  0.00    +0.000 A 
ATOM     30  C   UNL     1     110.644 125.925 136.914  0.00  0.00    +0.000 A 
BRANCH  26  31
ATOM     31  O   UNL     1     109.868 126.341 134.916  0.00  0.00    +0.000 OA
ATOM     32  C   UNL     1     109.492 125.672 134.613  0.00  0.00    +0.000 C 
ENDBRANCH  26  31
BRANCH  29  33
ATOM     33  O   UNL     1     110.423 126.590 138.160  0.00  0.00    +0.000 OA
ATOM     34  C   UNL     1     109.897 127.009 138.638  0.00  0.00    +0.000 C 
ENDBRANCH  29  33
BRANCH  30  36
ATOM     35  O   UNL     1     110.821 124.751 137.708  0.00  0.00    +0.000 OA
ATOM     36  C   UNL     1     111.141 125.386 137.290  0.00  0.00    +0.000 C 
BRANCH  36  37
ATOM     37  C   UNL     1     111.960 125.481 137.248  0.00  0.00    +0.000 C 
BRANCH  37  38
ATOM     38  C   UNL     1     112.458 124.934 137.612  0.00  0.00    +0.000 C 
BRANCH  38  39
ATOM     39  C   UNL     1     113.276 124.998 137.525  0.00  0.00    +0.000 A 
ATOM     40  C   UNL     1     113.692 125.567 137.955  0.00  0.00    +0.000 A 
ATOM     41  C   UNL     1     113.677 124.496 137.009  0.00  0.00    +0.000 A 
ATOM     42  C   UNL     1     114.510 125.631 137.868  0.00  0.00    +0.000 A 
ATOM     43  C   UNL     1     114.494 124.560 136.922  0.00  0.00    +0.000 A 
ATOM     44  C   UNL     1     114.912 125.128 137.351  0.00  0.00    +0.000 A 
ENDBRANCH  38  39
ENDBRANCH  37  38
ENDBRANCH  36  37
ENDBRANCH  30  36
ENDBRANCH   1  25
TORSDOF 12
ENDMDL
MODEL 3
REMARK VINA RESULT:      -8.7      2.384      3.227
REMARK  Name = 42607710
REMARK  12 active torsions:
REMARK  status: ('A' for Active; 'I' for Inactive)
REMARK    1  A    between atoms: O_3  and  C_21
REMARK    2  A    between atoms: O_3  and  C_26
REMARK    3  A    between atoms: O_6  and  C_25
REMARK    4  A    between atoms: O_6  and  C_28
REMARK    5  A    between atoms: O_12  and  C_29
REMARK    6  A    between atoms: O_13  and  C_32
REMARK    7  A    between atoms: C_16  and  C_26
REMARK    8  A    between atoms: C_24  and  C_27
REMARK    9  A    between atoms: C_33  and  C_34
REMARK   10  A    between atoms: C_34  and  C_35
REMARK   11  A    between atoms: C_35  and  C_36
REMARK   12  A    between atoms: C_36  and  C_38
REMARK                            x       y       z     vdW  Elec       q    Type
REMARK                         _______ _______ _______ _____ _____    ______ ____
ROOT
ATOM      1  O   UNL     1     110.138 129.286 137.104  0.00  0.00    +0.000 OA
ENDROOT
BRANCH   1  10
ATOM      2  O   UNL     1     110.727 129.331 138.405  0.00  0.00    +0.000 OA
ATOM      3  O   UNL     1     109.888 129.919 140.333  0.00  0.00    +0.000 OA
ATOM      4  O   UNL     1     108.586 130.144 139.345  0.00  0.00    +0.000 OA
ATOM      5  O   UNL     1     108.711 129.828 137.731  0.00  0.00    +0.000 OA
ATOM      6  C   UNL     1     110.664 129.490 139.213  0.00  0.00    +0.000 C 
ATOM      7  C   UNL     1     109.950 129.761 139.526  0.00  0.00    +0.000 C 
ATOM      8  C   UNL     1     109.300 129.873 139.032  0.00  0.00    +0.000 C 
ATOM      9  C   UNL     1     109.362 129.715 138.224  0.00  0.00    +0.000 C 
ATOM     10  C   UNL     1     110.075 129.444 137.912  0.00  0.00    +0.000 C 
BRANCH   6  11
ATOM     11  C   UNL     1     111.315 129.377 139.707  0.00  0.00    +0.000 C 
BRANCH  11  12
ATOM     12  O   UNL     1     112.074 129.559 139.439  0.00  0.00    +0.000 OA
BRANCH  12  19
ATOM     13  O   UNL     1     112.805 128.380 139.783  0.00  0.00    +0.000 OA
ATOM     14  O   UNL     1     113.239 130.488 140.147  0.00  0.00    +0.000 OA
ATOM     15  O   UNL     1     114.553 129.774 140.845  0.00  0.00    +0.000 OA
ATOM     16  O   UNL     1     114.701 128.131 140.835  0.00  0.00    +0.000 OA
ATOM     17  C   UNL     1     113.313 129.666 140.142  0.00  0.00    +0.000 C 
ATOM     18  C   UNL     1     113.970 129.309 140.491  0.00  0.00    +0.000 C 
ATOM     19  C   UNL     1     112.731 129.201 139.788  0.00  0.00    +0.000 C 
ATOM     20  C   UNL     1     114.044 128.488 140.485  0.00  0.00    +0.000 C 
ATOM     21  C   UNL     1     113.461 128.023 140.131  0.00  0.00    +0.000 C 
BRANCH  21  23
ATOM     22  O   UNL     1     112.930 126.735 139.817  0.00  0.00    +0.000 OA
ATOM     23  C   UNL     1     113.536 127.201 140.127  0.00  0.00    +0.000 C 
ENDBRANCH  21  23
ENDBRANCH  12  19
ENDBRANCH  11  12
ENDBRANCH   6  11
ENDBRANCH   1  10
BRANCH   1  25
ATOM     24  O   UNL     1     112.081 127.972 135.472  0.00  0.00    +0.000 OA
ATOM     25  C   UNL     1     110.504 128.592 136.847  0.00  0.00    +0.000 A 
ATOM     26  C   UNL     1     111.110 128.629 136.288  0.00  0.00    +0.000 A 
ATOM     27  C   UNL     1     110.263 127.862 137.148  0.00  0.00    +0.000 A 
ATOM     28  C   UNL     1     111.475 127.935 136.031  0.00  0.00    +0.000 A 
ATOM     29  C   UNL     1     110.629 127.170 136.890  0.00  0.00    +0.000 A 
ATOM     30  C   UNL     1     111.235 127.205 136.332  0.00  0.00    +0.000 A 
BRANCH  26  31
ATOM     31  O   UNL     1     111.350 129.358 135.987  0.00  0.00    +0.000 OA
ATOM     32  C   UNL     1     111.196 129.550 135.200  0.00  0.00    +0.000 C 
ENDBRANCH  26  31
BRANCH  29  33
ATOM     33  O   UNL     1     110.388 126.440 137.191  0.00  0.00    +0.000 OA
ATOM     34  C   UNL     1     109.644 126.362 137.539  0.00  0.00    +0.000 C 
ENDBRANCH  29  33
BRANCH  30  36
ATOM     35  O   UNL     1     111.293 126.099 135.431  0.00  0.00    +0.000 OA
ATOM     36  C   UNL     1     111.600 126.513 136.074  0.00  0.00    +0.000 C 
BRANCH  36  37
ATOM     37  C   UNL     1     112.274 126.234 136.460  0.00  0.00    +0.000 C 
BRANCH  37  38
ATOM     38  C   UNL     1     112.667 125.567 136.175  0.00  0.00    +0.000 C 
BRANCH  38  39
ATOM     39  C   UNL     1     113.319 125.267 136.582  0.00  0.00    +0.000 A 
ATOM     40  C   UNL     1     113.253 124.560 137.003  0.00  0.00    +0.000 A 
ATOM     41  C   UNL     1     114.036 125.672 136.566  0.00  0.00    +0.000 A 
ATOM     42  C   UNL     1     113.905 124.260 137.410  0.00  0.00    +0.000 A 
ATOM     43  C   UNL     1     114.689 125.372 136.973  0.00  0.00    +0.000 A 
ATOM     44  C   UNL     1     114.624 124.667 137.394  0.00  0.00    +0.000 A 
ENDBRANCH  38  39
ENDBRANCH  37  38
ENDBRANCH  36  37
ENDBRANCH  30  36
ENDBRANCH   1  25
TORSDOF 12
ENDMDL
MODEL 4
REMARK VINA RESULT:      -8.5      1.188      4.368
REMARK  Name = 42607710
REMARK  12 active torsions:
REMARK  status: ('A' for Active; 'I' for Inactive)
REMARK    1  A    between atoms: O_3  and  C_21
REMARK    2  A    between atoms: O_3  and  C_26
REMARK    3  A    between atoms: O_6  and  C_25
REMARK    4  A    between atoms: O_6  and  C_28
REMARK    5  A    between atoms: O_12  and  C_29
REMARK    6  A    between atoms: O_13  and  C_32
REMARK    7  A    between atoms: C_16  and  C_26
REMARK    8  A    between atoms: C_24  and  C_27
REMARK    9  A    between atoms: C_33  and  C_34
REMARK   10  A    between atoms: C_34  and  C_35
REMARK   11  A    between atoms: C_35  and  C_36
REMARK   12  A    between atoms: C_36  and  C_38
REMARK                            x       y       z     vdW  Elec       q    Type
REMARK                         _______ _______ _______ _____ _____    ______ ____
ROOT
ATOM      1  O   UNL     1     111.100 125.137 137.350  0.00  0.00    +0.000 OA
ENDROOT
BRANCH   1  10
ATOM      2  O   UNL     1     112.254 125.902 136.997  0.00  0.00    +0.000 OA
ATOM      3  O   UNL     1     114.278 125.274 136.469  0.00  0.00    +0.000 OA
ATOM      4  O   UNL     1     113.557 123.813 136.735  0.00  0.00    +0.000 OA
ATOM      5  O   UNL     1     111.968 123.745 137.175  0.00  0.00    +0.000 OA
ATOM      6  C   UNL     1     113.049 125.936 136.777  0.00  0.00    +0.000 C 
ATOM      7  C   UNL     1     113.483 125.240 136.690  0.00  0.00    +0.000 C 
ATOM      8  C   UNL     1     113.122 124.510 136.823  0.00  0.00    +0.000 C 
ATOM      9  C   UNL     1     112.328 124.476 137.043  0.00  0.00    +0.000 C 
ATOM     10  C   UNL     1     111.895 125.171 137.130  0.00  0.00    +0.000 C 
BRANCH   6  11
ATOM     11  C   UNL     1     113.409 126.666 136.644  0.00  0.00    +0.000 C 
BRANCH  11  12
ATOM     12  O   UNL     1     113.182 127.326 137.085  0.00  0.00    +0.000 OA
BRANCH  12  19
ATOM     13  O   UNL     1     113.719 128.193 136.084  0.00  0.00    +0.000 OA
ATOM     14  O   UNL     1     112.482 128.620 137.832  0.00  0.00    +0.000 OA
ATOM     15  O   UNL     1     112.669 130.135 137.205  0.00  0.00    +0.000 OA
ATOM     16  O   UNL     1     113.556 130.355 135.831  0.00  0.00    +0.000 OA
ATOM     17  C   UNL     1     112.926 128.730 137.144  0.00  0.00    +0.000 C 
ATOM     18  C   UNL     1     113.019 129.488 136.831  0.00  0.00    +0.000 C 
ATOM     19  C   UNL     1     113.276 128.083 136.771  0.00  0.00    +0.000 C 
ATOM     20  C   UNL     1     113.462 129.597 136.144  0.00  0.00    +0.000 C 
ATOM     21  C   UNL     1     113.812 128.950 135.771  0.00  0.00    +0.000 C 
BRANCH  21  23
ATOM     22  O   UNL     1     114.984 128.684 134.998  0.00  0.00    +0.000 OA
ATOM     23  C   UNL     1     114.255 129.061 135.084  0.00  0.00    +0.000 C 
ENDBRANCH  21  23
ENDBRANCH  12  19
ENDBRANCH  11  12
ENDBRANCH   6  11
ENDBRANCH   1  10
BRANCH   1  25
ATOM     24  O   UNL     1     109.224 127.245 137.803  0.00  0.00    +0.000 OA
ATOM     25  C   UNL     1     110.566 125.694 137.057  0.00  0.00    +0.000 A 
ATOM     26  C   UNL     1     110.162 126.191 137.577  0.00  0.00    +0.000 A 
ATOM     27  C   UNL     1     110.436 125.753 136.244  0.00  0.00    +0.000 A 
ATOM     28  C   UNL     1     109.628 126.748 137.283  0.00  0.00    +0.000 A 
ATOM     29  C   UNL     1     109.903 126.310 135.952  0.00  0.00    +0.000 A 
ATOM     30  C   UNL     1     109.498 126.807 136.471  0.00  0.00    +0.000 A 
BRANCH  26  31
ATOM     31  O   UNL     1     110.292 126.132 138.389  0.00  0.00    +0.000 OA
ATOM     32  C   UNL     1     109.669 125.932 138.892  0.00  0.00    +0.000 C 
ENDBRANCH  26  31
BRANCH  29  33
ATOM     33  O   UNL     1     109.773 126.369 135.139  0.00  0.00    +0.000 OA
ATOM     34  C   UNL     1     110.001 125.754 134.639  0.00  0.00    +0.000 C 
ENDBRANCH  29  33
BRANCH  30  36
ATOM     35  O   UNL     1     108.178 127.153 136.050  0.00  0.00    +0.000 OA
ATOM     36  C   UNL     1     108.965 127.364 136.178  0.00  0.00    +0.000 C 
BRANCH  36  37
ATOM     37  C   UNL     1     109.218 128.131 136.013  0.00  0.00    +0.000 C 
BRANCH  37  38
ATOM     38  C   UNL     1     108.681 128.694 135.740  0.00  0.00    +0.000 C 
BRANCH  38  39
ATOM     39  C   UNL     1     108.926 129.471 135.610  0.00  0.00    +0.000 A 
ATOM     40  C   UNL     1     109.488 129.634 135.028  0.00  0.00    +0.000 A 
ATOM     41  C   UNL     1     108.611 130.083 136.062  0.00  0.00    +0.000 A 
ATOM     42  C   UNL     1     109.733 130.411 134.898  0.00  0.00    +0.000 A 
ATOM     43  C   UNL     1     108.856 130.860 135.933  0.00  0.00    +0.000 A 
ATOM     44  C   UNL     1     109.417 131.025 135.351  0.00  0.00    +0.000 A 
ENDBRANCH  38  39
ENDBRANCH  37  38
ENDBRANCH  36  37
ENDBRANCH  30  36
ENDBRANCH   1  25
TORSDOF 12
ENDMDL
MODEL 5
REMARK VINA RESULT:      -8.5      2.199      3.316
REMARK  Name = 42607710
REMARK  12 active torsions:
REMARK  status: ('A' for Active; 'I' for Inactive)
REMARK    1  A    between atoms: O_3  and  C_21
REMARK    2  A    between atoms: O_3  and  C_26
REMARK    3  A    between atoms: O_6  and  C_25
REMARK    4  A    between atoms: O_6  and  C_28
REMARK    5  A    between atoms: O_12  and  C_29
REMARK    6  A    between atoms: O_13  and  C_32
REMARK    7  A    between atoms: C_16  and  C_26
REMARK    8  A    between atoms: C_24  and  C_27
REMARK    9  A    between atoms: C_33  and  C_34
REMARK   10  A    between atoms: C_34  and  C_35
REMARK   11  A    between atoms: C_35  and  C_36
REMARK   12  A    between atoms: C_36  and  C_38
REMARK                            x       y       z     vdW  Elec       q    Type
REMARK                         _______ _______ _______ _____ _____    ______ ____
ROOT
ATOM      1  O   UNL     1     112.059 129.946 139.677  0.00  0.00    +0.000 OA
ENDROOT
BRANCH   1  10
ATOM      2  O   UNL     1     112.329 130.363 138.337  0.00  0.00    +0.000 OA
ATOM      3  O   UNL     1     111.364 131.873 137.089  0.00  0.00    +0.000 OA
ATOM      4  O   UNL     1     110.477 132.001 138.474  0.00  0.00    +0.000 OA
ATOM      5  O   UNL     1     110.825 131.038 139.768  0.00  0.00    +0.000 OA
ATOM      6  C   UNL     1     112.155 130.845 137.690  0.00  0.00    +0.000 C 
ATOM      7  C   UNL     1     111.538 131.391 137.736  0.00  0.00    +0.000 C 
ATOM      8  C   UNL     1     111.095 131.455 138.429  0.00  0.00    +0.000 C 
ATOM      9  C   UNL     1     111.268 130.973 139.076  0.00  0.00    +0.000 C 
ATOM     10  C   UNL     1     111.885 130.428 139.030  0.00  0.00    +0.000 C 
BRANCH   6  11
ATOM     11  C   UNL     1     112.598 130.781 136.997  0.00  0.00    +0.000 C 
BRANCH  11  12
ATOM     12  O   UNL     1     113.419 130.709 137.037  0.00  0.00    +0.000 OA
BRANCH  12  19
ATOM     13  O   UNL     1     113.615 129.565 136.204  0.00  0.00    +0.000 OA
ATOM     14  O   UNL     1     114.667 131.476 136.278  0.00  0.00    +0.000 OA
ATOM     15  O   UNL     1     115.488 130.714 135.065  0.00  0.00    +0.000 OA
ATOM     16  O   UNL     1     115.060 129.187 134.612  0.00  0.00    +0.000 OA
ATOM     17  C   UNL     1     114.453 130.711 136.051  0.00  0.00    +0.000 C 
ATOM     18  C   UNL     1     114.864 130.331 135.445  0.00  0.00    +0.000 C 
ATOM     19  C   UNL     1     113.829 130.328 136.431  0.00  0.00    +0.000 C 
ATOM     20  C   UNL     1     114.649 129.567 135.219  0.00  0.00    +0.000 C 
ATOM     21  C   UNL     1     114.025 129.184 135.599  0.00  0.00    +0.000 C 
BRANCH  21  23
ATOM     22  O   UNL     1     113.059 128.133 135.549  0.00  0.00    +0.000 OA
ATOM     23  C   UNL     1     113.812 128.420 135.372  0.00  0.00    +0.000 C 
ENDBRANCH  21  23
ENDBRANCH  12  19
ENDBRANCH  11  12
ENDBRANCH   6  11
ENDBRANCH   1  10
BRANCH   1  25
ATOM     24  O   UNL     1     113.741 127.660 140.009  0.00  0.00    +0.000 OA
ATOM     25  C   UNL     1     112.200 129.141 139.566  0.00  0.00    +0.000 A 
ATOM     26  C   UNL     1     112.900 128.803 139.843  0.00  0.00    +0.000 A 
ATOM     27  C   UNL     1     111.641 128.673 139.178  0.00  0.00    +0.000 A 
ATOM     28  C   UNL     1     113.041 127.997 139.732  0.00  0.00    +0.000 A 
ATOM     29  C   UNL     1     111.783 127.869 139.067  0.00  0.00    +0.000 A 
ATOM     30  C   UNL     1     112.482 127.530 139.344  0.00  0.00    +0.000 A 
BRANCH  26  31
ATOM     31  O   UNL     1     113.458 129.270 140.231  0.00  0.00    +0.000 OA
ATOM     32  C   UNL     1     113.584 129.174 141.041  0.00  0.00    +0.000 C 
ENDBRANCH  26  31
BRANCH  29  33
ATOM     33  O   UNL     1     111.224 127.402 138.679  0.00  0.00    +0.000 OA
ATOM     34  C   UNL     1     110.441 127.654 138.625  0.00  0.00    +0.000 C 
ENDBRANCH  29  33
BRANCH  30  36
ATOM     35  O   UNL     1     112.367 126.180 139.795  0.00  0.00    +0.000 OA
ATOM     36  C   UNL     1     112.624 126.726 139.233  0.00  0.00    +0.000 C 
BRANCH  36  37
ATOM     37  C   UNL     1     113.022 126.466 138.559  0.00  0.00    +0.000 C 
BRANCH  37  38
ATOM     38  C   UNL     1     113.219 125.669 138.477  0.00  0.00    +0.000 C 
BRANCH  38  39
ATOM     39  C   UNL     1     113.571 125.400 137.781  0.00  0.00    +0.000 A 
ATOM     40  C   UNL     1     113.103 125.087 137.178  0.00  0.00    +0.000 A 
ATOM     41  C   UNL     1     114.389 125.444 137.688  0.00  0.00    +0.000 A 
ATOM     42  C   UNL     1     113.454 124.818 136.481  0.00  0.00    +0.000 A 
ATOM     43  C   UNL     1     114.740 125.175 136.992  0.00  0.00    +0.000 A 
ATOM     44  C   UNL     1     114.273 124.862 136.388  0.00  0.00    +0.000 A 
ENDBRANCH  38  39
ENDBRANCH  37  38
ENDBRANCH  36  37
ENDBRANCH  30  36
ENDBRANCH   1  25
TORSDOF 12
ENDMDL
MODEL 6
REMARK VINA RESULT:      -8.5      1.660      2.275
REMARK  Name = 42607710
REMARK  12 active torsions:
REMARK  status: ('A' for Active; 'I' for Inactive)
REMARK    1  A    between atoms: O_3  and  C_21
REMARK    2  A    between atoms: O_3  and  C_26
REMARK    3  A    between atoms: O_6  and  C_25
REMARK    4  A    between atoms: O_6  and  C_28
REMARK    5  A    between atoms: O_12  and  C_29
REMARK    6  A    between atoms: O_13  and  C_32
REMARK    7  A    between atoms: C_16  and  C_26
REMARK    8  A    between atoms: C_24  and  C_27
REMARK    9  A    between atoms: C_33  and  C_34
REMARK   10  A    between atoms: C_34  and  C_35
REMARK   11  A    between atoms: C_35  and  C_36
REMARK   12  A    between atoms: C_36  and  C_38
REMARK                            x       y       z     vdW  Elec       q    Type
REMARK                         _______ _______ _______ _____ _____    ______ ____
ROOT
ATOM      1  O   UNL     1     109.990 128.305 139.577  0.00  0.00    +0.000 OA
ENDROOT
BRANCH   1  10
ATOM      2  O   UNL     1     110.625 129.200 138.662  0.00  0.00    +0.000 OA
ATOM      3  O   UNL     1     109.889 131.016 137.699  0.00  0.00    +0.000 OA
ATOM      4  O   UNL     1     108.572 130.582 138.592  0.00  0.00    +0.000 OA
ATOM      5  O   UNL     1     108.622 129.226 139.531  0.00  0.00    +0.000 OA
ATOM      6  C   UNL     1     110.599 129.878 138.192  0.00  0.00    +0.000 C 
ATOM      7  C   UNL     1     109.915 130.339 138.169  0.00  0.00    +0.000 C 
ATOM      8  C   UNL     1     109.256 130.121 138.615  0.00  0.00    +0.000 C 
ATOM      9  C   UNL     1     109.282 129.443 139.085  0.00  0.00    +0.000 C 
ATOM     10  C   UNL     1     109.965 128.983 139.108  0.00  0.00    +0.000 C 
BRANCH   6  11
ATOM     11  C   UNL     1     111.258 130.095 137.745  0.00  0.00    +0.000 C 
BRANCH  11  12
ATOM     12  O   UNL     1     112.018 129.970 138.042  0.00  0.00    +0.000 OA
BRANCH  12  19
ATOM     13  O   UNL     1     112.639 129.257 136.970  0.00  0.00    +0.000 OA
ATOM     14  O   UNL     1     113.309 130.995 138.108  0.00  0.00    +0.000 OA
ATOM     15  O   UNL     1     114.576 130.795 137.070  0.00  0.00    +0.000 OA
ATOM     16  O   UNL     1     114.551 129.569 135.965  0.00  0.00    +0.000 OA
ATOM     17  C   UNL     1     113.296 130.382 137.555  0.00  0.00    +0.000 C 
ATOM     18  C   UNL     1     113.930 130.282 137.036  0.00  0.00    +0.000 C 
ATOM     19  C   UNL     1     112.651 129.869 137.522  0.00  0.00    +0.000 C 
ATOM     20  C   UNL     1     113.917 129.669 136.484  0.00  0.00    +0.000 C 
ATOM     21  C   UNL     1     113.271 129.157 136.451  0.00  0.00    +0.000 C 
BRANCH  21  23
ATOM     22  O   UNL     1     112.556 128.141 135.745  0.00  0.00    +0.000 OA
ATOM     23  C   UNL     1     113.260 128.544 135.898  0.00  0.00    +0.000 C 
ENDBRANCH  21  23
ENDBRANCH  12  19
ENDBRANCH  11  12
ENDBRANCH   6  11
ENDBRANCH   1  10
BRANCH   1  25
ATOM     24  O   UNL     1     111.865 126.173 139.910  0.00  0.00    +0.000 OA
ATOM     25  C   UNL     1     110.350 127.619 139.293  0.00  0.00    +0.000 A 
ATOM     26  C   UNL     1     110.927 127.239 139.744  0.00  0.00    +0.000 A 
ATOM     27  C   UNL     1     110.133 127.313 138.558  0.00  0.00    +0.000 A 
ATOM     28  C   UNL     1     111.288 126.553 139.459  0.00  0.00    +0.000 A 
ATOM     29  C   UNL     1     110.493 126.628 138.274  0.00  0.00    +0.000 A 
ATOM     30  C   UNL     1     111.070 126.247 138.724  0.00  0.00    +0.000 A 
BRANCH  26  31
ATOM     31  O   UNL     1     111.145 127.545 140.479  0.00  0.00    +0.000 OA
ATOM     32  C   UNL     1     110.960 127.131 141.168  0.00  0.00    +0.000 C 
ENDBRANCH  26  31
BRANCH  29  33
ATOM     33  O   UNL     1     110.275 126.322 137.539  0.00  0.00    +0.000 OA
ATOM     34  C   UNL     1     109.555 126.536 137.200  0.00  0.00    +0.000 C 
ENDBRANCH  29  33
BRANCH  30  36
ATOM     35  O   UNL     1     111.077 124.828 138.567  0.00  0.00    +0.000 OA
ATOM     36  C   UNL     1     111.430 125.562 138.441  0.00  0.00    +0.000 C 
BRANCH  36  37
ATOM     37  C   UNL     1     112.144 125.610 138.030  0.00  0.00    +0.000 C 
BRANCH  37  38
ATOM     38  C   UNL     1     112.523 124.923 137.777  0.00  0.00    +0.000 C 
BRANCH  38  39
ATOM     39  C   UNL     1     113.234 124.972 137.363  0.00  0.00    +0.000 A 
ATOM     40  C   UNL     1     113.251 124.813 136.553  0.00  0.00    +0.000 A 
ATOM     41  C   UNL     1     113.928 125.179 137.757  0.00  0.00    +0.000 A 
ATOM     42  C   UNL     1     113.963 124.862 136.138  0.00  0.00    +0.000 A 
ATOM     43  C   UNL     1     114.639 125.228 137.343  0.00  0.00    +0.000 A 
ATOM     44  C   UNL     1     114.657 125.070 136.533  0.00  0.00    +0.000 A 
ENDBRANCH  38  39
ENDBRANCH  37  38
ENDBRANCH  36  37
ENDBRANCH  30  36
ENDBRANCH   1  25
TORSDOF 12
ENDMDL
MODEL 7
REMARK VINA RESULT:      -8.4      2.266      4.112
REMARK  Name = 42607710
REMARK  12 active torsions:
REMARK  status: ('A' for Active; 'I' for Inactive)
REMARK    1  A    between atoms: O_3  and  C_21
REMARK    2  A    between atoms: O_3  and  C_26
REMARK    3  A    between atoms: O_6  and  C_25
REMARK    4  A    between atoms: O_6  and  C_28
REMARK    5  A    between atoms: O_12  and  C_29
REMARK    6  A    between atoms: O_13  and  C_32
REMARK    7  A    between atoms: C_16  and  C_26
REMARK    8  A    between atoms: C_24  and  C_27
REMARK    9  A    between atoms: C_33  and  C_34
REMARK   10  A    between atoms: C_34  and  C_35
REMARK   11  A    between atoms: C_35  and  C_36
REMARK   12  A    between atoms: C_36  and  C_38
REMARK                            x       y       z     vdW  Elec       q    Type
REMARK                         _______ _______ _______ _____ _____    ______ ____
ROOT
ATOM      1  O   UNL     1     112.767 127.487 140.409  0.00  0.00    +0.000 OA
ENDROOT
BRANCH   1  10
ATOM      2  O   UNL     1     112.726 128.698 139.651  0.00  0.00    +0.000 OA
ATOM      3  O   UNL     1     114.136 130.361 139.540  0.00  0.00    +0.000 OA
ATOM      4  O   UNL     1     114.901 129.376 140.619  0.00  0.00    +0.000 OA
ATOM      5  O   UNL     1     114.217 127.939 141.054  0.00  0.00    +0.000 OA
ATOM      6  C   UNL     1     113.068 129.417 139.434  0.00  0.00    +0.000 C 
ATOM      7  C   UNL     1     113.793 129.643 139.757  0.00  0.00    +0.000 C 
ATOM      8  C   UNL     1     114.176 129.150 140.297  0.00  0.00    +0.000 C 
ATOM      9  C   UNL     1     113.834 128.431 140.514  0.00  0.00    +0.000 C 
ATOM     10  C   UNL     1     113.109 128.206 140.191  0.00  0.00    +0.000 C 
BRANCH   6  11
ATOM     11  C   UNL     1     112.686 129.910 138.895  0.00  0.00    +0.000 C 
BRANCH  11  12
ATOM     12  O   UNL     1     112.362 129.594 138.204  0.00  0.00    +0.000 OA
BRANCH  12  19
ATOM     13  O   UNL     1     111.636 130.805 137.979  0.00  0.00    +0.000 OA
ATOM     14  O   UNL     1     111.931 129.057 136.705  0.00  0.00    +0.000 OA
ATOM     15  O   UNL     1     110.990 129.999 135.730  0.00  0.00    +0.000 OA
ATOM     16  O   UNL     1     110.479 131.478 136.255  0.00  0.00    +0.000 OA
ATOM     17  C   UNL     1     111.676 129.797 136.968  0.00  0.00    +0.000 C 
ATOM     18  C   UNL     1     111.205 130.267 136.480  0.00  0.00    +0.000 C 
ATOM     19  C   UNL     1     111.891 130.066 137.717  0.00  0.00    +0.000 C 
ATOM     20  C   UNL     1     110.950 131.007 136.743  0.00  0.00    +0.000 C 
ATOM     21  C   UNL     1     111.166 131.275 137.492  0.00  0.00    +0.000 C 
BRANCH  21  23
ATOM     22  O   UNL     1     110.566 132.092 138.500  0.00  0.00    +0.000 OA
ATOM     23  C   UNL     1     110.910 132.015 137.754  0.00  0.00    +0.000 C 
ENDBRANCH  21  23
ENDBRANCH  12  19
ENDBRANCH  11  12
ENDBRANCH   6  11
ENDBRANCH   1  10
BRANCH   1  25
ATOM     24  O   UNL     1     110.493 126.124 139.341  0.00  0.00    +0.000 OA
ATOM     25  C   UNL     1     112.431 126.999 139.833  0.00  0.00    +0.000 A 
ATOM     26  C   UNL     1     111.630 126.806 139.875  0.00  0.00    +0.000 A 
ATOM     27  C   UNL     1     112.895 126.706 139.218  0.00  0.00    +0.000 A 
ATOM     28  C   UNL     1     111.293 126.318 139.300  0.00  0.00    +0.000 A 
ATOM     29  C   UNL     1     112.559 126.219 138.644  0.00  0.00    +0.000 A 
ATOM     30  C   UNL     1     111.758 126.024 138.685  0.00  0.00    +0.000 A 
BRANCH  26  31
ATOM     31  O   UNL     1     111.165 127.099 140.490  0.00  0.00    +0.000 OA
ATOM     32  C   UNL     1     110.882 126.588 141.072  0.00  0.00    +0.000 C 
ENDBRANCH  26  31
BRANCH  29  33
ATOM     33  O   UNL     1     113.024 125.925 138.029  0.00  0.00    +0.000 OA
ATOM     34  C   UNL     1     113.842 125.872 138.118  0.00  0.00    +0.000 C 
ENDBRANCH  29  33
BRANCH  30  36
ATOM     35  O   UNL     1     111.386 124.723 138.230  0.00  0.00    +0.000 OA
ATOM     36  C   UNL     1     111.422 125.538 138.111  0.00  0.00    +0.000 C 
BRANCH  36  37
ATOM     37  C   UNL     1     111.121 125.866 137.416  0.00  0.00    +0.000 C 
BRANCH  37  38
ATOM     38  C   UNL     1     110.711 125.392 136.880  0.00  0.00    +0.000 C 
BRANCH  38  39
ATOM     39  C   UNL     1     110.453 125.709 136.162  0.00  0.00    +0.000 A 
ATOM     40  C   UNL     1     110.792 125.454 135.454  0.00  0.00    +0.000 A 
ATOM     41  C   UNL     1     109.858 126.279 136.154  0.00  0.00    +0.000 A 
ATOM     42  C   UNL     1     110.534 125.770 134.737  0.00  0.00    +0.000 A 
ATOM     43  C   UNL     1     109.600 126.595 135.437  0.00  0.00    +0.000 A 
ATOM     44  C   UNL     1     109.938 126.341 134.728  0.00  0.00    +0.000 A 
ENDBRANCH  38  39
ENDBRANCH  37  38
ENDBRANCH  36  37
ENDBRANCH  30  36
ENDBRANCH   1  25
TORSDOF 12
ENDMDL
MODEL 8
REMARK VINA RESULT:      -8.4      1.966      3.828
REMARK  Name = 42607710
REMARK  12 active torsions:
REMARK  status: ('A' for Active; 'I' for Inactive)
REMARK    1  A    between atoms: O_3  and  C_21
REMARK    2  A    between atoms: O_3  and  C_26
REMARK    3  A    between atoms: O_6  and  C_25
REMARK    4  A    between atoms: O_6  and  C_28
REMARK    5  A    between atoms: O_12  and  C_29
REMARK    6  A    between atoms: O_13  and  C_32
REMARK    7  A    between atoms: C_16  and  C_26
REMARK    8  A    between atoms: C_24  and  C_27
REMARK    9  A    between atoms: C_33  and  C_34
REMARK   10  A    between atoms: C_34  and  C_35
REMARK   11  A    between atoms: C_35  and  C_36
REMARK   12  A    between atoms: C_36  and  C_38
REMARK                            x       y       z     vdW  Elec       q    Type
REMARK                         _______ _______ _______ _____ _____    ______ ____
ROOT
ATOM      1  O   UNL     1     110.223 129.645 136.738  0.00  0.00    +0.000 OA
ENDROOT
BRANCH   1  10
ATOM      2  O   UNL     1     110.753 129.479 138.054  0.00  0.00    +0.000 OA
ATOM      3  O   UNL     1     111.737 130.900 139.388  0.00  0.00    +0.000 OA
ATOM      4  O   UNL     1     111.433 131.859 138.080  0.00  0.00    +0.000 OA
ATOM      5  O   UNL     1     110.676 131.232 136.755  0.00  0.00    +0.000 OA
ATOM      6  C   UNL     1     111.132 129.793 138.717  0.00  0.00    +0.000 C 
ATOM      7  C   UNL     1     111.358 130.586 138.725  0.00  0.00    +0.000 C 
ATOM      8  C   UNL     1     111.206 131.065 138.071  0.00  0.00    +0.000 C 
ATOM      9  C   UNL     1     110.828 130.751 137.409  0.00  0.00    +0.000 C 
ATOM     10  C   UNL     1     110.601 129.959 137.400  0.00  0.00    +0.000 C 
BRANCH   6  11
ATOM     11  C   UNL     1     111.284 129.314 139.371  0.00  0.00    +0.000 C 
BRANCH  11  12
ATOM     12  O   UNL     1     110.721 128.766 139.622  0.00  0.00    +0.000 OA
BRANCH  12  19
ATOM     13  O   UNL     1     111.557 127.618 139.774  0.00  0.00    +0.000 OA
ATOM     14  O   UNL     1     109.980 128.416 141.054  0.00  0.00    +0.000 OA
ATOM     15  O   UNL     1     110.446 127.093 141.922  0.00  0.00    +0.000 OA
ATOM     16  O   UNL     1     111.653 126.119 141.358  0.00  0.00    +0.000 OA
ATOM     17  C   UNL     1     110.584 127.929 140.772  0.00  0.00    +0.000 C 
ATOM     18  C   UNL     1     110.816 127.268 141.206  0.00  0.00    +0.000 C 
ATOM     19  C   UNL     1     110.954 128.104 140.056  0.00  0.00    +0.000 C 
ATOM     20  C   UNL     1     111.420 126.781 140.924  0.00  0.00    +0.000 C 
ATOM     21  C   UNL     1     111.790 126.956 140.208  0.00  0.00    +0.000 C 
BRANCH  21  23
ATOM     22  O   UNL     1     112.785 126.661 139.225  0.00  0.00    +0.000 OA
ATOM     23  C   UNL     1     112.394 126.469 139.926  0.00  0.00    +0.000 C 
ENDBRANCH  21  23
ENDBRANCH  12  19
ENDBRANCH  11  12
ENDBRANCH   6  11
ENDBRANCH   1  10
BRANCH   1  25
ATOM     24  O   UNL     1     109.564 126.980 135.945  0.00  0.00    +0.000 OA
ATOM     25  C   UNL     1     110.453 128.910 136.440  0.00  0.00    +0.000 A 
ATOM     26  C   UNL     1     109.893 128.312 136.341  0.00  0.00    +0.000 A 
ATOM     27  C   UNL     1     111.242 128.774 136.242  0.00  0.00    +0.000 A 
ATOM     28  C   UNL     1     110.124 127.577 136.044  0.00  0.00    +0.000 A 
ATOM     29  C   UNL     1     111.472 128.040 135.945  0.00  0.00    +0.000 A 
ATOM     30  C   UNL     1     110.913 127.441 135.845  0.00  0.00    +0.000 A 
BRANCH  26  31
ATOM     31  O   UNL     1     109.104 128.448 136.539  0.00  0.00    +0.000 OA
ATOM     32  C   UNL     1     108.536 128.516 135.945  0.00  0.00    +0.000 C 
ENDBRANCH  26  31
BRANCH  29  33
ATOM     33  O   UNL     1     112.261 127.904 135.747  0.00  0.00    +0.000 OA
ATOM     34  C   UNL     1     112.769 128.540 135.615  0.00  0.00    +0.000 C 
ENDBRANCH  29  33
BRANCH  30  36
ATOM     35  O   UNL     1     111.065 126.545 134.744  0.00  0.00    +0.000 OA
ATOM     36  C   UNL     1     111.142 126.707 135.548  0.00  0.00    +0.000 C 
BRANCH  36  37
ATOM     37  C   UNL     1     111.450 126.135 136.056  0.00  0.00    +0.000 C 
BRANCH  37  38
ATOM     38  C   UNL     1     111.558 125.362 135.790  0.00  0.00    +0.000 C 
BRANCH  38  39
ATOM     39  C   UNL     1     111.948 124.812 136.265  0.00  0.00    +0.000 A 
ATOM     40  C   UNL     1     111.516 124.325 136.772  0.00  0.00    +0.000 A 
ATOM     41  C   UNL     1     112.770 124.749 136.234  0.00  0.00    +0.000 A 
ATOM     42  C   UNL     1     111.906 123.775 137.247  0.00  0.00    +0.000 A 
ATOM     43  C   UNL     1     113.160 124.199 136.709  0.00  0.00    +0.000 A 
ATOM     44  C   UNL     1     112.728 123.712 137.216  0.00  0.00    +0.000 A 
ENDBRANCH  38  39
ENDBRANCH  37  38
ENDBRANCH  36  37
ENDBRANCH  30  36
ENDBRANCH   1  25
TORSDOF 12
ENDMDL
MODEL 9
REMARK VINA RESULT:      -8.4      2.354      3.791
REMARK  Name = 42607710
REMARK  12 active torsions:
REMARK  status: ('A' for Active; 'I' for Inactive)
REMARK    1  A    between atoms: O_3  and  C_21
REMARK    2  A    between atoms: O_3  and  C_26
REMARK    3  A    between atoms: O_6  and  C_25
REMARK    4  A    between atoms: O_6  and  C_28
REMARK    5  A    between atoms: O_12  and  C_29
REMARK    6  A    between atoms: O_13  and  C_32
REMARK    7  A    between atoms: C_16  and  C_26
REMARK    8  A    between atoms: C_24  and  C_27
REMARK    9  A    between atoms: C_33  and  C_34
REMARK   10  A    between atoms: C_34  and  C_35
REMARK   11  A    between atoms: C_35  and  C_36
REMARK   12  A    between atoms: C_36  and  C_38
REMARK                            x       y       z     vdW  Elec       q    Type
REMARK                         _______ _______ _______ _____ _____    ______ ____
ROOT
ATOM      1  O   UNL     1     112.291 125.557 136.965  0.00  0.00    +0.000 OA
ENDROOT
BRANCH   1  10
ATOM      2  O   UNL     1     112.147 126.834 136.340  0.00  0.00    +0.000 OA
ATOM      3  O   UNL     1     110.839 127.492 134.721  0.00  0.00    +0.000 OA
ATOM      4  O   UNL     1     110.401 125.907 134.850  0.00  0.00    +0.000 OA
ATOM      5  O   UNL     1     111.127 124.939 135.972  0.00  0.00    +0.000 OA
ATOM      6  C   UNL     1     111.784 127.318 135.779  0.00  0.00    +0.000 C 
ATOM      7  C   UNL     1     111.202 127.009 135.282  0.00  0.00    +0.000 C 
ATOM      8  C   UNL     1     110.984 126.216 135.347  0.00  0.00    +0.000 C 
ATOM      9  C   UNL     1     111.347 125.732 135.908  0.00  0.00    +0.000 C 
ATOM     10  C   UNL     1     111.928 126.041 136.404  0.00  0.00    +0.000 C 
BRANCH   6  11
ATOM     11  C   UNL     1     112.002 128.111 135.714  0.00  0.00    +0.000 C 
BRANCH  11  12
ATOM     12  O   UNL     1     112.792 128.330 135.805  0.00  0.00    +0.000 OA
BRANCH  12  19
ATOM     13  O   UNL     1     112.561 129.388 136.737  0.00  0.00    +0.000 OA
ATOM     14  O   UNL     1     114.010 129.204 135.115  0.00  0.00    +0.000 OA
ATOM     15  O   UNL     1     114.388 130.699 135.702  0.00  0.00    +0.000 OA
ATOM     16  O   UNL     1     113.548 131.320 136.979  0.00  0.00    +0.000 OA
ATOM     17  C   UNL     1     113.590 129.515 135.754  0.00  0.00    +0.000 C 
ATOM     18  C   UNL     1     113.779 130.262 136.047  0.00  0.00    +0.000 C 
ATOM     19  C   UNL     1     112.981 129.078 136.099  0.00  0.00    +0.000 C 
ATOM     20  C   UNL     1     113.359 130.572 136.685  0.00  0.00    +0.000 C 
ATOM     21  C   UNL     1     112.750 130.135 137.030  0.00  0.00    +0.000 C 
BRANCH  21  23
ATOM     22  O   UNL     1     111.795 129.972 138.080  0.00  0.00    +0.000 OA
ATOM     23  C   UNL     1     112.330 130.446 137.669  0.00  0.00    +0.000 C 
ENDBRANCH  21  23
ENDBRANCH  12  19
ENDBRANCH  11  12
ENDBRANCH   6  11
ENDBRANCH   1  10
BRANCH   1  25
ATOM     24  O   UNL     1     114.250 126.179 138.951  0.00  0.00    +0.000 OA
ATOM     25  C   UNL     1     112.484 125.860 137.708  0.00  0.00    +0.000 A 
ATOM     26  C   UNL     1     113.270 125.868 137.958  0.00  0.00    +0.000 A 
ATOM     27  C   UNL     1     111.891 126.154 138.201  0.00  0.00    +0.000 A 
ATOM     28  C   UNL     1     113.464 126.171 138.701  0.00  0.00    +0.000 A 
ATOM     29  C   UNL     1     112.084 126.456 138.943  0.00  0.00    +0.000 A 
ATOM     30  C   UNL     1     112.871 126.465 139.194  0.00  0.00    +0.000 A 
BRANCH  26  31
ATOM     31  O   UNL     1     113.863 125.574 137.465  0.00  0.00    +0.000 OA
ATOM     32  C   UNL     1     114.267 124.885 137.672  0.00  0.00    +0.000 C 
ENDBRANCH  26  31
BRANCH  29  33
ATOM     33  O   UNL     1     111.492 126.750 139.435  0.00  0.00    +0.000 OA
ATOM     34  C   UNL     1     110.703 126.554 139.295  0.00  0.00    +0.000 C 
ENDBRANCH  29  33
BRANCH  30  36
ATOM     35  O   UNL     1     113.048 126.277 140.598  0.00  0.00    +0.000 OA
ATOM     36  C   UNL     1     113.064 126.767 139.936  0.00  0.00    +0.000 C 
BRANCH  36  37
ATOM     37  C   UNL     1     113.273 127.561 140.016  0.00  0.00    +0.000 C 
BRANCH  37  38
ATOM     38  C   UNL     1     113.537 127.848 140.743  0.00  0.00    +0.000 C 
BRANCH  38  39
ATOM     39  C   UNL     1     113.665 128.656 140.847  0.00  0.00    +0.000 A 
ATOM     40  C   UNL     1     113.112 129.112 141.256  0.00  0.00    +0.000 A 
ATOM     41  C   UNL     1     114.346 129.007 140.543  0.00  0.00    +0.000 A 
ATOM     42  C   UNL     1     113.241 129.920 141.360  0.00  0.00    +0.000 A 
ATOM     43  C   UNL     1     114.475 129.816 140.647  0.00  0.00    +0.000 A 
ATOM     44  C   UNL     1     113.922 130.272 141.055  0.00  0.00    +0.000 A 
ENDBRANCH  38  39
ENDBRANCH  37  38
ENDBRANCH  36  37
ENDBRANCH  30  36
ENDBRANCH   1  25
TORSDOF 12
ENDMDL
MODEL 10
REMARK VINA RESULT:      -8.4      1.980      5.153
REMARK  Name = 42607710
REMARK  12 active torsions:
REMARK  status: ('A' for Active; 'I' for Inactive)
REMARK    1  A    between atoms: O_3  and  C_21
REMARK    2  A    between atoms: O_3  and  C_26
REMARK    3  A    between atoms: O_6  and  C_25
REMARK    4  A    between atoms: O_6  and  C_28
REMARK    5  A    between atoms: O_12  and  C_29
REMARK    6  A    between atoms: O_13  and  C_32
REMARK    7  A    between atoms: C_16  and  C_26
REMARK    8  A    between atoms: C_24  and  C_27
REMARK    9  A    between atoms: C_33  and  C_34
REMARK   10  A    between atoms: C_34  and  C_35
REMARK   11  A    between atoms: C_35  and  C_36
REMARK   12  A    between atoms: C_36  and  C_38
REMARK                            x       y       z     vdW  Elec       q    Type
REMARK                         _______ _______ _______ _____ _____    ______ ____
ROOT
ATOM      1  O   UNL     1     113.254 130.058 138.261  0.00  0.00    +0.000 OA
ENDROOT
BRANCH   1  10
ATOM      2  O   UNL     1     113.222 128.753 138.841  0.00  0.00    +0.000 OA
ATOM      3  O   UNL     1     113.672 128.079 140.869  0.00  0.00    +0.000 OA
ATOM      4  O   UNL     1     113.945 129.701 141.011  0.00  0.00    +0.000 OA
ATOM      5  O   UNL     1     113.736 130.690 139.707  0.00  0.00    +0.000 OA
ATOM      6  C   UNL     1     113.327 128.258 139.493  0.00  0.00    +0.000 C 
ATOM      7  C   UNL     1     113.568 128.574 140.217  0.00  0.00    +0.000 C 
ATOM      8  C   UNL     1     113.704 129.385 140.287  0.00  0.00    +0.000 C 
ATOM      9  C   UNL     1     113.599 129.879 139.635  0.00  0.00    +0.000 C 
ATOM     10  C   UNL     1     113.359 129.564 138.913  0.00  0.00    +0.000 C 
BRANCH   6  11
ATOM     11  C   UNL     1     113.191 127.448 139.422  0.00  0.00    +0.000 C 
BRANCH  11  12
ATOM     12  O   UNL     1     113.408 127.051 138.733  0.00  0.00    +0.000 OA
BRANCH  12  19
ATOM     13  O   UNL     1     112.149 126.381 138.641  0.00  0.00    +0.000 OA
ATOM     14  O   UNL     1     114.105 125.866 137.820  0.00  0.00    +0.000 OA
ATOM     15  O   UNL     1     113.194 124.603 137.273  0.00  0.00    +0.000 OA
ATOM     16  O   UNL     1     111.587 124.526 137.637  0.00  0.00    +0.000 OA
ATOM     17  C   UNL     1     113.301 125.827 138.003  0.00  0.00    +0.000 C 
ATOM     18  C   UNL     1     112.846 125.196 137.729  0.00  0.00    +0.000 C 
ATOM     19  C   UNL     1     112.952 126.420 138.459  0.00  0.00    +0.000 C 
ATOM     20  C   UNL     1     112.042 125.158 137.912  0.00  0.00    +0.000 C 
ATOM     21  C   UNL     1     111.694 125.751 138.368  0.00  0.00    +0.000 C 
BRANCH  21  23
ATOM     22  O   UNL     1     110.439 126.402 138.573  0.00  0.00    +0.000 OA
ATOM     23  C   UNL     1     110.890 125.712 138.550  0.00  0.00    +0.000 C 
ENDBRANCH  21  23
ENDBRANCH  12  19
ENDBRANCH  11  12
ENDBRANCH   6  11
ENDBRANCH   1  10
BRANCH   1  25
ATOM     24  O   UNL     1     112.777 129.313 135.544  0.00  0.00    +0.000 OA
ATOM     25  C   UNL     1     112.731 129.844 137.660  0.00  0.00    +0.000 A 
ATOM     26  C   UNL     1     113.016 129.686 136.902  0.00  0.00    +0.000 A 
ATOM     27  C   UNL     1     111.923 129.789 137.817  0.00  0.00    +0.000 A 
ATOM     28  C   UNL     1     112.492 129.471 136.301  0.00  0.00    +0.000 A 
ATOM     29  C   UNL     1     111.400 129.575 137.216  0.00  0.00    +0.000 A 
ATOM     30  C   UNL     1     111.684 129.416 136.458  0.00  0.00    +0.000 A 
BRANCH  26  31
ATOM     31  O   UNL     1     113.824 129.741 136.745  0.00  0.00    +0.000 OA
ATOM     32  C   UNL     1     114.107 130.334 136.247  0.00  0.00    +0.000 C 
ENDBRANCH  26  31
BRANCH  29  33
ATOM     33  O   UNL     1     110.592 129.520 137.373  0.00  0.00    +0.000 OA
ATOM     34  C   UNL     1     110.277 129.873 138.049  0.00  0.00    +0.000 C 
ENDBRANCH  29  33
BRANCH  30  36
ATOM     35  O   UNL     1     110.830 129.781 135.374  0.00  0.00    +0.000 OA
ATOM     36  C   UNL     1     111.161 129.202 135.858  0.00  0.00    +0.000 C 
BRANCH  36  37
ATOM     37  C   UNL     1     110.970 128.408 135.741  0.00  0.00    +0.000 C 
BRANCH  37  38
ATOM     38  C   UNL     1     110.461 128.192 135.129  0.00  0.00    +0.000 C 
BRANCH  38  39
ATOM     39  C   UNL     1     110.227 127.405 135.045  0.00  0.00    +0.000 A 
ATOM     40  C   UNL     1     109.483 127.166 135.312  0.00  0.00    +0.000 A 
ATOM     41  C   UNL     1     110.735 126.859 134.696  0.00  0.00    +0.000 A 
ATOM     42  C   UNL     1     109.249 126.379 135.228  0.00  0.00    +0.000 A 
ATOM     43  C   UNL     1     110.501 126.072 134.612  0.00  0.00    +0.000 A 
ATOM     44  C   UNL     1     109.758 125.832 134.878  0.00  0.00    +0.000 A 
ENDBRANCH  38  39
ENDBRANCH  37  38
ENDBRANCH  36  37
ENDBRANCH  30  36
ENDBRANCH   1  25
TORSDOF 12
ENDMDL
