MODEL 1
REMARK VINA RESULT:      -9.4      0.000      0.000
REMARK  Name = 44258125
REMARK  8 active torsions:
REMARK  status: ('A' for Active; 'I' for Inactive)
REMARK    1  A    between atoms: O_4  and  C_17
REMARK    2  A    between atoms: O_4  and  C_19
REMARK    3  A    between atoms: O_6  and  C_18
REMARK    4  A    between atoms: O_6  and  C_21
REMARK    5  A    between atoms: C_15  and  C_18
REMARK    6  A    between atoms: C_20  and  C_21
REMARK    7  A    between atoms: C_20  and  C_24
REMARK    8  A    between atoms: C_31  and  C_33
REMARK                            x       y       z     vdW  Elec       q    Type
REMARK                         _______ _______ _______ _____ _____    ______ ____
ROOT
ATOM      1  O   UNL     1     111.618 125.947 136.974  0.00  0.00    +0.000 OA
ATOM      2  O   UNL     1     109.237 126.214 138.588  0.00  0.00    +0.000 OA
ATOM      3  O   UNL     1     110.391 125.500 139.077  0.00  0.00    +0.000 OA
ATOM      4  C   UNL     1     109.683 126.973 136.528  0.00  0.00    +0.000 A 
ATOM      5  C   UNL     1     110.485 126.676 136.434  0.00  0.00    +0.000 A 
ATOM      6  C   UNL     1     109.257 126.817 137.258  0.00  0.00    +0.000 A 
ATOM      7  C   UNL     1     110.849 126.229 137.070  0.00  0.00    +0.000 A 
ATOM      8  C   UNL     1     110.440 126.080 137.771  0.00  0.00    +0.000 A 
ATOM      9  C   UNL     1     109.638 126.368 137.884  0.00  0.00    +0.000 A 
ATOM     10  C   UNL     1     110.800 125.649 138.375  0.00  0.00    +0.000 A 
ATOM     11  C   UNL     1     111.978 125.516 137.578  0.00  0.00    +0.000 A 
ATOM     12  C   UNL     1     111.569 125.367 138.279  0.00  0.00    +0.000 A 
ENDROOT
BRANCH  11  15
ATOM     13  O   UNL     1     114.765 125.668 138.195  0.00  0.00    +0.000 OA
ATOM     14  O   UNL     1     115.056 124.389 137.194  0.00  0.00    +0.000 OA
ATOM     15  C   UNL     1     112.748 125.234 137.482  0.00  0.00    +0.000 A 
ATOM     16  C   UNL     1     113.372 125.593 137.887  0.00  0.00    +0.000 A 
ATOM     17  C   UNL     1     112.893 124.595 136.982  0.00  0.00    +0.000 A 
ATOM     18  C   UNL     1     114.141 125.311 137.791  0.00  0.00    +0.000 A 
ATOM     19  C   UNL     1     113.662 124.314 136.886  0.00  0.00    +0.000 A 
ATOM     20  C   UNL     1     114.286 124.671 137.290  0.00  0.00    +0.000 A 
ENDBRANCH  11  15
BRANCH   4  21
ATOM     21  O   UNL     1     109.325 127.403 135.922  0.00  0.00    +0.000 OA
BRANCH  21  30
ATOM     22  O   UNL     1     110.076 128.614 136.038  0.00  0.00    +0.000 OA
ATOM     23  O   UNL     1     109.444 130.701 135.949  0.00  0.00    +0.000 OA
ATOM     24  O   UNL     1     108.002 129.929 135.731  0.00  0.00    +0.000 OA
ATOM     25  O   UNL     1     107.943 128.280 135.717  0.00  0.00    +0.000 OA
ATOM     26  C   UNL     1     109.414 129.876 135.942  0.00  0.00    +0.000 C 
ATOM     27  C   UNL     1     108.693 129.491 135.833  0.00  0.00    +0.000 C 
ATOM     28  C   UNL     1     110.106 129.438 136.045  0.00  0.00    +0.000 C 
ATOM     29  C   UNL     1     108.664 128.665 135.826  0.00  0.00    +0.000 C 
ATOM     30  C   UNL     1     109.355 128.227 135.929  0.00  0.00    +0.000 C 
BRANCH  28  31
ATOM     31  C   UNL     1     110.826 129.824 136.154  0.00  0.00    +0.000 C 
BRANCH  31  32
ATOM     32  O   UNL     1     111.534 129.406 136.087  0.00  0.00    +0.000 OA
BRANCH  32  34
ATOM     33  O   UNL     1     112.280 130.586 136.392  0.00  0.00    +0.000 OA
ATOM     34  C   UNL     1     112.248 129.768 136.284  0.00  0.00    +0.000 C 
BRANCH  34  35
ATOM     35  C   UNL     1     112.930 129.314 136.374  0.00  0.00    +0.000 C 
ATOM     36  C   UNL     1     113.237 129.176 137.127  0.00  0.00    +0.000 C 
BRANCH  35  37
ATOM     37  C   UNL     1     113.307 128.999 135.711  0.00  0.00    +0.000 C 
ATOM     38  C   UNL     1     113.987 128.542 135.801  0.00  0.00    +0.000 C 
ENDBRANCH  35  37
ENDBRANCH  34  35
ENDBRANCH  32  34
ENDBRANCH  31  32
ENDBRANCH  28  31
ENDBRANCH  21  30
ENDBRANCH   4  21
TORSDOF 8
ENDMDL
MODEL 2
REMARK VINA RESULT:      -9.3      1.613      3.407
REMARK  Name = 44258125
REMARK  8 active torsions:
REMARK  status: ('A' for Active; 'I' for Inactive)
REMARK    1  A    between atoms: O_4  and  C_17
REMARK    2  A    between atoms: O_4  and  C_19
REMARK    3  A    between atoms: O_6  and  C_18
REMARK    4  A    between atoms: O_6  and  C_21
REMARK    5  A    between atoms: C_15  and  C_18
REMARK    6  A    between atoms: C_20  and  C_21
REMARK    7  A    between atoms: C_20  and  C_24
REMARK    8  A    between atoms: C_31  and  C_33
REMARK                            x       y       z     vdW  Elec       q    Type
REMARK                         _______ _______ _______ _____ _____    ______ ____
ROOT
ATOM      1  O   UNL     1     112.667 127.586 137.386  0.00  0.00    +0.000 OA
ATOM      2  O   UNL     1     113.200 130.139 136.142  0.00  0.00    +0.000 OA
ATOM      3  O   UNL     1     113.783 128.924 135.627  0.00  0.00    +0.000 OA
ATOM      4  C   UNL     1     111.937 129.630 137.921  0.00  0.00    +0.000 A 
ATOM      5  C   UNL     1     112.055 128.778 137.945  0.00  0.00    +0.000 A 
ATOM      6  C   UNL     1     112.324 130.094 137.310  0.00  0.00    +0.000 A 
ATOM      7  C   UNL     1     112.558 128.403 137.358  0.00  0.00    +0.000 A 
ATOM      8  C   UNL     1     112.930 128.849 136.772  0.00  0.00    +0.000 A 
ATOM      9  C   UNL     1     112.824 129.701 136.732  0.00  0.00    +0.000 A 
ATOM     10  C   UNL     1     113.411 128.478 136.214  0.00  0.00    +0.000 A 
ATOM     11  C   UNL     1     113.149 127.215 136.828  0.00  0.00    +0.000 A 
ATOM     12  C   UNL     1     113.520 127.661 136.242  0.00  0.00    +0.000 A 
ENDROOT
BRANCH  11  15
ATOM     13  O   UNL     1     114.693 124.951 137.639  0.00  0.00    +0.000 OA
ATOM     14  O   UNL     1     113.587 123.946 136.941  0.00  0.00    +0.000 OA
ATOM     15  C   UNL     1     113.258 126.398 136.856  0.00  0.00    +0.000 A 
ATOM     16  C   UNL     1     113.921 126.083 137.234  0.00  0.00    +0.000 A 
ATOM     17  C   UNL     1     112.705 125.895 136.507  0.00  0.00    +0.000 A 
ATOM     18  C   UNL     1     114.031 125.266 137.262  0.00  0.00    +0.000 A 
ATOM     19  C   UNL     1     112.815 125.078 136.535  0.00  0.00    +0.000 A 
ATOM     20  C   UNL     1     113.477 124.764 136.913  0.00  0.00    +0.000 A 
ENDBRANCH  11  15
BRANCH   4  21
ATOM     21  O   UNL     1     111.455 129.998 138.480  0.00  0.00    +0.000 OA
BRANCH  21  30
ATOM     22  O   UNL     1     110.246 129.830 137.738  0.00  0.00    +0.000 OA
ATOM     23  O   UNL     1     108.455 131.073 137.622  0.00  0.00    +0.000 OA
ATOM     24  O   UNL     1     109.374 131.947 138.677  0.00  0.00    +0.000 OA
ATOM     25  O   UNL     1     110.874 131.410 139.106  0.00  0.00    +0.000 OA
ATOM     26  C   UNL     1     109.206 130.804 137.836  0.00  0.00    +0.000 C 
ATOM     27  C   UNL     1     109.665 131.242 138.364  0.00  0.00    +0.000 C 
ATOM     28  C   UNL     1     109.496 130.099 137.523  0.00  0.00    +0.000 C 
ATOM     29  C   UNL     1     110.415 130.973 138.579  0.00  0.00    +0.000 C 
ATOM     30  C   UNL     1     110.706 130.267 138.265  0.00  0.00    +0.000 C 
BRANCH  28  31
ATOM     31  C   UNL     1     109.036 129.662 136.995  0.00  0.00    +0.000 C 
BRANCH  31  32
ATOM     32  O   UNL     1     109.365 129.022 136.593  0.00  0.00    +0.000 OA
BRANCH  32  34
ATOM     33  O   UNL     1     108.144 128.847 135.871  0.00  0.00    +0.000 OA
ATOM     34  C   UNL     1     108.919 128.613 136.032  0.00  0.00    +0.000 C 
BRANCH  34  35
ATOM     35  C   UNL     1     109.246 127.971 135.632  0.00  0.00    +0.000 C 
ATOM     36  C   UNL     1     109.098 127.203 135.894  0.00  0.00    +0.000 C 
BRANCH  35  37
ATOM     37  C   UNL     1     109.722 128.096 134.969  0.00  0.00    +0.000 C 
ATOM     38  C   UNL     1     110.108 127.461 134.612  0.00  0.00    +0.000 C 
ENDBRANCH  35  37
ENDBRANCH  34  35
ENDBRANCH  32  34
ENDBRANCH  31  32
ENDBRANCH  28  31
ENDBRANCH  21  30
ENDBRANCH   4  21
TORSDOF 8
ENDMDL
MODEL 3
REMARK VINA RESULT:      -9.1      2.256      4.321
REMARK  Name = 44258125
REMARK  8 active torsions:
REMARK  status: ('A' for Active; 'I' for Inactive)
REMARK    1  A    between atoms: O_4  and  C_17
REMARK    2  A    between atoms: O_4  and  C_19
REMARK    3  A    between atoms: O_6  and  C_18
REMARK    4  A    between atoms: O_6  and  C_21
REMARK    5  A    between atoms: C_15  and  C_18
REMARK    6  A    between atoms: C_20  and  C_21
REMARK    7  A    between atoms: C_20  and  C_24
REMARK    8  A    between atoms: C_31  and  C_33
REMARK                            x       y       z     vdW  Elec       q    Type
REMARK                         _______ _______ _______ _____ _____    ______ ____
ROOT
ATOM      1  O   UNL     1     112.010 126.642 137.585  0.00  0.00    +0.000 OA
ATOM      2  O   UNL     1     114.520 125.961 138.844  0.00  0.00    +0.000 OA
ATOM      3  O   UNL     1     114.071 125.273 137.658  0.00  0.00    +0.000 OA
ATOM      4  C   UNL     1     112.988 127.497 139.404  0.00  0.00    +0.000 A 
ATOM      5  C   UNL     1     112.415 127.366 138.777  0.00  0.00    +0.000 A 
ATOM      6  C   UNL     1     113.703 127.021 139.429  0.00  0.00    +0.000 A 
ATOM      7  C   UNL     1     112.564 126.763 138.184  0.00  0.00    +0.000 A 
ATOM      8  C   UNL     1     113.251 126.306 138.209  0.00  0.00    +0.000 A 
ATOM      9  C   UNL     1     113.836 126.422 138.828  0.00  0.00    +0.000 A 
ATOM     10  C   UNL     1     113.384 125.729 137.634  0.00  0.00    +0.000 A 
ATOM     11  C   UNL     1     112.143 126.065 137.010  0.00  0.00    +0.000 A 
ATOM     12  C   UNL     1     112.830 125.609 137.035  0.00  0.00    +0.000 A 
ENDROOT
BRANCH  11  15
ATOM     13  O   UNL     1     110.730 127.022 134.717  0.00  0.00    +0.000 OA
ATOM     14  O   UNL     1     109.928 125.584 134.612  0.00  0.00    +0.000 OA
ATOM     15  C   UNL     1     111.589 125.944 136.410  0.00  0.00    +0.000 A 
ATOM     16  C   UNL     1     111.437 126.544 135.864  0.00  0.00    +0.000 A 
ATOM     17  C   UNL     1     111.188 125.225 136.358  0.00  0.00    +0.000 A 
ATOM     18  C   UNL     1     110.883 126.423 135.264  0.00  0.00    +0.000 A 
ATOM     19  C   UNL     1     110.635 125.106 135.759  0.00  0.00    +0.000 A 
ATOM     20  C   UNL     1     110.482 125.704 135.212  0.00  0.00    +0.000 A 
ENDBRANCH  11  15
BRANCH   4  21
ATOM     21  O   UNL     1     112.853 128.074 139.977  0.00  0.00    +0.000 OA
BRANCH  21  30
ATOM     22  O   UNL     1     113.335 129.168 139.194  0.00  0.00    +0.000 OA
ATOM     23  O   UNL     1     114.387 130.989 139.778  0.00  0.00    +0.000 OA
ATOM     24  O   UNL     1     114.189 130.260 141.244  0.00  0.00    +0.000 OA
ATOM     25  O   UNL     1     113.421 128.802 141.344  0.00  0.00    +0.000 OA
ATOM     26  C   UNL     1     114.003 130.260 139.827  0.00  0.00    +0.000 C 
ATOM     27  C   UNL     1     113.904 129.896 140.561  0.00  0.00    +0.000 C 
ATOM     28  C   UNL     1     113.719 129.896 139.144  0.00  0.00    +0.000 C 
ATOM     29  C   UNL     1     113.520 129.166 140.611  0.00  0.00    +0.000 C 
ATOM     30  C   UNL     1     113.236 128.802 139.927  0.00  0.00    +0.000 C 
BRANCH  28  31
ATOM     31  C   UNL     1     113.818 130.261 138.411  0.00  0.00    +0.000 C 
BRANCH  31  32
ATOM     32  O   UNL     1     113.674 129.840 137.717  0.00  0.00    +0.000 OA
BRANCH  32  34
ATOM     33  O   UNL     1     114.043 130.984 136.944  0.00  0.00    +0.000 OA
ATOM     34  C   UNL     1     113.803 130.196 136.983  0.00  0.00    +0.000 C 
BRANCH  34  35
ATOM     35  C   UNL     1     113.692 129.764 136.290  0.00  0.00    +0.000 C 
ATOM     36  C   UNL     1     112.972 129.807 135.889  0.00  0.00    +0.000 C 
BRANCH  35  37
ATOM     37  C   UNL     1     114.299 129.289 135.997  0.00  0.00    +0.000 C 
ATOM     38  C   UNL     1     114.178 128.834 135.320  0.00  0.00    +0.000 C 
ENDBRANCH  35  37
ENDBRANCH  34  35
ENDBRANCH  32  34
ENDBRANCH  31  32
ENDBRANCH  28  31
ENDBRANCH  21  30
ENDBRANCH   4  21
TORSDOF 8
ENDMDL
MODEL 4
REMARK VINA RESULT:      -9.1      1.626      2.556
REMARK  Name = 44258125
REMARK  8 active torsions:
REMARK  status: ('A' for Active; 'I' for Inactive)
REMARK    1  A    between atoms: O_4  and  C_17
REMARK    2  A    between atoms: O_4  and  C_19
REMARK    3  A    between atoms: O_6  and  C_18
REMARK    4  A    between atoms: O_6  and  C_21
REMARK    5  A    between atoms: C_15  and  C_18
REMARK    6  A    between atoms: C_20  and  C_21
REMARK    7  A    between atoms: C_20  and  C_24
REMARK    8  A    between atoms: C_31  and  C_33
REMARK                            x       y       z     vdW  Elec       q    Type
REMARK                         _______ _______ _______ _____ _____    ______ ____
ROOT
ATOM      1  O   UNL     1     112.242 126.578 136.197  0.00  0.00    +0.000 OA
ATOM      2  O   UNL     1     109.740 125.763 135.003  0.00  0.00    +0.000 OA
ATOM      3  O   UNL     1     110.673 124.789 135.514  0.00  0.00    +0.000 OA
ATOM      4  C   UNL     1     110.595 127.809 135.321  0.00  0.00    +0.000 A 
ATOM      5  C   UNL     1     111.338 127.600 135.699  0.00  0.00    +0.000 A 
ATOM      6  C   UNL     1     110.051 127.188 135.084  0.00  0.00    +0.000 A 
ATOM      7  C   UNL     1     111.527 126.773 135.834  0.00  0.00    +0.000 A 
ATOM      8  C   UNL     1     111.004 126.177 135.606  0.00  0.00    +0.000 A 
ATOM      9  C   UNL     1     110.257 126.366 135.228  0.00  0.00    +0.000 A 
ATOM     10  C   UNL     1     111.196 125.386 135.741  0.00  0.00    +0.000 A 
ATOM     11  C   UNL     1     112.433 125.787 136.332  0.00  0.00    +0.000 A 
ATOM     12  C   UNL     1     111.910 125.191 136.104  0.00  0.00    +0.000 A 
ENDROOT
BRANCH  11  15
ATOM     13  O   UNL     1     115.208 125.128 136.140  0.00  0.00    +0.000 OA
ATOM     14  O   UNL     1     115.293 125.007 137.783  0.00  0.00    +0.000 OA
ATOM     15  C   UNL     1     113.148 125.592 136.695  0.00  0.00    +0.000 A 
ATOM     16  C   UNL     1     113.821 125.457 136.236  0.00  0.00    +0.000 A 
ATOM     17  C   UNL     1     113.191 125.531 137.517  0.00  0.00    +0.000 A 
ATOM     18  C   UNL     1     114.535 125.262 136.598  0.00  0.00    +0.000 A 
ATOM     19  C   UNL     1     113.906 125.336 137.879  0.00  0.00    +0.000 A 
ATOM     20  C   UNL     1     114.578 125.202 137.420  0.00  0.00    +0.000 A 
ENDBRANCH  11  15
BRANCH   4  21
ATOM     21  O   UNL     1     110.405 128.601 135.188  0.00  0.00    +0.000 OA
BRANCH  21  30
ATOM     22  O   UNL     1     109.953 128.851 136.520  0.00  0.00    +0.000 OA
ATOM     23  O   UNL     1     108.410 130.196 137.277  0.00  0.00    +0.000 OA
ATOM     24  O   UNL     1     108.317 130.494 135.657  0.00  0.00    +0.000 OA
ATOM     25  O   UNL     1     109.315 129.697 134.612  0.00  0.00    +0.000 OA
ATOM     26  C   UNL     1     108.909 129.797 136.754  0.00  0.00    +0.000 C 
ATOM     27  C   UNL     1     108.862 129.946 135.944  0.00  0.00    +0.000 C 
ATOM     28  C   UNL     1     109.455 129.249 137.042  0.00  0.00    +0.000 C 
ATOM     29  C   UNL     1     109.362 129.547 135.422  0.00  0.00    +0.000 C 
ATOM     30  C   UNL     1     109.907 128.999 135.710  0.00  0.00    +0.000 C 
BRANCH  28  31
ATOM     31  C   UNL     1     109.501 129.100 137.852  0.00  0.00    +0.000 C 
BRANCH  31  32
ATOM     32  O   UNL     1     109.553 128.325 138.127  0.00  0.00    +0.000 OA
BRANCH  32  34
ATOM     33  O   UNL     1     109.468 128.739 139.492  0.00  0.00    +0.000 OA
ATOM     34  C   UNL     1     109.688 128.179 138.928  0.00  0.00    +0.000 C 
BRANCH  34  35
ATOM     35  C   UNL     1     110.043 127.473 139.165  0.00  0.00    +0.000 C 
ATOM     36  C   UNL     1     110.800 127.482 139.493  0.00  0.00    +0.000 C 
BRANCH  35  37
ATOM     37  C   UNL     1     109.642 126.758 139.074  0.00  0.00    +0.000 C 
ATOM     38  C   UNL     1     110.007 126.050 139.287  0.00  0.00    +0.000 C 
ENDBRANCH  35  37
ENDBRANCH  34  35
ENDBRANCH  32  34
ENDBRANCH  31  32
ENDBRANCH  28  31
ENDBRANCH  21  30
ENDBRANCH   4  21
TORSDOF 8
ENDMDL
MODEL 5
REMARK VINA RESULT:      -9.1      1.709      5.559
REMARK  Name = 44258125
REMARK  8 active torsions:
REMARK  status: ('A' for Active; 'I' for Inactive)
REMARK    1  A    between atoms: O_4  and  C_17
REMARK    2  A    between atoms: O_4  and  C_19
REMARK    3  A    between atoms: O_6  and  C_18
REMARK    4  A    between atoms: O_6  and  C_21
REMARK    5  A    between atoms: C_15  and  C_18
REMARK    6  A    between atoms: C_20  and  C_21
REMARK    7  A    between atoms: C_20  and  C_24
REMARK    8  A    between atoms: C_31  and  C_33
REMARK                            x       y       z     vdW  Elec       q    Type
REMARK                         _______ _______ _______ _____ _____    ______ ____
ROOT
ATOM      1  O   UNL     1     112.122 129.006 137.193  0.00  0.00    +0.000 OA
ATOM      2  O   UNL     1     114.325 128.033 135.597  0.00  0.00    +0.000 OA
ATOM      3  O   UNL     1     113.820 129.374 135.429  0.00  0.00    +0.000 OA
ATOM      4  C   UNL     1     113.135 127.013 137.197  0.00  0.00    +0.000 A 
ATOM      5  C   UNL     1     112.592 127.648 137.402  0.00  0.00    +0.000 A 
ATOM      6  C   UNL     1     113.724 127.142 136.585  0.00  0.00    +0.000 A 
ATOM      7  C   UNL     1     112.646 128.401 136.992  0.00  0.00    +0.000 A 
ATOM      8  C   UNL     1     113.212 128.523 136.404  0.00  0.00    +0.000 A 
ATOM      9  C   UNL     1     113.762 127.901 136.186  0.00  0.00    +0.000 A 
ATOM     10  C   UNL     1     113.254 129.250 136.017  0.00  0.00    +0.000 A 
ATOM     11  C   UNL     1     112.164 129.733 136.806  0.00  0.00    +0.000 A 
ATOM     12  C   UNL     1     112.730 129.856 136.218  0.00  0.00    +0.000 A 
ENDROOT
BRANCH  11  15
ATOM     13  O   UNL     1     111.292 131.745 138.639  0.00  0.00    +0.000 OA
ATOM     14  O   UNL     1     110.070 132.153 137.609  0.00  0.00    +0.000 OA
ATOM     15  C   UNL     1     111.640 130.338 137.006  0.00  0.00    +0.000 A 
ATOM     16  C   UNL     1     111.728 130.739 137.723  0.00  0.00    +0.000 A 
ATOM     17  C   UNL     1     111.029 130.543 136.491  0.00  0.00    +0.000 A 
ATOM     18  C   UNL     1     111.205 131.344 137.923  0.00  0.00    +0.000 A 
ATOM     19  C   UNL     1     110.506 131.148 136.692  0.00  0.00    +0.000 A 
ATOM     20  C   UNL     1     110.594 131.548 137.408  0.00  0.00    +0.000 A 
ENDBRANCH  11  15
BRANCH   4  21
ATOM     21  O   UNL     1     113.090 126.287 137.586  0.00  0.00    +0.000 OA
BRANCH  21  30
ATOM     22  O   UNL     1     112.067 125.732 136.757  0.00  0.00    +0.000 OA
ATOM     23  O   UNL     1     111.735 123.686 136.073  0.00  0.00    +0.000 OA
ATOM     24  O   UNL     1     113.103 123.495 136.975  0.00  0.00    +0.000 OA
ATOM     25  O   UNL     1     113.781 124.795 137.731  0.00  0.00    +0.000 OA
ATOM     26  C   UNL     1     112.074 124.337 136.451  0.00  0.00    +0.000 C 
ATOM     27  C   UNL     1     112.758 124.241 136.902  0.00  0.00    +0.000 C 
ATOM     28  C   UNL     1     111.728 125.083 136.379  0.00  0.00    +0.000 C 
ATOM     29  C   UNL     1     113.097 124.892 137.281  0.00  0.00    +0.000 C 
ATOM     30  C   UNL     1     112.752 125.637 137.208  0.00  0.00    +0.000 C 
BRANCH  28  31
ATOM     31  C   UNL     1     111.044 125.178 135.927  0.00  0.00    +0.000 C 
BRANCH  31  32
ATOM     32  O   UNL     1     110.695 125.922 135.858  0.00  0.00    +0.000 OA
BRANCH  32  34
ATOM     33  O   UNL     1     109.698 125.380 134.990  0.00  0.00    +0.000 OA
ATOM     34  C   UNL     1     110.053 126.031 135.351  0.00  0.00    +0.000 C 
BRANCH  34  35
ATOM     35  C   UNL     1     109.768 126.791 135.205  0.00  0.00    +0.000 C 
ATOM     36  C   UNL     1     110.109 127.253 134.613  0.00  0.00    +0.000 C 
BRANCH  35  37
ATOM     37  C   UNL     1     109.140 127.089 135.650  0.00  0.00    +0.000 C 
ATOM     38  C   UNL     1     108.968 127.895 135.633  0.00  0.00    +0.000 C 
ENDBRANCH  35  37
ENDBRANCH  34  35
ENDBRANCH  32  34
ENDBRANCH  31  32
ENDBRANCH  28  31
ENDBRANCH  21  30
ENDBRANCH   4  21
TORSDOF 8
ENDMDL
MODEL 6
REMARK VINA RESULT:      -9.0      1.702      4.129
REMARK  Name = 44258125
REMARK  8 active torsions:
REMARK  status: ('A' for Active; 'I' for Inactive)
REMARK    1  A    between atoms: O_4  and  C_17
REMARK    2  A    between atoms: O_4  and  C_19
REMARK    3  A    between atoms: O_6  and  C_18
REMARK    4  A    between atoms: O_6  and  C_21
REMARK    5  A    between atoms: C_15  and  C_18
REMARK    6  A    between atoms: C_20  and  C_21
REMARK    7  A    between atoms: C_20  and  C_24
REMARK    8  A    between atoms: C_31  and  C_33
REMARK                            x       y       z     vdW  Elec       q    Type
REMARK                         _______ _______ _______ _____ _____    ______ ____
ROOT
ATOM      1  O   UNL     1     112.522 129.519 137.314  0.00  0.00    +0.000 OA
ATOM      2  O   UNL     1     113.373 128.951 134.612  0.00  0.00    +0.000 OA
ATOM      3  O   UNL     1     114.317 128.960 135.703  0.00  0.00    +0.000 OA
ATOM      4  C   UNL     1     111.338 129.425 135.420  0.00  0.00    +0.000 A 
ATOM      5  C   UNL     1     111.531 129.522 136.252  0.00  0.00    +0.000 A 
ATOM      6  C   UNL     1     111.962 129.231 134.861  0.00  0.00    +0.000 A 
ATOM      7  C   UNL     1     112.344 129.425 136.514  0.00  0.00    +0.000 A 
ATOM      8  C   UNL     1     112.941 129.238 135.977  0.00  0.00    +0.000 A 
ATOM      9  C   UNL     1     112.768 129.137 135.142  0.00  0.00    +0.000 A 
ATOM     10  C   UNL     1     113.718 129.147 136.240  0.00  0.00    +0.000 A 
ATOM     11  C   UNL     1     113.299 129.428 137.576  0.00  0.00    +0.000 A 
ATOM     12  C   UNL     1     113.897 129.241 137.039  0.00  0.00    +0.000 A 
ENDROOT
BRANCH  11  15
ATOM     13  O   UNL     1     114.288 131.043 139.717  0.00  0.00    +0.000 OA
ATOM     14  O   UNL     1     114.014 129.808 140.775  0.00  0.00    +0.000 OA
ATOM     15  C   UNL     1     113.478 129.523 138.376  0.00  0.00    +0.000 A 
ATOM     16  C   UNL     1     113.794 130.236 138.646  0.00  0.00    +0.000 A 
ATOM     17  C   UNL     1     113.341 128.905 138.906  0.00  0.00    +0.000 A 
ATOM     18  C   UNL     1     113.973 130.331 139.446  0.00  0.00    +0.000 A 
ATOM     19  C   UNL     1     113.520 129.000 139.705  0.00  0.00    +0.000 A 
ATOM     20  C   UNL     1     113.835 129.713 139.975  0.00  0.00    +0.000 A 
ENDBRANCH  11  15
BRANCH   4  21
ATOM     21  O   UNL     1     110.561 129.517 135.160  0.00  0.00    +0.000 OA
BRANCH  21  30
ATOM     22  O   UNL     1     110.194 128.156 135.394  0.00  0.00    +0.000 OA
ATOM     23  O   UNL     1     108.279 127.268 135.952  0.00  0.00    +0.000 OA
ATOM     24  O   UNL     1     107.873 128.866 135.880  0.00  0.00    +0.000 OA
ATOM     25  O   UNL     1     109.014 129.990 135.484  0.00  0.00    +0.000 OA
ATOM     26  C   UNL     1     108.850 127.831 135.754  0.00  0.00    +0.000 C 
ATOM     27  C   UNL     1     108.646 128.629 135.718  0.00  0.00    +0.000 C 
ATOM     28  C   UNL     1     109.624 127.594 135.592  0.00  0.00    +0.000 C 
ATOM     29  C   UNL     1     109.218 129.192 135.520  0.00  0.00    +0.000 C 
ATOM     30  C   UNL     1     109.991 128.955 135.358  0.00  0.00    +0.000 C 
BRANCH  28  31
ATOM     31  C   UNL     1     109.826 126.795 135.628  0.00  0.00    +0.000 C 
BRANCH  31  32
ATOM     32  O   UNL     1     110.413 126.541 136.148  0.00  0.00    +0.000 OA
BRANCH  32  34
ATOM     33  O   UNL     1     110.499 125.297 135.451  0.00  0.00    +0.000 OA
ATOM     34  C   UNL     1     110.777 125.809 136.035  0.00  0.00    +0.000 C 
BRANCH  34  35
ATOM     35  C   UNL     1     111.419 125.590 136.504  0.00  0.00    +0.000 C 
ATOM     36  C   UNL     1     111.301 125.386 137.294  0.00  0.00    +0.000 C 
BRANCH  35  37
ATOM     37  C   UNL     1     112.179 125.575 136.183  0.00  0.00    +0.000 C 
ATOM     38  C   UNL     1     112.835 125.519 136.679  0.00  0.00    +0.000 C 
ENDBRANCH  35  37
ENDBRANCH  34  35
ENDBRANCH  32  34
ENDBRANCH  31  32
ENDBRANCH  28  31
ENDBRANCH  21  30
ENDBRANCH   4  21
TORSDOF 8
ENDMDL
MODEL 7
REMARK VINA RESULT:      -9.0      1.676      5.667
REMARK  Name = 44258125
REMARK  8 active torsions:
REMARK  status: ('A' for Active; 'I' for Inactive)
REMARK    1  A    between atoms: O_4  and  C_17
REMARK    2  A    between atoms: O_4  and  C_19
REMARK    3  A    between atoms: O_6  and  C_18
REMARK    4  A    between atoms: O_6  and  C_21
REMARK    5  A    between atoms: C_15  and  C_18
REMARK    6  A    between atoms: C_20  and  C_21
REMARK    7  A    between atoms: C_20  and  C_24
REMARK    8  A    between atoms: C_31  and  C_33
REMARK                            x       y       z     vdW  Elec       q    Type
REMARK                         _______ _______ _______ _____ _____    ______ ____
ROOT
ATOM      1  O   UNL     1     111.091 129.429 136.669  0.00  0.00    +0.000 OA
ATOM      2  O   UNL     1     113.487 128.442 135.392  0.00  0.00    +0.000 OA
ATOM      3  O   UNL     1     112.362 128.896 134.612  0.00  0.00    +0.000 OA
ATOM      4  C   UNL     1     112.989 128.660 137.565  0.00  0.00    +0.000 A 
ATOM      5  C   UNL     1     112.195 128.984 137.501  0.00  0.00    +0.000 A 
ATOM      6  C   UNL     1     113.429 128.475 136.851  0.00  0.00    +0.000 A 
ATOM      7  C   UNL     1     111.853 129.118 136.724  0.00  0.00    +0.000 A 
ATOM      8  C   UNL     1     112.277 128.940 136.039  0.00  0.00    +0.000 A 
ATOM      9  C   UNL     1     113.071 128.616 136.083  0.00  0.00    +0.000 A 
ATOM     10  C   UNL     1     111.938 129.073 135.298  0.00  0.00    +0.000 A 
ATOM     11  C   UNL     1     110.752 129.562 135.928  0.00  0.00    +0.000 A 
ATOM     12  C   UNL     1     111.176 129.384 135.243  0.00  0.00    +0.000 A 
ENDROOT
BRANCH  11  15
ATOM     13  O   UNL     1     107.923 129.172 135.809  0.00  0.00    +0.000 OA
ATOM     14  O   UNL     1     107.703 130.804 135.707  0.00  0.00    +0.000 OA
ATOM     15  C   UNL     1     109.990 129.873 135.873  0.00  0.00    +0.000 A 
ATOM     16  C   UNL     1     109.338 129.367 135.868  0.00  0.00    +0.000 A 
ATOM     17  C   UNL     1     109.880 130.689 135.822  0.00  0.00    +0.000 A 
ATOM     18  C   UNL     1     108.576 129.677 135.813  0.00  0.00    +0.000 A 
ATOM     19  C   UNL     1     109.118 130.999 135.767  0.00  0.00    +0.000 A 
ATOM     20  C   UNL     1     108.466 130.493 135.762  0.00  0.00    +0.000 A 
ENDBRANCH  11  15
BRANCH   4  21
ATOM     21  O   UNL     1     113.325 128.528 138.307  0.00  0.00    +0.000 OA
BRANCH  21  30
ATOM     22  O   UNL     1     112.735 127.237 138.472  0.00  0.00    +0.000 OA
ATOM     23  O   UNL     1     112.112 126.170 140.271  0.00  0.00    +0.000 OA
ATOM     24  O   UNL     1     112.684 127.574 140.924  0.00  0.00    +0.000 OA
ATOM     25  O   UNL     1     113.290 128.753 139.941  0.00  0.00    +0.000 OA
ATOM     26  C   UNL     1     112.415 126.760 139.780  0.00  0.00    +0.000 C 
ATOM     27  C   UNL     1     112.701 127.462 140.106  0.00  0.00    +0.000 C 
ATOM     28  C   UNL     1     112.433 126.648 138.963  0.00  0.00    +0.000 C 
ATOM     29  C   UNL     1     113.005 128.051 139.615  0.00  0.00    +0.000 C 
ATOM     30  C   UNL     1     113.022 127.939 138.798  0.00  0.00    +0.000 C 
BRANCH  28  31
ATOM     31  C   UNL     1     112.146 125.946 138.637  0.00  0.00    +0.000 C 
BRANCH  31  32
ATOM     32  O   UNL     1     111.688 125.965 137.952  0.00  0.00    +0.000 OA
BRANCH  32  34
ATOM     33  O   UNL     1     111.512 124.547 137.974  0.00  0.00    +0.000 OA
ATOM     34  C   UNL     1     111.496 125.262 137.564  0.00  0.00    +0.000 C 
BRANCH  34  35
ATOM     35  C   UNL     1     111.288 125.275 136.766  0.00  0.00    +0.000 C 
ATOM     36  C   UNL     1     111.789 124.937 136.204  0.00  0.00    +0.000 C 
BRANCH  35  37
ATOM     37  C   UNL     1     110.580 125.626 136.529  0.00  0.00    +0.000 C 
ATOM     38  C   UNL     1     110.401 125.696 135.727  0.00  0.00    +0.000 C 
ENDBRANCH  35  37
ENDBRANCH  34  35
ENDBRANCH  32  34
ENDBRANCH  31  32
ENDBRANCH  28  31
ENDBRANCH  21  30
ENDBRANCH   4  21
TORSDOF 8
ENDMDL
MODEL 8
REMARK VINA RESULT:      -8.9      2.159      3.944
REMARK  Name = 44258125
REMARK  8 active torsions:
REMARK  status: ('A' for Active; 'I' for Inactive)
REMARK    1  A    between atoms: O_4  and  C_17
REMARK    2  A    between atoms: O_4  and  C_19
REMARK    3  A    between atoms: O_6  and  C_18
REMARK    4  A    between atoms: O_6  and  C_21
REMARK    5  A    between atoms: C_15  and  C_18
REMARK    6  A    between atoms: C_20  and  C_21
REMARK    7  A    between atoms: C_20  and  C_24
REMARK    8  A    between atoms: C_31  and  C_33
REMARK                            x       y       z     vdW  Elec       q    Type
REMARK                         _______ _______ _______ _____ _____    ______ ____
ROOT
ATOM      1  O   UNL     1     111.663 128.123 139.041  0.00  0.00    +0.000 OA
ATOM      2  O   UNL     1     110.802 125.600 140.156  0.00  0.00    +0.000 OA
ATOM      3  O   UNL     1     111.847 126.373 140.782  0.00  0.00    +0.000 OA
ATOM      4  C   UNL     1     110.095 126.695 138.334  0.00  0.00    +0.000 A 
ATOM      5  C   UNL     1     110.607 127.385 138.371  0.00  0.00    +0.000 A 
ATOM      6  C   UNL     1     110.160 126.088 138.939  0.00  0.00    +0.000 A 
ATOM      7  C   UNL     1     111.175 127.458 139.011  0.00  0.00    +0.000 A 
ATOM      8  C   UNL     1     111.236 126.875 139.591  0.00  0.00    +0.000 A 
ATOM      9  C   UNL     1     110.733 126.178 139.571  0.00  0.00    +0.000 A 
ATOM     10  C   UNL     1     111.785 126.956 140.202  0.00  0.00    +0.000 A 
ATOM     11  C   UNL     1     112.212 128.204 139.651  0.00  0.00    +0.000 A 
ATOM     12  C   UNL     1     112.273 127.620 140.232  0.00  0.00    +0.000 A 
ENDROOT
BRANCH  11  15
ATOM     13  O   UNL     1     112.843 130.764 140.755  0.00  0.00    +0.000 OA
ATOM     14  O   UNL     1     114.165 130.861 139.772  0.00  0.00    +0.000 OA
ATOM     15  C   UNL     1     112.701 128.868 139.681  0.00  0.00    +0.000 A 
ATOM     16  C   UNL     1     112.527 129.484 140.203  0.00  0.00    +0.000 A 
ATOM     17  C   UNL     1     113.362 128.917 139.190  0.00  0.00    +0.000 A 
ATOM     18  C   UNL     1     113.015 130.148 140.233  0.00  0.00    +0.000 A 
ATOM     19  C   UNL     1     113.849 129.581 139.221  0.00  0.00    +0.000 A 
ATOM     20  C   UNL     1     113.676 130.197 139.742  0.00  0.00    +0.000 A 
ENDBRANCH  11  15
BRANCH   4  21
ATOM     21  O   UNL     1     109.547 126.616 137.723  0.00  0.00    +0.000 OA
BRANCH  21  30
ATOM     22  O   UNL     1     110.491 125.927 136.901  0.00  0.00    +0.000 OA
ATOM     23  O   UNL     1     110.531 125.587 134.746  0.00  0.00    +0.000 OA
ATOM     24  O   UNL     1     109.134 126.453 134.899  0.00  0.00    +0.000 OA
ATOM     25  O   UNL     1     108.642 126.967 136.388  0.00  0.00    +0.000 OA
ATOM     26  C   UNL     1     110.285 125.845 135.491  0.00  0.00    +0.000 C 
ATOM     27  C   UNL     1     109.587 126.277 135.567  0.00  0.00    +0.000 C 
ATOM     28  C   UNL     1     110.737 125.669 136.158  0.00  0.00    +0.000 C 
ATOM     29  C   UNL     1     109.341 126.535 136.312  0.00  0.00    +0.000 C 
ATOM     30  C   UNL     1     109.793 126.359 136.979  0.00  0.00    +0.000 C 
BRANCH  28  31
ATOM     31  C   UNL     1     111.435 125.237 136.080  0.00  0.00    +0.000 C 
BRANCH  31  32
ATOM     32  O   UNL     1     112.157 125.575 136.293  0.00  0.00    +0.000 OA
BRANCH  32  34
ATOM     33  O   UNL     1     112.778 124.288 136.297  0.00  0.00    +0.000 OA
ATOM     34  C   UNL     1     112.800 125.093 136.478  0.00  0.00    +0.000 C 
BRANCH  34  35
ATOM     35  C   UNL     1     113.466 125.415 136.842  0.00  0.00    +0.000 C 
ATOM     36  C   UNL     1     113.820 126.091 136.530  0.00  0.00    +0.000 C 
BRANCH  35  37
ATOM     37  C   UNL     1     113.779 125.061 137.518  0.00  0.00    +0.000 C 
ATOM     38  C   UNL     1     114.365 125.446 137.953  0.00  0.00    +0.000 C 
ENDBRANCH  35  37
ENDBRANCH  34  35
ENDBRANCH  32  34
ENDBRANCH  31  32
ENDBRANCH  28  31
ENDBRANCH  21  30
ENDBRANCH   4  21
TORSDOF 8
ENDMDL
MODEL 9
REMARK VINA RESULT:      -8.9      1.458      2.241
REMARK  Name = 44258125
REMARK  8 active torsions:
REMARK  status: ('A' for Active; 'I' for Inactive)
REMARK    1  A    between atoms: O_4  and  C_17
REMARK    2  A    between atoms: O_4  and  C_19
REMARK    3  A    between atoms: O_6  and  C_18
REMARK    4  A    between atoms: O_6  and  C_21
REMARK    5  A    between atoms: C_15  and  C_18
REMARK    6  A    between atoms: C_20  and  C_21
REMARK    7  A    between atoms: C_20  and  C_24
REMARK    8  A    between atoms: C_31  and  C_33
REMARK                            x       y       z     vdW  Elec       q    Type
REMARK                         _______ _______ _______ _____ _____    ______ ____
ROOT
ATOM      1  O   UNL     1     110.659 126.636 138.095  0.00  0.00    +0.000 OA
ATOM      2  O   UNL     1     110.719 125.002 135.713  0.00  0.00    +0.000 OA
ATOM      3  O   UNL     1     111.499 124.652 136.876  0.00  0.00    +0.000 OA
ATOM      4  C   UNL     1     109.590 126.887 136.148  0.00  0.00    +0.000 A 
ATOM      5  C   UNL     1     109.855 127.034 136.953  0.00  0.00    +0.000 A 
ATOM      6  C   UNL     1     109.881 126.198 135.726  0.00  0.00    +0.000 A 
ATOM      7  C   UNL     1     110.408 126.490 137.323  0.00  0.00    +0.000 A 
ATOM      8  C   UNL     1     110.687 125.829 136.916  0.00  0.00    +0.000 A 
ATOM      9  C   UNL     1     110.434 125.666 136.112  0.00  0.00    +0.000 A 
ATOM     10  C   UNL     1     111.218 125.314 137.282  0.00  0.00    +0.000 A 
ATOM     11  C   UNL     1     111.189 126.121 138.461  0.00  0.00    +0.000 A 
ATOM     12  C   UNL     1     111.469 125.460 138.054  0.00  0.00    +0.000 A 
ENDROOT
BRANCH  11  15
ATOM     13  O   UNL     1     110.684 126.096 141.274  0.00  0.00    +0.000 OA
ATOM     14  O   UNL     1     112.192 126.705 141.550  0.00  0.00    +0.000 OA
ATOM     15  C   UNL     1     111.440 126.267 139.233  0.00  0.00    +0.000 A 
ATOM     16  C   UNL     1     110.936 126.108 139.867  0.00  0.00    +0.000 A 
ATOM     17  C   UNL     1     112.195 126.572 139.371  0.00  0.00    +0.000 A 
ATOM     18  C   UNL     1     111.187 126.254 140.640  0.00  0.00    +0.000 A 
ATOM     19  C   UNL     1     112.445 126.717 140.143  0.00  0.00    +0.000 A 
ATOM     20  C   UNL     1     111.941 126.559 140.778  0.00  0.00    +0.000 A 
ENDBRANCH  11  15
BRANCH   4  21
ATOM     21  O   UNL     1     109.059 127.404 135.785  0.00  0.00    +0.000 OA
BRANCH  21  30
ATOM     22  O   UNL     1     110.078 128.340 135.427  0.00  0.00    +0.000 OA
ATOM     23  O   UNL     1     109.983 130.493 135.082  0.00  0.00    +0.000 OA
ATOM     24  O   UNL     1     108.407 130.166 135.446  0.00  0.00    +0.000 OA
ATOM     25  O   UNL     1     107.945 128.621 135.798  0.00  0.00    +0.000 OA
ATOM     26  C   UNL     1     109.752 129.720 135.258  0.00  0.00    +0.000 C 
ATOM     27  C   UNL     1     108.964 129.557 135.440  0.00  0.00    +0.000 C 
ATOM     28  C   UNL     1     110.309 129.111 135.252  0.00  0.00    +0.000 C 
ATOM     29  C   UNL     1     108.733 128.784 135.616  0.00  0.00    +0.000 C 
ATOM     30  C   UNL     1     109.290 128.175 135.610  0.00  0.00    +0.000 C 
BRANCH  28  31
ATOM     31  C   UNL     1     111.096 129.276 135.070  0.00  0.00    +0.000 C 
BRANCH  31  32
ATOM     32  O   UNL     1     111.692 129.087 135.607  0.00  0.00    +0.000 OA
BRANCH  32  34
ATOM     33  O   UNL     1     112.684 129.354 134.613  0.00  0.00    +0.000 OA
ATOM     34  C   UNL     1     112.481 129.076 135.363  0.00  0.00    +0.000 C 
BRANCH  34  35
ATOM     35  C   UNL     1     113.065 128.787 135.868  0.00  0.00    +0.000 C 
ATOM     36  C   UNL     1     113.323 129.244 136.504  0.00  0.00    +0.000 C 
BRANCH  35  37
ATOM     37  C   UNL     1     113.392 128.040 135.737  0.00  0.00    +0.000 C 
ATOM     38  C   UNL     1     113.884 127.700 136.304  0.00  0.00    +0.000 C 
ENDBRANCH  35  37
ENDBRANCH  34  35
ENDBRANCH  32  34
ENDBRANCH  31  32
ENDBRANCH  28  31
ENDBRANCH  21  30
ENDBRANCH   4  21
TORSDOF 8
ENDMDL
MODEL 10
REMARK VINA RESULT:      -8.9      1.749      4.317
REMARK  Name = 44258125
REMARK  8 active torsions:
REMARK  status: ('A' for Active; 'I' for Inactive)
REMARK    1  A    between atoms: O_4  and  C_17
REMARK    2  A    between atoms: O_4  and  C_19
REMARK    3  A    between atoms: O_6  and  C_18
REMARK    4  A    between atoms: O_6  and  C_21
REMARK    5  A    between atoms: C_15  and  C_18
REMARK    6  A    between atoms: C_20  and  C_21
REMARK    7  A    between atoms: C_20  and  C_24
REMARK    8  A    between atoms: C_31  and  C_33
REMARK                            x       y       z     vdW  Elec       q    Type
REMARK                         _______ _______ _______ _____ _____    ______ ____
ROOT
ATOM      1  O   UNL     1     112.627 129.029 136.907  0.00  0.00    +0.000 OA
ATOM      2  O   UNL     1     112.164 127.732 139.447  0.00  0.00    +0.000 OA
ATOM      3  O   UNL     1     113.312 128.581 139.243  0.00  0.00    +0.000 OA
ATOM      4  C   UNL     1     110.972 127.671 137.550  0.00  0.00    +0.000 A 
ATOM      5  C   UNL     1     111.455 128.185 137.058  0.00  0.00    +0.000 A 
ATOM      6  C   UNL     1     111.211 127.516 138.361  0.00  0.00    +0.000 A 
ATOM      7  C   UNL     1     112.168 128.537 137.384  0.00  0.00    +0.000 A 
ATOM      8  C   UNL     1     112.396 128.387 138.162  0.00  0.00    +0.000 A 
ATOM      9  C   UNL     1     111.927 127.876 138.669  0.00  0.00    +0.000 A 
ATOM     10  C   UNL     1     113.083 128.730 138.464  0.00  0.00    +0.000 A 
ATOM     11  C   UNL     1     113.314 129.372 137.208  0.00  0.00    +0.000 A 
ATOM     12  C   UNL     1     113.542 129.223 137.987  0.00  0.00    +0.000 A 
ENDROOT
BRANCH  11  15
ATOM     13  O   UNL     1     115.135 129.714 135.032  0.00  0.00    +0.000 OA
ATOM     14  O   UNL     1     115.150 131.342 135.301  0.00  0.00    +0.000 OA
ATOM     15  C   UNL     1     113.773 129.865 136.732  0.00  0.00    +0.000 A 
ATOM     16  C   UNL     1     114.224 129.543 136.120  0.00  0.00    +0.000 A 
ATOM     17  C   UNL     1     113.780 130.679 136.866  0.00  0.00    +0.000 A 
ATOM     18  C   UNL     1     114.683 130.035 135.643  0.00  0.00    +0.000 A 
ATOM     19  C   UNL     1     114.239 131.170 136.389  0.00  0.00    +0.000 A 
ATOM     20  C   UNL     1     114.691 130.849 135.777  0.00  0.00    +0.000 A 
ENDBRANCH  11  15
BRANCH   4  21
ATOM     21  O   UNL     1     110.286 127.329 137.246  0.00  0.00    +0.000 OA
BRANCH  21  30
ATOM     22  O   UNL     1     110.949 126.171 136.735  0.00  0.00    +0.000 OA
ATOM     23  O   UNL     1     110.497 124.909 135.013  0.00  0.00    +0.000 OA
ATOM     24  O   UNL     1     109.276 126.015 134.918  0.00  0.00    +0.000 OA
ATOM     25  O   UNL     1     109.171 127.225 136.035  0.00  0.00    +0.000 OA
ATOM     26  C   UNL     1     110.445 125.515 135.571  0.00  0.00    +0.000 C 
ATOM     27  C   UNL     1     109.834 126.067 135.524  0.00  0.00    +0.000 C 
ATOM     28  C   UNL     1     111.002 125.567 136.177  0.00  0.00    +0.000 C 
ATOM     29  C   UNL     1     109.781 126.673 136.083  0.00  0.00    +0.000 C 
ATOM     30  C   UNL     1     110.339 126.725 136.688  0.00  0.00    +0.000 C 
BRANCH  28  31
ATOM     31  C   UNL     1     111.613 125.014 136.224  0.00  0.00    +0.000 C 
BRANCH  31  32
ATOM     32  O   UNL     1     112.396 125.266 136.277  0.00  0.00    +0.000 OA
BRANCH  32  34
ATOM     33  O   UNL     1     112.837 123.931 136.531  0.00  0.00    +0.000 OA
ATOM     34  C   UNL     1     112.982 124.743 136.530  0.00  0.00    +0.000 C 
BRANCH  34  35
ATOM     35  C   UNL     1     113.712 125.032 136.780  0.00  0.00    +0.000 C 
ATOM     36  C   UNL     1     114.204 125.428 136.249  0.00  0.00    +0.000 C 
BRANCH  35  37
ATOM     37  C   UNL     1     113.952 124.926 137.563  0.00  0.00    +0.000 C 
ATOM     38  C   UNL     1     114.616 125.323 137.849  0.00  0.00    +0.000 C 
ENDBRANCH  35  37
ENDBRANCH  34  35
ENDBRANCH  32  34
ENDBRANCH  31  32
ENDBRANCH  28  31
ENDBRANCH  21  30
ENDBRANCH   4  21
TORSDOF 8
ENDMDL
