MODEL 1
REMARK VINA RESULT:      -8.2      0.000      0.000
REMARK  Name = 5459184
REMARK  5 active torsions:
REMARK  status: ('A' for Active; 'I' for Inactive)
REMARK    1  A    between atoms: O_2  and  C_12
REMARK    2  A    between atoms: O_3  and  C_14
REMARK    3  A    between atoms: O_4  and  C_17
REMARK    4  A    between atoms: O_7  and  C_21
REMARK    5  A    between atoms: C_11  and  C_15
REMARK                            x       y       z     vdW  Elec       q    Type
REMARK                         _______ _______ _______ _____ _____    ______ ____
ROOT
ATOM      1  O   UNL     1     105.060 124.299 147.410  0.00  0.00    +0.000 OA
ATOM      2  O   UNL     1     107.476 125.552 146.440  0.00  0.00    +0.000 OA
ATOM      3  O   UNL     1     106.359 125.309 145.561  0.00  0.00    +0.000 OA
ATOM      4  C   UNL     1     106.256 124.919 146.931  0.00  0.00    +0.000 A 
ATOM      5  C   UNL     1     105.823 124.582 147.548  0.00  0.00    +0.000 A 
ATOM      6  C   UNL     1     104.730 124.352 146.655  0.00  0.00    +0.000 A 
ATOM      7  C   UNL     1     105.163 124.689 146.039  0.00  0.00    +0.000 A 
ATOM      8  C   UNL     1     105.926 124.972 146.178  0.00  0.00    +0.000 A 
ATOM      9  C   UNL     1     106.156 124.520 148.338  0.00  0.00    +0.000 A 
ATOM     10  C   UNL     1     107.051 125.217 147.063  0.00  0.00    +0.000 A 
ATOM     11  C   UNL     1     106.949 124.813 148.488  0.00  0.00    +0.000 A 
ATOM     12  C   UNL     1     107.400 125.164 147.846  0.00  0.00    +0.000 A 
ENDROOT
BRANCH   6  14
ATOM     13  O   UNL     1     101.681 123.217 146.105  0.00  0.00    +0.000 OA
ATOM     14  C   UNL     1     103.968 124.069 146.518  0.00  0.00    +0.000 A 
ATOM     15  C   UNL     1     103.314 124.510 146.759  0.00  0.00    +0.000 A 
ATOM     16  C   UNL     1     103.860 123.344 146.139  0.00  0.00    +0.000 A 
ATOM     17  C   UNL     1     102.552 124.226 146.622  0.00  0.00    +0.000 A 
ATOM     18  C   UNL     1     103.097 123.061 146.002  0.00  0.00    +0.000 A 
ATOM     19  C   UNL     1     102.443 123.502 146.243  0.00  0.00    +0.000 A 
BRANCH  17  20
ATOM     20  O   UNL     1     101.898 124.667 146.863  0.00  0.00    +0.000 OA
ATOM     21  C   UNL     1     101.882 125.005 147.615  0.00  0.00    +0.000 C 
ENDBRANCH  17  20
ENDBRANCH   6  14
BRANCH   7  22
ATOM     22  O   UNL     1     104.834 124.743 145.285  0.00  0.00    +0.000 OA
ATOM     23  C   UNL     1     105.323 124.821 144.626  0.00  0.00    +0.000 C 
ENDBRANCH   7  22
BRANCH   9  24
ATOM     24  O   UNL     1     105.715 124.182 148.948  0.00  0.00    +0.000 OA
ATOM     25  C   UNL     1     105.433 124.654 149.564  0.00  0.00    +0.000 C 
ENDBRANCH   9  24
BRANCH  11  26
ATOM     26  O   UNL     1     107.276 124.758 149.244  0.00  0.00    +0.000 OA
ATOM     27  C   UNL     1     108.072 124.562 149.335  0.00  0.00    +0.000 C 
ENDBRANCH  11  26
TORSDOF 5
ENDMDL
MODEL 2
REMARK VINA RESULT:      -8.0     12.029     13.763
REMARK  Name = 5459184
REMARK  5 active torsions:
REMARK  status: ('A' for Active; 'I' for Inactive)
REMARK    1  A    between atoms: O_2  and  C_12
REMARK    2  A    between atoms: O_3  and  C_14
REMARK    3  A    between atoms: O_4  and  C_17
REMARK    4  A    between atoms: O_7  and  C_21
REMARK    5  A    between atoms: C_11  and  C_15
REMARK                            x       y       z     vdW  Elec       q    Type
REMARK                         _______ _______ _______ _____ _____    ______ ____
ROOT
ATOM      1  O   UNL     1     112.267 126.911 136.052  0.00  0.00    +0.000 OA
ATOM      2  O   UNL     1     109.792 126.194 134.743  0.00  0.00    +0.000 OA
ATOM      3  O   UNL     1     110.601 125.199 135.403  0.00  0.00    +0.000 OA
ATOM      4  C   UNL     1     111.043 126.557 135.404  0.00  0.00    +0.000 A 
ATOM      5  C   UNL     1     111.598 127.128 135.620  0.00  0.00    +0.000 A 
ATOM      6  C   UNL     1     112.380 126.122 136.267  0.00  0.00    +0.000 A 
ATOM      7  C   UNL     1     111.825 125.551 136.051  0.00  0.00    +0.000 A 
ATOM      8  C   UNL     1     111.156 125.770 135.619  0.00  0.00    +0.000 A 
ATOM      9  C   UNL     1     111.491 127.953 135.402  0.00  0.00    +0.000 A 
ATOM     10  C   UNL     1     110.342 126.772 134.955  0.00  0.00    +0.000 A 
ATOM     11  C   UNL     1     110.796 128.185 134.953  0.00  0.00    +0.000 A 
ATOM     12  C   UNL     1     110.218 127.591 134.728  0.00  0.00    +0.000 A 
ENDROOT
BRANCH   6  14
ATOM     13  O   UNL     1     115.057 125.253 137.990  0.00  0.00    +0.000 OA
ATOM     14  C   UNL     1     113.049 125.905 136.698  0.00  0.00    +0.000 A 
ATOM     15  C   UNL     1     113.070 126.022 137.515  0.00  0.00    +0.000 A 
ATOM     16  C   UNL     1     113.697 125.570 136.312  0.00  0.00    +0.000 A 
ATOM     17  C   UNL     1     113.740 125.805 137.945  0.00  0.00    +0.000 A 
ATOM     18  C   UNL     1     114.366 125.353 136.744  0.00  0.00    +0.000 A 
ATOM     19  C   UNL     1     114.387 125.470 137.560  0.00  0.00    +0.000 A 
BRANCH  17  20
ATOM     20  O   UNL     1     113.761 125.923 138.761  0.00  0.00    +0.000 OA
ATOM     21  C   UNL     1     113.341 126.547 139.100  0.00  0.00    +0.000 C 
ENDBRANCH  17  20
ENDBRANCH   6  14
BRANCH   7  22
ATOM     22  O   UNL     1     111.939 124.764 136.266  0.00  0.00    +0.000 OA
ATOM     23  C   UNL     1     111.318 124.224 136.198  0.00  0.00    +0.000 C 
ENDBRANCH   7  22
BRANCH   9  24
ATOM     24  O   UNL     1     112.051 128.516 135.623  0.00  0.00    +0.000 OA
ATOM     25  C   UNL     1     112.533 128.865 135.051  0.00  0.00    +0.000 C 
ENDBRANCH   9  24
BRANCH  11  26
ATOM     26  O   UNL     1     110.686 128.975 134.740  0.00  0.00    +0.000 OA
ATOM     27  C   UNL     1     109.924 129.264 134.612  0.00  0.00    +0.000 C 
ENDBRANCH  11  26
TORSDOF 5
ENDMDL
MODEL 3
REMARK VINA RESULT:      -7.9      1.220      4.058
REMARK  Name = 5459184
REMARK  5 active torsions:
REMARK  status: ('A' for Active; 'I' for Inactive)
REMARK    1  A    between atoms: O_2  and  C_12
REMARK    2  A    between atoms: O_3  and  C_14
REMARK    3  A    between atoms: O_4  and  C_17
REMARK    4  A    between atoms: O_7  and  C_21
REMARK    5  A    between atoms: C_11  and  C_15
REMARK                            x       y       z     vdW  Elec       q    Type
REMARK                         _______ _______ _______ _____ _____    ______ ____
ROOT
ATOM      1  O   UNL     1     104.722 124.839 146.942  0.00  0.00    +0.000 OA
ATOM      2  O   UNL     1     103.305 123.080 145.140  0.00  0.00    +0.000 OA
ATOM      3  O   UNL     1     104.517 123.747 144.731  0.00  0.00    +0.000 OA
ATOM      4  C   UNL     1     104.021 123.969 146.052  0.00  0.00    +0.000 A 
ATOM      5  C   UNL     1     104.089 124.333 146.789  0.00  0.00    +0.000 A 
ATOM      6  C   UNL     1     105.287 124.981 146.357  0.00  0.00    +0.000 A 
ATOM      7  C   UNL     1     105.219 124.617 145.620  0.00  0.00    +0.000 A 
ATOM      8  C   UNL     1     104.585 124.111 145.468  0.00  0.00    +0.000 A 
ATOM      9  C   UNL     1     103.507 124.193 147.406  0.00  0.00    +0.000 A 
ATOM     10  C   UNL     1     103.365 123.439 145.880  0.00  0.00    +0.000 A 
ATOM     11  C   UNL     1     102.845 123.667 147.252  0.00  0.00    +0.000 A 
ATOM     12  C   UNL     1     102.774 123.288 146.485  0.00  0.00    +0.000 A 
ENDROOT
BRANCH   6  14
ATOM     13  O   UNL     1     107.818 127.008 146.971  0.00  0.00    +0.000 OA
ATOM     14  C   UNL     1     105.920 125.487 146.511  0.00  0.00    +0.000 A 
ATOM     15  C   UNL     1     106.611 125.193 146.852  0.00  0.00    +0.000 A 
ATOM     16  C   UNL     1     105.862 126.289 146.323  0.00  0.00    +0.000 A 
ATOM     17  C   UNL     1     107.244 125.700 147.005  0.00  0.00    +0.000 A 
ATOM     18  C   UNL     1     106.495 126.795 146.476  0.00  0.00    +0.000 A 
ATOM     19  C   UNL     1     107.186 126.501 146.817  0.00  0.00    +0.000 A 
BRANCH  17  20
ATOM     20  O   UNL     1     107.935 125.406 147.346  0.00  0.00    +0.000 OA
ATOM     21  C   UNL     1     107.897 124.968 148.045  0.00  0.00    +0.000 C 
ENDBRANCH  17  20
ENDBRANCH   6  14
BRANCH   7  22
ATOM     22  O   UNL     1     105.783 124.759 145.037  0.00  0.00    +0.000 OA
ATOM     23  C   UNL     1     105.622 124.565 144.251  0.00  0.00    +0.000 C 
ENDBRANCH   7  22
BRANCH   9  24
ATOM     24  O   UNL     1     103.584 124.561 148.140  0.00  0.00    +0.000 OA
ATOM     25  C   UNL     1     103.057 125.158 148.359  0.00  0.00    +0.000 C 
ENDBRANCH   9  24
BRANCH  11  26
ATOM     26  O   UNL     1     102.282 123.527 147.839  0.00  0.00    +0.000 OA
ATOM     27  C   UNL     1     101.777 122.877 147.779  0.00  0.00    +0.000 C 
ENDBRANCH  11  26
TORSDOF 5
ENDMDL
MODEL 4
REMARK VINA RESULT:      -7.7      6.821      8.210
REMARK  Name = 5459184
REMARK  5 active torsions:
REMARK  status: ('A' for Active; 'I' for Inactive)
REMARK    1  A    between atoms: O_2  and  C_12
REMARK    2  A    between atoms: O_3  and  C_14
REMARK    3  A    between atoms: O_4  and  C_17
REMARK    4  A    between atoms: O_7  and  C_21
REMARK    5  A    between atoms: C_11  and  C_15
REMARK                            x       y       z     vdW  Elec       q    Type
REMARK                         _______ _______ _______ _____ _____    ______ ____
ROOT
ATOM      1  O   UNL     1     103.347 130.188 142.358  0.00  0.00    +0.000 OA
ATOM      2  O   UNL     1     104.325 127.840 140.987  0.00  0.00    +0.000 OA
ATOM      3  O   UNL     1     103.373 128.724 140.362  0.00  0.00    +0.000 OA
ATOM      4  C   UNL     1     103.831 129.026 141.680  0.00  0.00    +0.000 A 
ATOM      5  C   UNL     1     103.822 129.514 142.346  0.00  0.00    +0.000 A 
ATOM      6  C   UNL     1     102.879 130.374 141.703  0.00  0.00    +0.000 A 
ATOM      7  C   UNL     1     102.888 129.886 141.038  0.00  0.00    +0.000 A 
ATOM      8  C   UNL     1     103.364 129.212 141.027  0.00  0.00    +0.000 A 
ATOM      9  C   UNL     1     104.305 129.331 143.033  0.00  0.00    +0.000 A 
ATOM     10  C   UNL     1     104.323 128.322 141.657  0.00  0.00    +0.000 A 
ATOM     11  C   UNL     1     104.802 128.631 143.027  0.00  0.00    +0.000 A 
ATOM     12  C   UNL     1     104.812 128.123 142.335  0.00  0.00    +0.000 A 
ENDROOT
BRANCH   6  14
ATOM     13  O   UNL     1     100.974 133.068 141.751  0.00  0.00    +0.000 OA
ATOM     14  C   UNL     1     102.403 131.048 141.715  0.00  0.00    +0.000 A 
ATOM     15  C   UNL     1     102.707 131.772 141.462  0.00  0.00    +0.000 A 
ATOM     16  C   UNL     1     101.623 130.997 141.980  0.00  0.00    +0.000 A 
ATOM     17  C   UNL     1     102.230 132.445 141.474  0.00  0.00    +0.000 A 
ATOM     18  C   UNL     1     101.147 131.670 141.992  0.00  0.00    +0.000 A 
ATOM     19  C   UNL     1     101.451 132.395 141.739  0.00  0.00    +0.000 A 
BRANCH  17  20
ATOM     20  O   UNL     1     102.533 133.170 141.222  0.00  0.00    +0.000 OA
ATOM     21  C   UNL     1     103.304 133.386 141.419  0.00  0.00    +0.000 C 
ENDBRANCH  17  20
ENDBRANCH   6  14
BRANCH   7  22
ATOM     22  O   UNL     1     102.421 130.072 140.384  0.00  0.00    +0.000 OA
ATOM     23  C   UNL     1     102.254 129.495 139.819  0.00  0.00    +0.000 C 
ENDBRANCH   7  22
BRANCH   9  24
ATOM     24  O   UNL     1     104.290 129.825 143.694  0.00  0.00    +0.000 OA
ATOM     25  C   UNL     1     104.949 130.286 143.880  0.00  0.00    +0.000 C 
ENDBRANCH   9  24
BRANCH  11  26
ATOM     26  O   UNL     1     105.269 128.448 143.683  0.00  0.00    +0.000 OA
ATOM     27  C   UNL     1     105.567 127.684 143.777  0.00  0.00    +0.000 C 
ENDBRANCH  11  26
TORSDOF 5
ENDMDL
MODEL 5
REMARK VINA RESULT:      -7.7     12.533     13.707
REMARK  Name = 5459184
REMARK  5 active torsions:
REMARK  status: ('A' for Active; 'I' for Inactive)
REMARK    1  A    between atoms: O_2  and  C_12
REMARK    2  A    between atoms: O_3  and  C_14
REMARK    3  A    between atoms: O_4  and  C_17
REMARK    4  A    between atoms: O_7  and  C_21
REMARK    5  A    between atoms: C_11  and  C_15
REMARK                            x       y       z     vdW  Elec       q    Type
REMARK                         _______ _______ _______ _____ _____    ______ ____
ROOT
ATOM      1  O   UNL     1     112.845 126.670 136.539  0.00  0.00    +0.000 OA
ATOM      2  O   UNL     1     110.517 125.293 135.522  0.00  0.00    +0.000 OA
ATOM      3  O   UNL     1     110.685 126.713 135.331  0.00  0.00    +0.000 OA
ATOM      4  C   UNL     1     111.694 125.988 136.036  0.00  0.00    +0.000 A 
ATOM      5  C   UNL     1     112.414 125.974 136.439  0.00  0.00    +0.000 A 
ATOM      6  C   UNL     1     112.556 127.381 136.236  0.00  0.00    +0.000 A 
ATOM      7  C   UNL     1     111.836 127.395 135.833  0.00  0.00    +0.000 A 
ATOM      8  C   UNL     1     111.405 126.699 135.734  0.00  0.00    +0.000 A 
ATOM      9  C   UNL     1     112.725 125.239 136.759  0.00  0.00    +0.000 A 
ATOM     10  C   UNL     1     111.236 125.269 135.926  0.00  0.00    +0.000 A 
ATOM     11  C   UNL     1     112.281 124.511 136.658  0.00  0.00    +0.000 A 
ATOM     12  C   UNL     1     111.532 124.526 136.239  0.00  0.00    +0.000 A 
ENDROOT
BRANCH   6  14
ATOM     13  O   UNL     1     114.282 130.165 136.634  0.00  0.00    +0.000 OA
ATOM     14  C   UNL     1     112.987 128.077 136.336  0.00  0.00    +0.000 A 
ATOM     15  C   UNL     1     112.907 128.516 137.030  0.00  0.00    +0.000 A 
ATOM     16  C   UNL     1     113.499 128.334 135.741  0.00  0.00    +0.000 A 
ATOM     17  C   UNL     1     113.339 129.212 137.129  0.00  0.00    +0.000 A 
ATOM     18  C   UNL     1     113.930 129.030 135.841  0.00  0.00    +0.000 A 
ATOM     19  C   UNL     1     113.850 129.469 136.535  0.00  0.00    +0.000 A 
BRANCH  17  20
ATOM     20  O   UNL     1     113.259 129.652 137.822  0.00  0.00    +0.000 OA
ATOM     21  C   UNL     1     113.143 129.268 138.543  0.00  0.00    +0.000 C 
ENDBRANCH  17  20
ENDBRANCH   6  14
BRANCH   7  22
ATOM     22  O   UNL     1     111.547 128.106 135.531  0.00  0.00    +0.000 OA
ATOM     23  C   UNL     1     110.743 128.188 135.366  0.00  0.00    +0.000 C 
ENDBRANCH   7  22
BRANCH   9  24
ATOM     24  O   UNL     1     113.446 125.234 137.161  0.00  0.00    +0.000 OA
ATOM     25  C   UNL     1     114.106 124.877 136.818  0.00  0.00    +0.000 C 
ENDBRANCH   9  24
BRANCH  11  26
ATOM     26  O   UNL     1     112.573 123.801 136.963  0.00  0.00    +0.000 OA
ATOM     27  C   UNL     1     112.059 123.172 137.106  0.00  0.00    +0.000 C 
ENDBRANCH  11  26
TORSDOF 5
ENDMDL
MODEL 6
REMARK VINA RESULT:      -7.6      9.858     12.020
REMARK  Name = 5459184
REMARK  5 active torsions:
REMARK  status: ('A' for Active; 'I' for Inactive)
REMARK    1  A    between atoms: O_2  and  C_12
REMARK    2  A    between atoms: O_3  and  C_14
REMARK    3  A    between atoms: O_4  and  C_17
REMARK    4  A    between atoms: O_7  and  C_21
REMARK    5  A    between atoms: C_11  and  C_15
REMARK                            x       y       z     vdW  Elec       q    Type
REMARK                         _______ _______ _______ _____ _____    ______ ____
ROOT
ATOM      1  O   UNL     1     113.280 126.580 139.110  0.00  0.00    +0.000 OA
ATOM      2  O   UNL     1     110.712 126.204 140.381  0.00  0.00    +0.000 OA
ATOM      3  O   UNL     1     111.011 125.591 139.109  0.00  0.00    +0.000 OA
ATOM      4  C   UNL     1     112.010 126.394 139.739  0.00  0.00    +0.000 A 
ATOM      5  C   UNL     1     112.767 126.724 139.740  0.00  0.00    +0.000 A 
ATOM      6  C   UNL     1     113.037 126.105 138.480  0.00  0.00    +0.000 A 
ATOM      7  C   UNL     1     112.280 125.776 138.480  0.00  0.00    +0.000 A 
ATOM      8  C   UNL     1     111.768 125.921 139.110  0.00  0.00    +0.000 A 
ATOM      9  C   UNL     1     113.032 127.219 140.390  0.00  0.00    +0.000 A 
ATOM     10  C   UNL     1     111.467 126.537 140.390  0.00  0.00    +0.000 A 
ATOM     11  C   UNL     1     112.502 127.373 141.049  0.00  0.00    +0.000 A 
ATOM     12  C   UNL     1     111.714 127.030 141.048  0.00  0.00    +0.000 A 
ENDROOT
BRANCH   6  14
ATOM     13  O   UNL     1     115.092 125.527 135.964  0.00  0.00    +0.000 OA
ATOM     14  C   UNL     1     113.550 125.961 137.851  0.00  0.00    +0.000 A 
ATOM     15  C   UNL     1     113.609 126.505 137.233  0.00  0.00    +0.000 A 
ATOM     16  C   UNL     1     114.005 125.272 137.839  0.00  0.00    +0.000 A 
ATOM     17  C   UNL     1     114.123 126.360 136.604  0.00  0.00    +0.000 A 
ATOM     18  C   UNL     1     114.519 125.128 137.210  0.00  0.00    +0.000 A 
ATOM     19  C   UNL     1     114.578 125.672 136.593  0.00  0.00    +0.000 A 
BRANCH  17  20
ATOM     20  O   UNL     1     114.182 126.903 135.986  0.00  0.00    +0.000 OA
ATOM     21  C   UNL     1     113.916 127.677 136.090  0.00  0.00    +0.000 C 
ENDBRANCH  17  20
ENDBRANCH   6  14
BRANCH   7  22
ATOM     22  O   UNL     1     112.037 125.302 137.850  0.00  0.00    +0.000 OA
ATOM     23  C   UNL     1     111.234 125.168 137.721  0.00  0.00    +0.000 C 
ENDBRANCH   7  22
BRANCH   9  24
ATOM     24  O   UNL     1     113.790 127.544 140.382  0.00  0.00    +0.000 OA
ATOM     25  C   UNL     1     114.369 127.253 140.893  0.00  0.00    +0.000 C 
ENDBRANCH   9  24
BRANCH  11  26
ATOM     26  O   UNL     1     112.748 127.848 141.677  0.00  0.00    +0.000 OA
ATOM     27  C   UNL     1     112.189 128.221 142.156  0.00  0.00    +0.000 C 
ENDBRANCH  11  26
TORSDOF 5
ENDMDL
MODEL 7
REMARK VINA RESULT:      -7.6      8.706     10.567
REMARK  Name = 5459184
REMARK  5 active torsions:
REMARK  status: ('A' for Active; 'I' for Inactive)
REMARK    1  A    between atoms: O_2  and  C_12
REMARK    2  A    between atoms: O_3  and  C_14
REMARK    3  A    between atoms: O_4  and  C_17
REMARK    4  A    between atoms: O_7  and  C_21
REMARK    5  A    between atoms: C_11  and  C_15
REMARK                            x       y       z     vdW  Elec       q    Type
REMARK                         _______ _______ _______ _____ _____    ______ ____
ROOT
ATOM      1  O   UNL     1     111.579 131.414 145.218  0.00  0.00    +0.000 OA
ATOM      2  O   UNL     1     112.376 131.657 142.451  0.00  0.00    +0.000 OA
ATOM      3  O   UNL     1     112.389 132.798 143.333  0.00  0.00    +0.000 OA
ATOM      4  C   UNL     1     111.973 131.533 143.849  0.00  0.00    +0.000 A 
ATOM      5  C   UNL     1     111.703 131.072 144.477  0.00  0.00    +0.000 A 
ATOM      6  C   UNL     1     111.725 132.218 145.329  0.00  0.00    +0.000 A 
ATOM      7  C   UNL     1     111.995 132.680 144.701  0.00  0.00    +0.000 A 
ATOM      8  C   UNL     1     112.119 132.337 143.961  0.00  0.00    +0.000 A 
ATOM      9  C   UNL     1     111.547 130.232 144.373  0.00  0.00    +0.000 A 
ATOM     10  C   UNL     1     112.106 131.187 143.073  0.00  0.00    +0.000 A 
ATOM     11  C   UNL     1     111.674 129.870 143.605  0.00  0.00    +0.000 A 
ATOM     12  C   UNL     1     111.956 130.351 142.951  0.00  0.00    +0.000 A 
ENDROOT
BRANCH   6  14
ATOM     13  O   UNL     1     111.231 133.586 148.292  0.00  0.00    +0.000 OA
ATOM     14  C   UNL     1     111.601 132.560 146.070  0.00  0.00    +0.000 A 
ATOM     15  C   UNL     1     110.871 132.901 146.250  0.00  0.00    +0.000 A 
ATOM     16  C   UNL     1     112.207 132.562 146.630  0.00  0.00    +0.000 A 
ATOM     17  C   UNL     1     110.748 133.243 146.991  0.00  0.00    +0.000 A 
ATOM     18  C   UNL     1     112.083 132.904 147.370  0.00  0.00    +0.000 A 
ATOM     19  C   UNL     1     111.354 133.244 147.551  0.00  0.00    +0.000 A 
BRANCH  17  20
ATOM     20  O   UNL     1     110.019 133.583 147.172  0.00  0.00    +0.000 OA
ATOM     21  C   UNL     1     109.323 133.246 146.885  0.00  0.00    +0.000 C 
ENDBRANCH  17  20
ENDBRANCH   6  14
BRANCH   7  22
ATOM     22  O   UNL     1     112.141 133.484 144.813  0.00  0.00    +0.000 OA
ATOM     23  C   UNL     1     112.104 134.002 144.173  0.00  0.00    +0.000 C 
ENDBRANCH   7  22
BRANCH   9  24
ATOM     24  O   UNL     1     111.277 129.779 145.007  0.00  0.00    +0.000 OA
ATOM     25  C   UNL     1     111.764 129.198 145.335  0.00  0.00    +0.000 C 
ENDBRANCH   9  24
BRANCH  11  26
ATOM     26  O   UNL     1     111.527 129.065 143.496  0.00  0.00    +0.000 OA
ATOM     27  C   UNL     1     111.541 128.742 142.737  0.00  0.00    +0.000 C 
ENDBRANCH  11  26
TORSDOF 5
ENDMDL
MODEL 8
REMARK VINA RESULT:      -7.5      1.720      4.054
REMARK  Name = 5459184
REMARK  5 active torsions:
REMARK  status: ('A' for Active; 'I' for Inactive)
REMARK    1  A    between atoms: O_2  and  C_12
REMARK    2  A    between atoms: O_3  and  C_14
REMARK    3  A    between atoms: O_4  and  C_17
REMARK    4  A    between atoms: O_7  and  C_21
REMARK    5  A    between atoms: C_11  and  C_15
REMARK                            x       y       z     vdW  Elec       q    Type
REMARK                         _______ _______ _______ _____ _____    ______ ____
ROOT
ATOM      1  O   UNL     1     103.568 124.852 147.417  0.00  0.00    +0.000 OA
ATOM      2  O   UNL     1     104.284 123.037 145.286  0.00  0.00    +0.000 OA
ATOM      3  O   UNL     1     105.264 123.914 145.878  0.00  0.00    +0.000 OA
ATOM      4  C   UNL     1     103.921 123.954 146.363  0.00  0.00    +0.000 A 
ATOM      5  C   UNL     1     103.356 124.267 146.876  0.00  0.00    +0.000 A 
ATOM      6  C   UNL     1     104.347 125.125 147.445  0.00  0.00    +0.000 A 
ATOM      7  C   UNL     1     104.912 124.813 146.932  0.00  0.00    +0.000 A 
ATOM      8  C   UNL     1     104.699 124.227 146.391  0.00  0.00    +0.000 A 
ATOM      9  C   UNL     1     102.542 123.991 146.857  0.00  0.00    +0.000 A 
ATOM     10  C   UNL     1     103.712 123.344 145.795  0.00  0.00    +0.000 A 
ATOM     11  C   UNL     1     102.315 123.381 146.296  0.00  0.00    +0.000 A 
ATOM     12  C   UNL     1     102.904 123.056 145.761  0.00  0.00    +0.000 A 
ENDROOT
BRANCH   6  14
ATOM     13  O   UNL     1     105.196 127.465 149.612  0.00  0.00    +0.000 OA
ATOM     14  C   UNL     1     104.559 125.710 147.986  0.00  0.00    +0.000 A 
ATOM     15  C   UNL     1     104.438 126.506 147.803  0.00  0.00    +0.000 A 
ATOM     16  C   UNL     1     104.893 125.500 148.712  0.00  0.00    +0.000 A 
ATOM     17  C   UNL     1     104.650 127.090 148.346  0.00  0.00    +0.000 A 
ATOM     18  C   UNL     1     105.105 126.085 149.253  0.00  0.00    +0.000 A 
ATOM     19  C   UNL     1     104.983 126.880 149.070  0.00  0.00    +0.000 A 
BRANCH  17  20
ATOM     20  O   UNL     1     104.529 127.886 148.163  0.00  0.00    +0.000 OA
ATOM     21  C   UNL     1     103.790 128.141 147.898  0.00  0.00    +0.000 C 
ENDBRANCH  17  20
ENDBRANCH   6  14
BRANCH   7  22
ATOM     22  O   UNL     1     105.690 125.085 146.960  0.00  0.00    +0.000 OA
ATOM     23  C   UNL     1     106.167 125.042 146.289  0.00  0.00    +0.000 C 
ENDBRANCH   7  22
BRANCH   9  24
ATOM     24  O   UNL     1     101.984 124.309 147.374  0.00  0.00    +0.000 OA
ATOM     25  C   UNL     1     101.689 123.853 147.995  0.00  0.00    +0.000 C 
ENDBRANCH   9  24
BRANCH  11  26
ATOM     26  O   UNL     1     101.535 123.111 146.270  0.00  0.00    +0.000 OA
ATOM     27  C   UNL     1     101.250 122.740 145.591  0.00  0.00    +0.000 C 
ENDBRANCH  11  26
TORSDOF 5
ENDMDL
MODEL 9
REMARK VINA RESULT:      -7.4     12.231     13.101
REMARK  Name = 5459184
REMARK  5 active torsions:
REMARK  status: ('A' for Active; 'I' for Inactive)
REMARK    1  A    between atoms: O_2  and  C_12
REMARK    2  A    between atoms: O_3  and  C_14
REMARK    3  A    between atoms: O_4  and  C_17
REMARK    4  A    between atoms: O_7  and  C_21
REMARK    5  A    between atoms: C_11  and  C_15
REMARK                            x       y       z     vdW  Elec       q    Type
REMARK                         _______ _______ _______ _____ _____    ______ ____
ROOT
ATOM      1  O   UNL     1     111.716 127.110 136.179  0.00  0.00    +0.000 OA
ATOM      2  O   UNL     1     111.699 124.221 136.114  0.00  0.00    +0.000 OA
ATOM      3  O   UNL     1     110.667 124.987 135.459  0.00  0.00    +0.000 OA
ATOM      4  C   UNL     1     111.708 125.681 136.147  0.00  0.00    +0.000 A 
ATOM      5  C   UNL     1     112.058 126.388 136.387  0.00  0.00    +0.000 A 
ATOM      6  C   UNL     1     111.023 127.123 135.729  0.00  0.00    +0.000 A 
ATOM      7  C   UNL     1     110.674 126.415 135.489  0.00  0.00    +0.000 A 
ATOM      8  C   UNL     1     111.017 125.694 135.699  0.00  0.00    +0.000 A 
ATOM      9  C   UNL     1     112.779 126.388 136.855  0.00  0.00    +0.000 A 
ATOM     10  C   UNL     1     112.056 124.923 136.358  0.00  0.00    +0.000 A 
ATOM     11  C   UNL     1     113.140 125.640 137.075  0.00  0.00    +0.000 A 
ATOM     12  C   UNL     1     112.776 124.903 136.826  0.00  0.00    +0.000 A 
ENDROOT
BRANCH   6  14
ATOM     13  O   UNL     1     109.657 130.008 134.893  0.00  0.00    +0.000 OA
ATOM     14  C   UNL     1     110.681 127.844 135.521  0.00  0.00    +0.000 A 
ATOM     15  C   UNL     1     110.116 128.190 136.012  0.00  0.00    +0.000 A 
ATOM     16  C   UNL     1     110.906 128.219 134.820  0.00  0.00    +0.000 A 
ATOM     17  C   UNL     1     109.775 128.912 135.802  0.00  0.00    +0.000 A 
ATOM     18  C   UNL     1     110.564 128.940 134.612  0.00  0.00    +0.000 A 
ATOM     19  C   UNL     1     109.998 129.286 135.103  0.00  0.00    +0.000 A 
BRANCH  17  20
ATOM     20  O   UNL     1     109.209 129.258 136.293  0.00  0.00    +0.000 OA
ATOM     21  C   UNL     1     109.337 129.297 137.107  0.00  0.00    +0.000 C 
ENDBRANCH  17  20
ENDBRANCH   6  14
BRANCH   7  22
ATOM     22  O   UNL     1     109.982 126.429 135.041  0.00  0.00    +0.000 OA
ATOM     23  C   UNL     1     109.707 125.736 134.687  0.00  0.00    +0.000 C 
ENDBRANCH   7  22
BRANCH   9  24
ATOM     24  O   UNL     1     113.122 127.100 137.091  0.00  0.00    +0.000 OA
ATOM     25  C   UNL     1     113.098 127.327 137.884  0.00  0.00    +0.000 C 
ENDBRANCH   9  24
BRANCH  11  26
ATOM     26  O   UNL     1     113.833 125.631 137.525  0.00  0.00    +0.000 OA
ATOM     27  C   UNL     1     114.344 124.984 137.480  0.00  0.00    +0.000 C 
ENDBRANCH  11  26
TORSDOF 5
ENDMDL
MODEL 10
REMARK VINA RESULT:      -7.4     11.204     13.240
REMARK  Name = 5459184
REMARK  5 active torsions:
REMARK  status: ('A' for Active; 'I' for Inactive)
REMARK    1  A    between atoms: O_2  and  C_12
REMARK    2  A    between atoms: O_3  and  C_14
REMARK    3  A    between atoms: O_4  and  C_17
REMARK    4  A    between atoms: O_7  and  C_21
REMARK    5  A    between atoms: C_11  and  C_15
REMARK                            x       y       z     vdW  Elec       q    Type
REMARK                         _______ _______ _______ _____ _____    ______ ____
ROOT
ATOM      1  O   UNL     1     113.192 127.382 136.965  0.00  0.00    +0.000 OA
ATOM      2  O   UNL     1     112.970 129.321 139.096  0.00  0.00    +0.000 OA
ATOM      3  O   UNL     1     112.863 127.907 139.361  0.00  0.00    +0.000 OA
ATOM      4  C   UNL     1     113.083 128.341 138.018  0.00  0.00    +0.000 A 
ATOM      5  C   UNL     1     113.192 128.166 137.220  0.00  0.00    +0.000 A 
ATOM      6  C   UNL     1     113.082 126.771 137.511  0.00  0.00    +0.000 A 
ATOM      7  C   UNL     1     112.973 126.947 138.309  0.00  0.00    +0.000 A 
ATOM      8  C   UNL     1     112.973 127.732 138.563  0.00  0.00    +0.000 A 
ATOM      9  C   UNL     1     113.308 128.793 136.642  0.00  0.00    +0.000 A 
ATOM     10  C   UNL     1     113.081 129.155 138.295  0.00  0.00    +0.000 A 
ATOM     11  C   UNL     1     113.309 129.612 136.901  0.00  0.00    +0.000 A 
ATOM     12  C   UNL     1     113.195 129.794 137.732  0.00  0.00    +0.000 A 
ENDROOT
BRANCH   6  14
ATOM     13  O   UNL     1     113.085 123.632 136.493  0.00  0.00    +0.000 OA
ATOM     14  C   UNL     1     113.082 125.987 137.256  0.00  0.00    +0.000 A 
ATOM     15  C   UNL     1     112.389 125.647 136.966  0.00  0.00    +0.000 A 
ATOM     16  C   UNL     1     113.777 125.542 137.292  0.00  0.00    +0.000 A 
ATOM     17  C   UNL     1     112.390 124.862 136.712  0.00  0.00    +0.000 A 
ATOM     18  C   UNL     1     113.777 124.757 137.038  0.00  0.00    +0.000 A 
ATOM     19  C   UNL     1     113.083 124.417 136.748  0.00  0.00    +0.000 A 
BRANCH  17  20
ATOM     20  O   UNL     1     111.697 124.522 136.421  0.00  0.00    +0.000 OA
ATOM     21  C   UNL     1     111.154 124.982 136.005  0.00  0.00    +0.000 C 
ENDBRANCH  17  20
ENDBRANCH   6  14
BRANCH   7  22
ATOM     22  O   UNL     1     112.863 126.337 138.854  0.00  0.00    +0.000 OA
ATOM     23  C   UNL     1     112.490 126.490 139.574  0.00  0.00    +0.000 C 
ENDBRANCH   7  22
BRANCH   9  24
ATOM     24  O   UNL     1     113.417 128.608 135.846  0.00  0.00    +0.000 OA
ATOM     25  C   UNL     1     112.826 128.784 135.297  0.00  0.00    +0.000 C 
ENDBRANCH   9  24
BRANCH  11  26
ATOM     26  O   UNL     1     113.419 130.219 136.353  0.00  0.00    +0.000 OA
ATOM     27  C   UNL     1     113.662 130.965 136.608  0.00  0.00    +0.000 C 
ENDBRANCH  11  26
TORSDOF 5
ENDMDL
