MODEL 1
REMARK VINA RESULT:      -8.2      0.000      0.000
REMARK  Name = 14157886
REMARK  2 active torsions:
REMARK  status: ('A' for Active; 'I' for Inactive)
REMARK    1  A    between atoms: O_2  and  C_15
REMARK    2  A    between atoms: C_5  and  C_10
REMARK                            x       y       z     vdW  Elec       q    Type
REMARK                         _______ _______ _______ _____ _____    ______ ____
ROOT
ATOM      1  O   UNL     1     111.973 126.246 136.033  0.00  0.00    +0.000 OA
ATOM      2  C   UNL     1     112.188 125.504 136.321  0.00  0.00    +0.000 C 
ATOM      3  C   UNL     1     111.693 124.855 136.200  0.00  0.00    +0.000 C 
ATOM      4  C   UNL     1     110.983 124.949 135.789  0.00  0.00    +0.000 C 
ATOM      5  C   UNL     1     110.769 125.692 135.501  0.00  0.00    +0.000 A 
ATOM      6  C   UNL     1     111.263 126.340 135.623  0.00  0.00    +0.000 A 
ATOM      7  C   UNL     1     110.027 125.777 135.076  0.00  0.00    +0.000 A 
ATOM      8  C   UNL     1     111.051 127.119 135.328  0.00  0.00    +0.000 A 
ATOM      9  C   UNL     1     110.313 127.223 134.900  0.00  0.00    +0.000 A 
ATOM     10  C   UNL     1     109.797 126.547 134.773  0.00  0.00    +0.000 A 
ENDROOT
BRANCH   2  13
ATOM     11  O   UNL     1     113.818 126.050 138.605  0.00  0.00    +0.000 OA
ATOM     12  O   UNL     1     115.026 125.128 137.962  0.00  0.00    +0.000 OA
ATOM     13  C   UNL     1     112.897 125.410 136.731  0.00  0.00    +0.000 A 
ATOM     14  C   UNL     1     113.002 125.777 137.463  0.00  0.00    +0.000 A 
ATOM     15  C   UNL     1     113.502 124.949 136.411  0.00  0.00    +0.000 A 
ATOM     16  C   UNL     1     113.712 125.683 137.873  0.00  0.00    +0.000 A 
ATOM     17  C   UNL     1     114.211 124.855 136.820  0.00  0.00    +0.000 A 
ATOM     18  C   UNL     1     114.316 125.222 137.552  0.00  0.00    +0.000 A 
ENDBRANCH   2  13
BRANCH   9  19
ATOM     19  O   UNL     1     110.101 127.967 134.613  0.00  0.00    +0.000 OA
ATOM     20  C   UNL     1     109.642 128.473 135.077  0.00  0.00    +0.000 C 
ENDBRANCH   9  19
TORSDOF 2
ENDMDL
MODEL 2
REMARK VINA RESULT:      -8.1      7.984      8.561
REMARK  Name = 14157886
REMARK  2 active torsions:
REMARK  status: ('A' for Active; 'I' for Inactive)
REMARK    1  A    between atoms: O_2  and  C_15
REMARK    2  A    between atoms: C_5  and  C_10
REMARK                            x       y       z     vdW  Elec       q    Type
REMARK                         _______ _______ _______ _____ _____    ______ ____
ROOT
ATOM      1  O   UNL     1     104.453 123.597 138.189  0.00  0.00    +0.000 OA
ATOM      2  C   UNL     1     104.105 123.785 138.913  0.00  0.00    +0.000 C 
ATOM      3  C   UNL     1     103.283 123.797 138.984  0.00  0.00    +0.000 C 
ATOM      4  C   UNL     1     102.809 123.620 138.331  0.00  0.00    +0.000 C 
ATOM      5  C   UNL     1     103.159 123.432 137.608  0.00  0.00    +0.000 A 
ATOM      6  C   UNL     1     103.980 123.421 137.537  0.00  0.00    +0.000 A 
ATOM      7  C   UNL     1     102.655 123.250 136.936  0.00  0.00    +0.000 A 
ATOM      8  C   UNL     1     104.355 123.227 136.788  0.00  0.00    +0.000 A 
ATOM      9  C   UNL     1     103.868 123.042 136.105  0.00  0.00    +0.000 A 
ATOM     10  C   UNL     1     103.011 123.054 136.180  0.00  0.00    +0.000 A 
ENDROOT
BRANCH   2  13
ATOM     11  O   UNL     1     105.681 125.653 140.394  0.00  0.00    +0.000 OA
ATOM     12  O   UNL     1     105.997 124.492 141.523  0.00  0.00    +0.000 OA
ATOM     13  C   UNL     1     104.577 123.962 139.565  0.00  0.00    +0.000 A 
ATOM     14  C   UNL     1     104.893 124.719 139.653  0.00  0.00    +0.000 A 
ATOM     15  C   UNL     1     104.736 123.381 140.130  0.00  0.00    +0.000 A 
ATOM     16  C   UNL     1     105.366 124.896 140.306  0.00  0.00    +0.000 A 
ATOM     17  C   UNL     1     105.208 123.558 140.782  0.00  0.00    +0.000 A 
ATOM     18  C   UNL     1     105.523 124.315 140.870  0.00  0.00    +0.000 A 
ENDBRANCH   2  13
BRANCH   9  19
ATOM     19  O   UNL     1     104.219 122.855 135.383  0.00  0.00    +0.000 OA
ATOM     20  C   UNL     1     104.232 123.411 134.774  0.00  0.00    +0.000 C 
ENDBRANCH   9  19
TORSDOF 2
ENDMDL
MODEL 3
REMARK VINA RESULT:      -8.1     12.822     13.359
REMARK  Name = 14157886
REMARK  2 active torsions:
REMARK  status: ('A' for Active; 'I' for Inactive)
REMARK    1  A    between atoms: O_2  and  C_15
REMARK    2  A    between atoms: C_5  and  C_10
REMARK                            x       y       z     vdW  Elec       q    Type
REMARK                         _______ _______ _______ _____ _____    ______ ____
ROOT
ATOM      1  O   UNL     1     105.196 124.241 147.286  0.00  0.00    +0.000 OA
ATOM      2  C   UNL     1     105.449 124.647 147.958  0.00  0.00    +0.000 C 
ATOM      3  C   UNL     1     104.902 125.054 148.424  0.00  0.00    +0.000 C 
ATOM      4  C   UNL     1     104.103 125.055 148.217  0.00  0.00    +0.000 C 
ATOM      5  C   UNL     1     103.851 124.649 147.544  0.00  0.00    +0.000 A 
ATOM      6  C   UNL     1     104.398 124.242 147.079  0.00  0.00    +0.000 A 
ATOM      7  C   UNL     1     103.017 124.657 147.339  0.00  0.00    +0.000 A 
ATOM      8  C   UNL     1     104.147 123.815 146.376  0.00  0.00    +0.000 A 
ATOM      9  C   UNL     1     103.317 123.813 146.155  0.00  0.00    +0.000 A 
ATOM     10  C   UNL     1     102.747 124.237 146.640  0.00  0.00    +0.000 A 
ENDROOT
BRANCH   2  13
ATOM     11  O   UNL     1     108.152 125.383 147.395  0.00  0.00    +0.000 OA
ATOM     12  O   UNL     1     108.643 124.644 148.787  0.00  0.00    +0.000 OA
ATOM     13  C   UNL     1     106.247 124.646 148.165  0.00  0.00    +0.000 A 
ATOM     14  C   UNL     1     106.800 125.015 147.677  0.00  0.00    +0.000 A 
ATOM     15  C   UNL     1     106.493 124.277 148.861  0.00  0.00    +0.000 A 
ATOM     16  C   UNL     1     107.599 125.014 147.884  0.00  0.00    +0.000 A 
ATOM     17  C   UNL     1     107.291 124.276 149.068  0.00  0.00    +0.000 A 
ATOM     18  C   UNL     1     107.844 124.645 148.580  0.00  0.00    +0.000 A 
ENDBRANCH   2  13
BRANCH   9  19
ATOM     19  O   UNL     1     103.067 123.406 145.482  0.00  0.00    +0.000 OA
ATOM     20  C   UNL     1     102.588 122.739 145.557  0.00  0.00    +0.000 C 
ENDBRANCH   9  19
TORSDOF 2
ENDMDL
MODEL 4
REMARK VINA RESULT:      -8.0     10.535     12.590
REMARK  Name = 14157886
REMARK  2 active torsions:
REMARK  status: ('A' for Active; 'I' for Inactive)
REMARK    1  A    between atoms: O_2  and  C_15
REMARK    2  A    between atoms: C_5  and  C_10
REMARK                            x       y       z     vdW  Elec       q    Type
REMARK                         _______ _______ _______ _____ _____    ______ ____
ROOT
ATOM      1  O   UNL     1     102.491 131.963 141.298  0.00  0.00    +0.000 OA
ATOM      2  C   UNL     1     102.134 131.241 141.476  0.00  0.00    +0.000 C 
ATOM      3  C   UNL     1     101.395 131.227 141.844  0.00  0.00    +0.000 C 
ATOM      4  C   UNL     1     101.015 131.935 142.034  0.00  0.00    +0.000 C 
ATOM      5  C   UNL     1     101.374 132.656 141.856  0.00  0.00    +0.000 A 
ATOM      6  C   UNL     1     102.112 132.670 141.487  0.00  0.00    +0.000 A 
ATOM      7  C   UNL     1     100.968 133.386 142.058  0.00  0.00    +0.000 A 
ATOM      8  C   UNL     1     102.495 133.415 141.296  0.00  0.00    +0.000 A 
ATOM      9  C   UNL     1     102.105 134.155 141.491  0.00  0.00    +0.000 A 
ATOM     10  C   UNL     1     101.335 134.140 141.875  0.00  0.00    +0.000 A 
ENDROOT
BRANCH   2  13
ATOM     11  O   UNL     1     102.604 129.099 139.643  0.00  0.00    +0.000 OA
ATOM     12  O   UNL     1     103.652 128.411 140.716  0.00  0.00    +0.000 OA
ATOM     13  C   UNL     1     102.513 130.534 141.286  0.00  0.00    +0.000 A 
ATOM     14  C   UNL     1     102.368 130.171 140.560  0.00  0.00    +0.000 A 
ATOM     15  C   UNL     1     103.037 130.189 141.822  0.00  0.00    +0.000 A 
ATOM     16  C   UNL     1     102.748 129.462 140.370  0.00  0.00    +0.000 A 
ATOM     17  C   UNL     1     103.417 129.483 141.633  0.00  0.00    +0.000 A 
ATOM     18  C   UNL     1     103.272 129.119 140.906  0.00  0.00    +0.000 A 
ENDBRANCH   2  13
BRANCH   9  19
ATOM     19  O   UNL     1     102.465 134.875 141.312  0.00  0.00    +0.000 OA
ATOM     20  C   UNL     1     102.177 135.338 140.693  0.00  0.00    +0.000 C 
ENDBRANCH   9  19
TORSDOF 2
ENDMDL
MODEL 5
REMARK VINA RESULT:      -7.9      8.157      9.345
REMARK  Name = 14157886
REMARK  2 active torsions:
REMARK  status: ('A' for Active; 'I' for Inactive)
REMARK    1  A    between atoms: O_2  and  C_15
REMARK    2  A    between atoms: C_5  and  C_10
REMARK                            x       y       z     vdW  Elec       q    Type
REMARK                         _______ _______ _______ _____ _____    ______ ____
ROOT
ATOM      1  O   UNL     1     104.524 124.664 139.556  0.00  0.00    +0.000 OA
ATOM      2  C   UNL     1     104.308 123.891 139.363  0.00  0.00    +0.000 C 
ATOM      3  C   UNL     1     104.569 123.263 139.829  0.00  0.00    +0.000 C 
ATOM      4  C   UNL     1     105.047 123.407 140.487  0.00  0.00    +0.000 C 
ATOM      5  C   UNL     1     105.262 124.180 140.678  0.00  0.00    +0.000 A 
ATOM      6  C   UNL     1     105.000 124.809 140.213  0.00  0.00    +0.000 A 
ATOM      7  C   UNL     1     105.759 124.318 141.366  0.00  0.00    +0.000 A 
ATOM      8  C   UNL     1     105.218 125.618 140.402  0.00  0.00    +0.000 A 
ATOM      9  C   UNL     1     105.715 125.775 141.085  0.00  0.00    +0.000 A 
ATOM     10  C   UNL     1     105.987 125.119 141.571  0.00  0.00    +0.000 A 
ENDROOT
BRANCH   2  13
ATOM     11  O   UNL     1     101.714 123.739 138.173  0.00  0.00    +0.000 OA
ATOM     12  O   UNL     1     102.400 123.313 136.734  0.00  0.00    +0.000 OA
ATOM     13  C   UNL     1     103.831 123.747 138.706  0.00  0.00    +0.000 A 
ATOM     14  C   UNL     1     103.012 123.815 138.769  0.00  0.00    +0.000 A 
ATOM     15  C   UNL     1     104.174 123.534 137.986  0.00  0.00    +0.000 A 
ATOM     16  C   UNL     1     102.534 123.670 138.111  0.00  0.00    +0.000 A 
ATOM     17  C   UNL     1     103.697 123.390 137.329  0.00  0.00    +0.000 A 
ATOM     18  C   UNL     1     102.877 123.458 137.392  0.00  0.00    +0.000 A 
ENDBRANCH   2  13
BRANCH   9  19
ATOM     19  O   UNL     1     105.929 126.549 141.275  0.00  0.00    +0.000 OA
ATOM     20  C   UNL     1     105.654 126.894 141.972  0.00  0.00    +0.000 C 
ENDBRANCH   9  19
TORSDOF 2
ENDMDL
MODEL 6
REMARK VINA RESULT:      -7.8      1.120      4.200
REMARK  Name = 14157886
REMARK  2 active torsions:
REMARK  status: ('A' for Active; 'I' for Inactive)
REMARK    1  A    between atoms: O_2  and  C_15
REMARK    2  A    between atoms: C_5  and  C_10
REMARK                            x       y       z     vdW  Elec       q    Type
REMARK                         _______ _______ _______ _____ _____    ______ ____
ROOT
ATOM      1  O   UNL     1     111.881 125.715 136.522  0.00  0.00    +0.000 OA
ATOM      2  C   UNL     1     111.211 125.363 136.194  0.00  0.00    +0.000 C 
ATOM      3  C   UNL     1     111.202 124.551 136.047  0.00  0.00    +0.000 C 
ATOM      4  C   UNL     1     111.863 124.091 136.228  0.00  0.00    +0.000 C 
ATOM      5  C   UNL     1     112.533 124.444 136.556  0.00  0.00    +0.000 A 
ATOM      6  C   UNL     1     112.542 125.256 136.703  0.00  0.00    +0.000 A 
ATOM      7  C   UNL     1     113.216 123.955 136.740  0.00  0.00    +0.000 A 
ATOM      8  C   UNL     1     113.234 125.635 137.044  0.00  0.00    +0.000 A 
ATOM      9  C   UNL     1     113.925 125.162 137.234  0.00  0.00    +0.000 A 
ATOM     10  C   UNL     1     113.916 124.316 137.081  0.00  0.00    +0.000 A 
ENDROOT
BRANCH   2  13
ATOM     11  O   UNL     1     108.968 126.915 137.046  0.00  0.00    +0.000 OA
ATOM     12  O   UNL     1     108.565 127.198 135.471  0.00  0.00    +0.000 OA
ATOM     13  C   UNL     1     110.550 125.821 136.013  0.00  0.00    +0.000 A 
ATOM     14  C   UNL     1     110.090 126.138 136.620  0.00  0.00    +0.000 A 
ATOM     15  C   UNL     1     110.348 125.963 135.226  0.00  0.00    +0.000 A 
ATOM     16  C   UNL     1     109.428 126.598 136.439  0.00  0.00    +0.000 A 
ATOM     17  C   UNL     1     109.687 126.422 135.045  0.00  0.00    +0.000 A 
ATOM     18  C   UNL     1     109.227 126.739 135.652  0.00  0.00    +0.000 A 
ENDBRANCH   2  13
BRANCH   9  19
ATOM     19  O   UNL     1     114.594 125.518 137.562  0.00  0.00    +0.000 OA
ATOM     20  C   UNL     1     114.581 125.778 138.345  0.00  0.00    +0.000 C 
ENDBRANCH   9  19
TORSDOF 2
ENDMDL
MODEL 7
REMARK VINA RESULT:      -7.7      1.489      1.896
REMARK  Name = 14157886
REMARK  2 active torsions:
REMARK  status: ('A' for Active; 'I' for Inactive)
REMARK    1  A    between atoms: O_2  and  C_15
REMARK    2  A    between atoms: C_5  and  C_10
REMARK                            x       y       z     vdW  Elec       q    Type
REMARK                         _______ _______ _______ _____ _____    ______ ____
ROOT
ATOM      1  O   UNL     1     110.773 126.100 136.508  0.00  0.00    +0.000 OA
ATOM      2  C   UNL     1     111.038 125.464 136.053  0.00  0.00    +0.000 C 
ATOM      3  C   UNL     1     110.667 125.287 135.338  0.00  0.00    +0.000 C 
ATOM      4  C   UNL     1     110.032 125.745 135.077  0.00  0.00    +0.000 C 
ATOM      5  C   UNL     1     109.768 126.380 135.533  0.00  0.00    +0.000 A 
ATOM      6  C   UNL     1     110.138 126.557 136.248  0.00  0.00    +0.000 A 
ATOM      7  C   UNL     1     109.105 126.849 135.251  0.00  0.00    +0.000 A 
ATOM      8  C   UNL     1     109.871 127.217 136.731  0.00  0.00    +0.000 A 
ATOM      9  C   UNL     1     109.211 127.697 136.465  0.00  0.00    +0.000 A 
ATOM     10  C   UNL     1     108.825 127.512 135.719  0.00  0.00    +0.000 A 
ENDROOT
BRANCH   2  13
ATOM     11  O   UNL     1     112.037 123.055 137.222  0.00  0.00    +0.000 OA
ATOM     12  O   UNL     1     113.578 123.632 137.094  0.00  0.00    +0.000 OA
ATOM     13  C   UNL     1     111.672 125.007 136.313  0.00  0.00    +0.000 A 
ATOM     14  C   UNL     1     111.537 124.260 136.637  0.00  0.00    +0.000 A 
ATOM     15  C   UNL     1     112.443 125.295 136.250  0.00  0.00    +0.000 A 
ATOM     16  C   UNL     1     112.172 123.802 136.898  0.00  0.00    +0.000 A 
ATOM     17  C   UNL     1     113.078 124.837 136.510  0.00  0.00    +0.000 A 
ATOM     18  C   UNL     1     112.942 124.091 136.834  0.00  0.00    +0.000 A 
ENDBRANCH   2  13
BRANCH   9  19
ATOM     19  O   UNL     1     108.948 128.331 136.922  0.00  0.00    +0.000 OA
ATOM     20  C   UNL     1     109.250 129.088 136.790  0.00  0.00    +0.000 C 
ENDBRANCH   9  19
TORSDOF 2
ENDMDL
MODEL 8
REMARK VINA RESULT:      -7.7     12.740     13.710
REMARK  Name = 14157886
REMARK  2 active torsions:
REMARK  status: ('A' for Active; 'I' for Inactive)
REMARK    1  A    between atoms: O_2  and  C_15
REMARK    2  A    between atoms: C_5  and  C_10
REMARK                            x       y       z     vdW  Elec       q    Type
REMARK                         _______ _______ _______ _____ _____    ______ ____
ROOT
ATOM      1  O   UNL     1     105.006 124.321 147.331  0.00  0.00    +0.000 OA
ATOM      2  C   UNL     1     104.658 124.381 146.585  0.00  0.00    +0.000 C 
ATOM      3  C   UNL     1     105.060 124.761 145.973  0.00  0.00    +0.000 C 
ATOM      4  C   UNL     1     105.809 125.081 146.106  0.00  0.00    +0.000 C 
ATOM      5  C   UNL     1     106.155 125.021 146.853  0.00  0.00    +0.000 A 
ATOM      6  C   UNL     1     105.754 124.641 147.465  0.00  0.00    +0.000 A 
ATOM      7  C   UNL     1     106.936 125.358 146.980  0.00  0.00    +0.000 A 
ATOM      8  C   UNL     1     106.105 124.572 148.247  0.00  0.00    +0.000 A 
ATOM      9  C   UNL     1     106.884 124.903 148.392  0.00  0.00    +0.000 A 
ATOM     10  C   UNL     1     107.303 125.299 147.753  0.00  0.00    +0.000 A 
ENDROOT
BRANCH   2  13
ATOM     11  O   UNL     1     101.823 124.492 146.926  0.00  0.00    +0.000 OA
ATOM     12  O   UNL     1     101.663 123.102 146.050  0.00  0.00    +0.000 OA
ATOM     13  C   UNL     1     103.910 124.061 146.452  0.00  0.00    +0.000 A 
ATOM     14  C   UNL     1     103.241 124.436 146.756  0.00  0.00    +0.000 A 
ATOM     15  C   UNL     1     103.829 123.367 146.014  0.00  0.00    +0.000 A 
ATOM     16  C   UNL     1     102.491 124.117 146.622  0.00  0.00    +0.000 A 
ATOM     17  C   UNL     1     103.081 123.047 145.880  0.00  0.00    +0.000 A 
ATOM     18  C   UNL     1     102.412 123.422 146.184  0.00  0.00    +0.000 A 
ENDBRANCH   2  13
BRANCH   9  19
ATOM     19  O   UNL     1     107.229 124.842 149.139  0.00  0.00    +0.000 OA
ATOM     20  C   UNL     1     107.938 124.431 149.233  0.00  0.00    +0.000 C 
ENDBRANCH   9  19
TORSDOF 2
ENDMDL
MODEL 9
REMARK VINA RESULT:      -7.7     10.309     12.487
REMARK  Name = 14157886
REMARK  2 active torsions:
REMARK  status: ('A' for Active; 'I' for Inactive)
REMARK    1  A    between atoms: O_2  and  C_15
REMARK    2  A    between atoms: C_5  and  C_10
REMARK                            x       y       z     vdW  Elec       q    Type
REMARK                         _______ _______ _______ _____ _____    ______ ____
ROOT
ATOM      1  O   UNL     1     102.870 130.563 142.058  0.00  0.00    +0.000 OA
ATOM      2  C   UNL     1     102.343 130.877 141.506  0.00  0.00    +0.000 C 
ATOM      3  C   UNL     1     102.224 130.493 140.785  0.00  0.00    +0.000 C 
ATOM      4  C   UNL     1     102.633 129.795 140.617  0.00  0.00    +0.000 C 
ATOM      5  C   UNL     1     103.159 129.483 141.170  0.00  0.00    +0.000 A 
ATOM      6  C   UNL     1     103.278 129.867 141.890  0.00  0.00    +0.000 A 
ATOM      7  C   UNL     1     103.579 128.756 140.983  0.00  0.00    +0.000 A 
ATOM      8  C   UNL     1     103.824 129.550 142.474  0.00  0.00    +0.000 A 
ATOM      9  C   UNL     1     104.252 128.825 142.305  0.00  0.00    +0.000 A 
ATOM     10  C   UNL     1     104.128 128.425 141.554  0.00  0.00    +0.000 A 
ENDROOT
BRANCH   2  13
ATOM     11  O   UNL     1     102.200 133.731 141.471  0.00  0.00    +0.000 OA
ATOM     12  O   UNL     1     100.710 133.665 142.177  0.00  0.00    +0.000 OA
ATOM     13  C   UNL     1     101.935 131.573 141.673  0.00  0.00    +0.000 A 
ATOM     14  C   UNL     1     102.272 132.303 141.488  0.00  0.00    +0.000 A 
ATOM     15  C   UNL     1     101.190 131.541 142.026  0.00  0.00    +0.000 A 
ATOM     16  C   UNL     1     101.864 133.001 141.656  0.00  0.00    +0.000 A 
ATOM     17  C   UNL     1     100.782 132.237 142.194  0.00  0.00    +0.000 A 
ATOM     18  C   UNL     1     101.119 132.967 142.009  0.00  0.00    +0.000 A 
ENDBRANCH   2  13
BRANCH   9  19
ATOM     19  O   UNL     1     104.778 128.514 142.859  0.00  0.00    +0.000 OA
ATOM     20  C   UNL     1     105.360 127.980 142.621  0.00  0.00    +0.000 C 
ENDBRANCH   9  19
TORSDOF 2
ENDMDL
MODEL 10
REMARK VINA RESULT:      -7.6     11.260     12.730
REMARK  Name = 14157886
REMARK  2 active torsions:
REMARK  status: ('A' for Active; 'I' for Inactive)
REMARK    1  A    between atoms: O_2  and  C_15
REMARK    2  A    between atoms: C_5  and  C_10
REMARK                            x       y       z     vdW  Elec       q    Type
REMARK                         _______ _______ _______ _____ _____    ______ ____
ROOT
ATOM      1  O   UNL     1     111.895 132.951 146.594  0.00  0.00    +0.000 OA
ATOM      2  C   UNL     1     112.384 132.498 146.107  0.00  0.00    +0.000 C 
ATOM      3  C   UNL     1     112.981 132.036 146.438  0.00  0.00    +0.000 C 
ATOM      4  C   UNL     1     113.090 132.027 147.257  0.00  0.00    +0.000 C 
ATOM      5  C   UNL     1     112.601 132.480 147.742  0.00  0.00    +0.000 A 
ATOM      6  C   UNL     1     112.003 132.941 147.411  0.00  0.00    +0.000 A 
ATOM      7  C   UNL     1     112.724 132.462 148.593  0.00  0.00    +0.000 A 
ATOM      8  C   UNL     1     111.487 133.417 147.907  0.00  0.00    +0.000 A 
ATOM      9  C   UNL     1     111.595 133.412 148.759  0.00  0.00    +0.000 A 
ATOM     10  C   UNL     1     112.218 132.930 149.105  0.00  0.00    +0.000 A 
ENDROOT
BRANCH   2  13
ATOM     11  O   UNL     1     111.032 131.538 143.779  0.00  0.00    +0.000 OA
ATOM     12  O   UNL     1     111.949 132.534 142.836  0.00  0.00    +0.000 OA
ATOM     13  C   UNL     1     112.275 132.507 145.290  0.00  0.00    +0.000 A 
ATOM     14  C   UNL     1     111.708 132.018 144.944  0.00  0.00    +0.000 A 
ATOM     15  C   UNL     1     112.733 133.005 144.817  0.00  0.00    +0.000 A 
ATOM     16  C   UNL     1     111.599 132.027 144.125  0.00  0.00    +0.000 A 
ATOM     17  C   UNL     1     112.625 133.014 144.000  0.00  0.00    +0.000 A 
ATOM     18  C   UNL     1     112.058 132.525 143.654  0.00  0.00    +0.000 A 
ENDBRANCH   2  13
BRANCH   9  19
ATOM     19  O   UNL     1     111.105 133.865 149.243  0.00  0.00    +0.000 OA
ATOM     20  C   UNL     1     110.453 133.518 149.611  0.00  0.00    +0.000 C 
ENDBRANCH   9  19
TORSDOF 2
ENDMDL
