MODEL 1
REMARK VINA RESULT:      -9.6      0.000      0.000
REMARK  Name = 193124
REMARK  4 active torsions:
REMARK  status: ('A' for Active; 'I' for Inactive)
REMARK    1  A    between atoms: O_2  and  C_15
REMARK    2  A    between atoms: O_2  and  C_17
REMARK    3  A    between atoms: C_14  and  C_16
REMARK    4  A    between atoms: C_18  and  C_25
REMARK                            x       y       z     vdW  Elec       q    Type
REMARK                         _______ _______ _______ _____ _____    ______ ____
ROOT
ATOM      1  O   UNL     1     112.080 126.704 136.277  0.00  0.00    +0.000 OA
ATOM      2  O   UNL     1     110.508 124.969 135.473  0.00  0.00    +0.000 OA
ATOM      3  C   UNL     1     110.512 127.994 135.344  0.00  0.00    +0.000 A 
ATOM      4  C   UNL     1     112.246 125.906 136.405  0.00  0.00    +0.000 C 
ATOM      5  C   UNL     1     111.722 125.328 136.137  0.00  0.00    +0.000 C 
ATOM      6  C   UNL     1     111.390 126.924 135.882  0.00  0.00    +0.000 A 
ATOM      7  C   UNL     1     110.866 126.346 135.614  0.00  0.00    +0.000 A 
ATOM      8  C   UNL     1     111.229 127.758 135.755  0.00  0.00    +0.000 A 
ATOM      9  C   UNL     1     111.032 125.548 135.741  0.00  0.00    +0.000 C 
ATOM     10  C   UNL     1     109.966 127.392 135.065  0.00  0.00    +0.000 A 
ATOM     11  C   UNL     1     110.145 126.562 135.200  0.00  0.00    +0.000 A 
ENDROOT
BRANCH   4  14
ATOM     12  O   UNL     1     113.897 125.994 138.736  0.00  0.00    +0.000 OA
ATOM     13  O   UNL     1     115.004 125.026 137.988  0.00  0.00    +0.000 OA
ATOM     14  C   UNL     1     112.936 125.686 136.800  0.00  0.00    +0.000 A 
ATOM     15  C   UNL     1     113.071 125.950 137.571  0.00  0.00    +0.000 A 
ATOM     16  C   UNL     1     113.489 125.202 136.426  0.00  0.00    +0.000 A 
ATOM     17  C   UNL     1     113.761 125.730 137.966  0.00  0.00    +0.000 A 
ATOM     18  C   UNL     1     114.178 124.982 136.822  0.00  0.00    +0.000 A 
ATOM     19  C   UNL     1     114.314 125.246 137.592  0.00  0.00    +0.000 A 
ENDBRANCH   4  14
BRANCH   3  20
ATOM     20  O   UNL     1     110.348 128.793 135.218  0.00  0.00    +0.000 OA
BRANCH  20  29
ATOM     21  O   UNL     1     109.927 129.107 136.547  0.00  0.00    +0.000 OA
ATOM     22  O   UNL     1     108.166 130.589 135.638  0.00  0.00    +0.000 OA
ATOM     23  O   UNL     1     108.332 130.408 137.269  0.00  0.00    +0.000 OA
ATOM     24  O   UNL     1     109.174 129.781 134.612  0.00  0.00    +0.000 OA
ATOM     25  C   UNL     1     108.753 130.095 135.941  0.00  0.00    +0.000 C 
ATOM     26  C   UNL     1     108.836 130.004 136.757  0.00  0.00    +0.000 C 
ATOM     27  C   UNL     1     109.257 129.691 135.428  0.00  0.00    +0.000 C 
ATOM     28  C   UNL     1     109.423 129.510 137.059  0.00  0.00    +0.000 C 
ATOM     29  C   UNL     1     109.845 129.196 135.730  0.00  0.00    +0.000 C 
BRANCH  28  31
ATOM     30  O   UNL     1     109.303 128.706 138.234  0.00  0.00    +0.000 OA
ATOM     31  C   UNL     1     109.506 129.420 137.875  0.00  0.00    +0.000 C 
ENDBRANCH  28  31
ENDBRANCH  20  29
ENDBRANCH   3  20
TORSDOF 4
ENDMDL
MODEL 2
REMARK VINA RESULT:      -9.4      1.157      1.559
REMARK  Name = 193124
REMARK  4 active torsions:
REMARK  status: ('A' for Active; 'I' for Inactive)
REMARK    1  A    between atoms: O_2  and  C_15
REMARK    2  A    between atoms: O_2  and  C_17
REMARK    3  A    between atoms: C_14  and  C_16
REMARK    4  A    between atoms: C_18  and  C_25
REMARK                            x       y       z     vdW  Elec       q    Type
REMARK                         _______ _______ _______ _____ _____    ______ ____
ROOT
ATOM      1  O   UNL     1     111.018 126.260 136.517  0.00  0.00    +0.000 OA
ATOM      2  O   UNL     1     109.790 125.255 134.616  0.00  0.00    +0.000 OA
ATOM      3  C   UNL     1     109.325 127.708 136.329  0.00  0.00    +0.000 A 
ATOM      4  C   UNL     1     111.299 125.570 136.163  0.00  0.00    +0.000 C 
ATOM      5  C   UNL     1     110.890 125.236 135.529  0.00  0.00    +0.000 C 
ATOM      6  C   UNL     1     110.327 126.615 136.238  0.00  0.00    +0.000 A 
ATOM      7  C   UNL     1     109.918 126.281 135.605  0.00  0.00    +0.000 A 
ATOM      8  C   UNL     1     110.044 127.333 136.615  0.00  0.00    +0.000 A 
ATOM      9  C   UNL     1     110.199 125.591 135.250  0.00  0.00    +0.000 C 
ATOM     10  C   UNL     1     108.900 127.359 135.669  0.00  0.00    +0.000 A 
ATOM     11  C   UNL     1     109.198 126.641 135.305  0.00  0.00    +0.000 A 
ENDROOT
BRANCH   4  14
ATOM     12  O   UNL     1     114.144 125.567 136.436  0.00  0.00    +0.000 OA
ATOM     13  O   UNL     1     114.061 124.150 137.278  0.00  0.00    +0.000 OA
ATOM     14  C   UNL     1     111.989 125.215 136.442  0.00  0.00    +0.000 A 
ATOM     15  C   UNL     1     112.721 125.569 136.299  0.00  0.00    +0.000 A 
ATOM     16  C   UNL     1     111.948 124.507 136.863  0.00  0.00    +0.000 A 
ATOM     17  C   UNL     1     113.412 125.213 136.578  0.00  0.00    +0.000 A 
ATOM     18  C   UNL     1     112.638 124.152 137.141  0.00  0.00    +0.000 A 
ATOM     19  C   UNL     1     113.370 124.505 136.999  0.00  0.00    +0.000 A 
ENDBRANCH   4  14
BRANCH   3  20
ATOM     20  O   UNL     1     109.047 128.398 136.685  0.00  0.00    +0.000 OA
BRANCH  20  29
ATOM     21  O   UNL     1     109.988 129.380 136.247  0.00  0.00    +0.000 OA
ATOM     22  O   UNL     1     108.128 130.841 135.519  0.00  0.00    +0.000 OA
ATOM     23  O   UNL     1     109.689 131.334 135.324  0.00  0.00    +0.000 OA
ATOM     24  O   UNL     1     107.806 129.372 136.200  0.00  0.00    +0.000 OA
ATOM     25  C   UNL     1     108.748 130.354 135.762  0.00  0.00    +0.000 C 
ATOM     26  C   UNL     1     109.529 130.600 135.665  0.00  0.00    +0.000 C 
ATOM     27  C   UNL     1     108.587 129.619 136.103  0.00  0.00    +0.000 C 
ATOM     28  C   UNL     1     110.149 130.113 135.907  0.00  0.00    +0.000 C 
ATOM     29  C   UNL     1     109.207 129.132 136.345  0.00  0.00    +0.000 C 
BRANCH  28  31
ATOM     30  O   UNL     1     111.468 130.285 136.430  0.00  0.00    +0.000 OA
ATOM     31  C   UNL     1     110.930 130.360 135.809  0.00  0.00    +0.000 C 
ENDBRANCH  28  31
ENDBRANCH  20  29
ENDBRANCH   3  20
TORSDOF 4
ENDMDL
MODEL 3
REMARK VINA RESULT:      -9.3      7.090     10.503
REMARK  Name = 193124
REMARK  4 active torsions:
REMARK  status: ('A' for Active; 'I' for Inactive)
REMARK    1  A    between atoms: O_2  and  C_15
REMARK    2  A    between atoms: O_2  and  C_17
REMARK    3  A    between atoms: C_14  and  C_16
REMARK    4  A    between atoms: C_18  and  C_25
REMARK                            x       y       z     vdW  Elec       q    Type
REMARK                         _______ _______ _______ _____ _____    ______ ____
ROOT
ATOM      1  O   UNL     1     103.181 130.246 141.978  0.00  0.00    +0.000 OA
ATOM      2  O   UNL     1     102.766 128.969 139.898  0.00  0.00    +0.000 OA
ATOM      3  C   UNL     1     104.548 128.507 142.302  0.00  0.00    +0.000 A 
ATOM      4  C   UNL     1     102.646 130.531 141.419  0.00  0.00    +0.000 C 
ATOM      5  C   UNL     1     102.508 130.105 140.726  0.00  0.00    +0.000 C 
ATOM      6  C   UNL     1     103.577 129.534 141.845  0.00  0.00    +0.000 A 
ATOM      7  C   UNL     1     103.439 129.109 141.152  0.00  0.00    +0.000 A 
ATOM      8  C   UNL     1     104.132 129.248 142.435  0.00  0.00    +0.000 A 
ATOM      9  C   UNL     1     102.904 129.394 140.592  0.00  0.00    +0.000 C 
ATOM     10  C   UNL     1     104.404 128.065 141.580  0.00  0.00    +0.000 A 
ATOM     11  C   UNL     1     103.846 128.367 141.001  0.00  0.00    +0.000 A 
ENDROOT
BRANCH   4  14
ATOM     12  O   UNL     1     102.579 133.386 141.305  0.00  0.00    +0.000 OA
ATOM     13  O   UNL     1     101.061 133.376 141.952  0.00  0.00    +0.000 OA
ATOM     14  C   UNL     1     102.249 131.242 141.552  0.00  0.00    +0.000 A 
ATOM     15  C   UNL     1     102.613 131.959 141.362  0.00  0.00    +0.000 A 
ATOM     16  C   UNL     1     101.490 131.237 141.875  0.00  0.00    +0.000 A 
ATOM     17  C   UNL     1     102.216 132.670 141.495  0.00  0.00    +0.000 A 
ATOM     18  C   UNL     1     101.095 131.948 142.008  0.00  0.00    +0.000 A 
ATOM     19  C   UNL     1     101.457 132.664 141.818  0.00  0.00    +0.000 A 
ENDBRANCH   4  14
BRANCH   3  20
ATOM     20  O   UNL     1     105.082 128.224 142.863  0.00  0.00    +0.000 OA
BRANCH  20  29
ATOM     21  O   UNL     1     106.247 128.839 142.309  0.00  0.00    +0.000 OA
ATOM     22  O   UNL     1     107.591 126.856 142.935  0.00  0.00    +0.000 OA
ATOM     23  O   UNL     1     108.307 128.131 142.172  0.00  0.00    +0.000 OA
ATOM     24  O   UNL     1     105.978 126.903 143.280  0.00  0.00    +0.000 OA
ATOM     25  C   UNL     1     107.143 127.517 142.726  0.00  0.00    +0.000 C 
ATOM     26  C   UNL     1     107.501 128.155 142.345  0.00  0.00    +0.000 C 
ATOM     27  C   UNL     1     106.336 127.540 142.899  0.00  0.00    +0.000 C 
ATOM     28  C   UNL     1     107.053 128.816 142.136  0.00  0.00    +0.000 C 
ATOM     29  C   UNL     1     105.888 128.201 142.690  0.00  0.00    +0.000 C 
BRANCH  28  31
ATOM     30  O   UNL     1     107.193 129.649 140.984  0.00  0.00    +0.000 OA
ATOM     31  C   UNL     1     107.411 129.453 141.755  0.00  0.00    +0.000 C 
ENDBRANCH  28  31
ENDBRANCH  20  29
ENDBRANCH   3  20
TORSDOF 4
ENDMDL
MODEL 4
REMARK VINA RESULT:      -9.3      2.392      3.065
REMARK  Name = 193124
REMARK  4 active torsions:
REMARK  status: ('A' for Active; 'I' for Inactive)
REMARK    1  A    between atoms: O_2  and  C_15
REMARK    2  A    between atoms: O_2  and  C_17
REMARK    3  A    between atoms: C_14  and  C_16
REMARK    4  A    between atoms: C_18  and  C_25
REMARK                            x       y       z     vdW  Elec       q    Type
REMARK                         _______ _______ _______ _____ _____    ______ ____
ROOT
ATOM      1  O   UNL     1     111.969 126.761 136.059  0.00  0.00    +0.000 OA
ATOM      2  O   UNL     1     109.983 127.063 134.612  0.00  0.00    +0.000 OA
ATOM      3  C   UNL     1     112.335 128.837 135.313  0.00  0.00    +0.000 A 
ATOM      4  C   UNL     1     111.416 126.154 135.985  0.00  0.00    +0.000 C 
ATOM      5  C   UNL     1     110.754 126.254 135.503  0.00  0.00    +0.000 C 
ATOM      6  C   UNL     1     111.860 127.470 135.651  0.00  0.00    +0.000 A 
ATOM      7  C   UNL     1     111.198 127.571 135.169  0.00  0.00    +0.000 A 
ATOM      8  C   UNL     1     112.443 128.096 135.736  0.00  0.00    +0.000 A 
ATOM      9  C   UNL     1     110.646 126.963 135.095  0.00  0.00    +0.000 C 
ATOM     10  C   UNL     1     111.646 128.941 134.811  0.00  0.00    +0.000 A 
ATOM     11  C   UNL     1     111.074 128.304 134.739  0.00  0.00    +0.000 A 
ENDROOT
BRANCH   4  14
ATOM     12  O   UNL     1     111.196 124.623 138.388  0.00  0.00    +0.000 OA
ATOM     13  O   UNL     1     111.851 123.319 137.618  0.00  0.00    +0.000 OA
ATOM     14  C   UNL     1     111.525 125.445 136.393  0.00  0.00    +0.000 A 
ATOM     15  C   UNL     1     111.306 125.389 137.187  0.00  0.00    +0.000 A 
ATOM     16  C   UNL     1     111.853 124.793 136.008  0.00  0.00    +0.000 A 
ATOM     17  C   UNL     1     111.415 124.680 137.595  0.00  0.00    +0.000 A 
ATOM     18  C   UNL     1     111.961 124.085 136.416  0.00  0.00    +0.000 A 
ATOM     19  C   UNL     1     111.742 124.028 137.210  0.00  0.00    +0.000 A 
ENDBRANCH   4  14
BRANCH   3  20
ATOM     20  O   UNL     1     112.889 129.443 135.389  0.00  0.00    +0.000 OA
BRANCH  20  29
ATOM     21  O   UNL     1     112.219 130.222 136.382  0.00  0.00    +0.000 OA
ATOM     22  O   UNL     1     114.374 130.602 137.539  0.00  0.00    +0.000 OA
ATOM     23  O   UNL     1     112.986 131.254 138.145  0.00  0.00    +0.000 OA
ATOM     24  O   UNL     1     114.326 129.696 136.161  0.00  0.00    +0.000 OA
ATOM     25  C   UNL     1     113.656 130.476 137.153  0.00  0.00    +0.000 C 
ATOM     26  C   UNL     1     112.961 130.802 137.456  0.00  0.00    +0.000 C 
ATOM     27  C   UNL     1     113.631 130.022 136.464  0.00  0.00    +0.000 C 
ATOM     28  C   UNL     1     112.243 130.675 137.071  0.00  0.00    +0.000 C 
ATOM     29  C   UNL     1     112.913 129.895 136.078  0.00  0.00    +0.000 C 
BRANCH  28  31
ATOM     30  O   UNL     1     111.082 131.491 136.902  0.00  0.00    +0.000 OA
ATOM     31  C   UNL     1     111.549 131.001 137.374  0.00  0.00    +0.000 C 
ENDBRANCH  28  31
ENDBRANCH  20  29
ENDBRANCH   3  20
TORSDOF 4
ENDMDL
MODEL 5
REMARK VINA RESULT:      -9.3      1.347      5.680
REMARK  Name = 193124
REMARK  4 active torsions:
REMARK  status: ('A' for Active; 'I' for Inactive)
REMARK    1  A    between atoms: O_2  and  C_15
REMARK    2  A    between atoms: O_2  and  C_17
REMARK    3  A    between atoms: C_14  and  C_16
REMARK    4  A    between atoms: C_18  and  C_25
REMARK                            x       y       z     vdW  Elec       q    Type
REMARK                         _______ _______ _______ _____ _____    ______ ____
ROOT
ATOM      1  O   UNL     1     111.134 128.558 136.448  0.00  0.00    +0.000 OA
ATOM      2  O   UNL     1     112.642 129.311 134.634  0.00  0.00    +0.000 OA
ATOM      3  C   UNL     1     112.970 127.385 136.948  0.00  0.00    +0.000 A 
ATOM      4  C   UNL     1     110.868 129.103 135.889  0.00  0.00    +0.000 C 
ATOM      5  C   UNL     1     111.370 129.354 135.285  0.00  0.00    +0.000 C 
ATOM      6  C   UNL     1     111.904 128.263 136.402  0.00  0.00    +0.000 A 
ATOM      7  C   UNL     1     112.406 128.514 135.798  0.00  0.00    +0.000 A 
ATOM      8  C   UNL     1     112.169 127.696 136.990  0.00  0.00    +0.000 A 
ATOM      9  C   UNL     1     112.140 129.059 135.239  0.00  0.00    +0.000 C 
ATOM     10  C   UNL     1     113.493 127.647 136.318  0.00  0.00    +0.000 A 
ATOM     11  C   UNL     1     113.209 128.215 135.740  0.00  0.00    +0.000 A 
ENDROOT
BRANCH   4  14
ATOM     12  O   UNL     1     108.045 128.691 135.711  0.00  0.00    +0.000 OA
ATOM     13  O   UNL     1     107.790 130.281 136.070  0.00  0.00    +0.000 OA
ATOM     14  C   UNL     1     110.098 129.398 135.934  0.00  0.00    +0.000 A 
ATOM     15  C   UNL     1     109.456 128.896 135.800  0.00  0.00    +0.000 A 
ATOM     16  C   UNL     1     109.971 130.193 136.114  0.00  0.00    +0.000 A 
ATOM     17  C   UNL     1     108.687 129.191 135.845  0.00  0.00    +0.000 A 
ATOM     18  C   UNL     1     109.202 130.487 136.159  0.00  0.00    +0.000 A 
ATOM     19  C   UNL     1     108.560 129.986 136.025  0.00  0.00    +0.000 A 
ENDBRANCH   4  14
BRANCH   3  20
ATOM     20  O   UNL     1     113.234 126.840 137.508  0.00  0.00    +0.000 OA
BRANCH  20  29
ATOM     21  O   UNL     1     112.592 125.683 136.968  0.00  0.00    +0.000 OA
ATOM     22  O   UNL     1     114.593 124.326 137.497  0.00  0.00    +0.000 OA
ATOM     23  O   UNL     1     113.284 123.622 136.782  0.00  0.00    +0.000 OA
ATOM     24  O   UNL     1     114.568 125.935 137.860  0.00  0.00    +0.000 OA
ATOM     25  C   UNL     1     113.926 124.778 137.321  0.00  0.00    +0.000 C 
ATOM     26  C   UNL     1     113.271 124.427 136.963  0.00  0.00    +0.000 C 
ATOM     27  C   UNL     1     113.913 125.584 137.502  0.00  0.00    +0.000 C 
ATOM     28  C   UNL     1     112.604 124.879 136.787  0.00  0.00    +0.000 C 
ATOM     29  C   UNL     1     113.246 126.036 137.326  0.00  0.00    +0.000 C 
BRANCH  28  31
ATOM     30  O   UNL     1     111.203 124.599 136.773  0.00  0.00    +0.000 OA
ATOM     31  C   UNL     1     111.950 124.527 136.429  0.00  0.00    +0.000 C 
ENDBRANCH  28  31
ENDBRANCH  20  29
ENDBRANCH   3  20
TORSDOF 4
ENDMDL
MODEL 6
REMARK VINA RESULT:      -9.3      2.563      4.258
REMARK  Name = 193124
REMARK  4 active torsions:
REMARK  status: ('A' for Active; 'I' for Inactive)
REMARK    1  A    between atoms: O_2  and  C_15
REMARK    2  A    between atoms: O_2  and  C_17
REMARK    3  A    between atoms: C_14  and  C_16
REMARK    4  A    between atoms: C_18  and  C_25
REMARK                            x       y       z     vdW  Elec       q    Type
REMARK                         _______ _______ _______ _____ _____    ______ ____
ROOT
ATOM      1  O   UNL     1     112.605 128.331 135.534  0.00  0.00    +0.000 OA
ATOM      2  O   UNL     1     110.693 129.604 134.612  0.00  0.00    +0.000 OA
ATOM      3  C   UNL     1     111.025 126.751 135.569  0.00  0.00    +0.000 A 
ATOM      4  C   UNL     1     112.700 129.122 135.321  0.00  0.00    +0.000 C 
ATOM      5  C   UNL     1     112.063 129.546 135.014  0.00  0.00    +0.000 C 
ATOM      6  C   UNL     1     111.872 127.964 135.440  0.00  0.00    +0.000 A 
ATOM      7  C   UNL     1     111.235 128.388 135.132  0.00  0.00    +0.000 A 
ATOM      8  C   UNL     1     111.786 127.139 135.665  0.00  0.00    +0.000 A 
ATOM      9  C   UNL     1     111.330 129.179 134.920  0.00  0.00    +0.000 C 
ATOM     10  C   UNL     1     110.361 127.193 135.249  0.00  0.00    +0.000 A 
ATOM     11  C   UNL     1     110.467 128.017 135.029  0.00  0.00    +0.000 A 
ENDROOT
BRANCH   4  14
ATOM     12  O   UNL     1     114.536 130.604 136.935  0.00  0.00    +0.000 OA
ATOM     13  O   UNL     1     115.630 130.592 135.700  0.00  0.00    +0.000 OA
ATOM     14  C   UNL     1     113.433 129.490 135.416  0.00  0.00    +0.000 A 
ATOM     15  C   UNL     1     113.618 129.863 136.129  0.00  0.00    +0.000 A 
ATOM     16  C   UNL     1     113.980 129.484 134.799  0.00  0.00    +0.000 A 
ATOM     17  C   UNL     1     114.351 130.231 136.223  0.00  0.00    +0.000 A 
ATOM     18  C   UNL     1     114.712 129.851 134.894  0.00  0.00    +0.000 A 
ATOM     19  C   UNL     1     114.898 130.225 135.606  0.00  0.00    +0.000 A 
ENDBRANCH   4  14
BRANCH   3  20
ATOM     20  O   UNL     1     110.932 125.959 135.783  0.00  0.00    +0.000 OA
BRANCH  20  29
ATOM     21  O   UNL     1     110.430 126.180 137.102  0.00  0.00    +0.000 OA
ATOM     22  O   UNL     1     111.743 124.251 137.926  0.00  0.00    +0.000 OA
ATOM     23  O   UNL     1     110.803 125.115 138.970  0.00  0.00    +0.000 OA
ATOM     24  O   UNL     1     111.808 124.673 136.332  0.00  0.00    +0.000 OA
ATOM     25  C   UNL     1     111.305 124.894 137.651  0.00  0.00    +0.000 C 
ATOM     26  C   UNL     1     110.835 125.327 138.173  0.00  0.00    +0.000 C 
ATOM     27  C   UNL     1     111.338 125.105 136.854  0.00  0.00    +0.000 C 
ATOM     28  C   UNL     1     110.397 125.970 137.898  0.00  0.00    +0.000 C 
ATOM     29  C   UNL     1     110.900 125.749 136.579  0.00  0.00    +0.000 C 
BRANCH  28  31
ATOM     30  O   UNL     1     109.131 126.533 138.248  0.00  0.00    +0.000 OA
ATOM     31  C   UNL     1     109.928 126.401 138.420  0.00  0.00    +0.000 C 
ENDBRANCH  28  31
ENDBRANCH  20  29
ENDBRANCH   3  20
TORSDOF 4
ENDMDL
MODEL 7
REMARK VINA RESULT:      -9.3      1.471      2.231
REMARK  Name = 193124
REMARK  4 active torsions:
REMARK  status: ('A' for Active; 'I' for Inactive)
REMARK    1  A    between atoms: O_2  and  C_15
REMARK    2  A    between atoms: O_2  and  C_17
REMARK    3  A    between atoms: C_14  and  C_16
REMARK    4  A    between atoms: C_18  and  C_25
REMARK                            x       y       z     vdW  Elec       q    Type
REMARK                         _______ _______ _______ _____ _____    ______ ____
ROOT
ATOM      1  O   UNL     1     112.591 127.247 137.100  0.00  0.00    +0.000 OA
ATOM      2  O   UNL     1     113.897 128.651 135.534  0.00  0.00    +0.000 OA
ATOM      3  C   UNL     1     111.361 129.114 137.122  0.00  0.00    +0.000 A 
ATOM      4  C   UNL     1     113.276 126.948 136.751  0.00  0.00    +0.000 C 
ATOM      5  C   UNL     1     113.711 127.416 136.229  0.00  0.00    +0.000 C 
ATOM      6  C   UNL     1     112.341 128.015 136.928  0.00  0.00    +0.000 A 
ATOM      7  C   UNL     1     112.776 128.483 136.406  0.00  0.00    +0.000 A 
ATOM      8  C   UNL     1     111.626 128.315 137.298  0.00  0.00    +0.000 A 
ATOM      9  C   UNL     1     113.461 128.183 136.056  0.00  0.00    +0.000 C 
ATOM     10  C   UNL     1     111.815 129.600 136.578  0.00  0.00    +0.000 A 
ATOM     11  C   UNL     1     112.527 129.283 136.218  0.00  0.00    +0.000 A 
ENDROOT
BRANCH   4  14
ATOM     12  O   UNL     1     113.101 124.130 136.307  0.00  0.00    +0.000 OA
ATOM     13  O   UNL     1     114.275 123.880 137.440  0.00  0.00    +0.000 OA
ATOM     14  C   UNL     1     113.526 126.181 136.923  0.00  0.00    +0.000 A 
ATOM     15  C   UNL     1     113.188 125.539 136.529  0.00  0.00    +0.000 A 
ATOM     16  C   UNL     1     114.113 126.056 137.490  0.00  0.00    +0.000 A 
ATOM     17  C   UNL     1     113.438 124.772 136.701  0.00  0.00    +0.000 A 
ATOM     18  C   UNL     1     114.362 125.289 137.661  0.00  0.00    +0.000 A 
ATOM     19  C   UNL     1     114.025 124.647 137.267  0.00  0.00    +0.000 A 
ENDBRANCH   4  14
BRANCH   3  20
ATOM     20  O   UNL     1     110.676 129.410 137.473  0.00  0.00    +0.000 OA
BRANCH  20  29
ATOM     21  O   UNL     1     109.701 128.823 136.608  0.00  0.00    +0.000 OA
ATOM     22  O   UNL     1     108.455 130.961 136.560  0.00  0.00    +0.000 OA
ATOM     23  O   UNL     1     107.897 129.661 135.712  0.00  0.00    +0.000 OA
ATOM     24  O   UNL     1     109.845 130.835 137.441  0.00  0.00    +0.000 OA
ATOM     25  C   UNL     1     108.871 130.248 136.576  0.00  0.00    +0.000 C 
ATOM     26  C   UNL     1     108.592 129.598 136.152  0.00  0.00    +0.000 C 
ATOM     27  C   UNL     1     109.566 130.185 137.017  0.00  0.00    +0.000 C 
ATOM     28  C   UNL     1     109.007 128.885 136.168  0.00  0.00    +0.000 C 
ATOM     29  C   UNL     1     109.981 129.472 137.033  0.00  0.00    +0.000 C 
BRANCH  28  31
ATOM     30  O   UNL     1     108.534 127.537 136.138  0.00  0.00    +0.000 OA
ATOM     31  C   UNL     1     108.728 128.236 135.744  0.00  0.00    +0.000 C 
ENDBRANCH  28  31
ENDBRANCH  20  29
ENDBRANCH   3  20
TORSDOF 4
ENDMDL
MODEL 8
REMARK VINA RESULT:      -9.3      1.550      2.035
REMARK  Name = 193124
REMARK  4 active torsions:
REMARK  status: ('A' for Active; 'I' for Inactive)
REMARK    1  A    between atoms: O_2  and  C_15
REMARK    2  A    between atoms: O_2  and  C_17
REMARK    3  A    between atoms: C_14  and  C_16
REMARK    4  A    between atoms: C_18  and  C_25
REMARK                            x       y       z     vdW  Elec       q    Type
REMARK                         _______ _______ _______ _____ _____    ______ ____
ROOT
ATOM      1  O   UNL     1     111.543 127.071 136.169  0.00  0.00    +0.000 OA
ATOM      2  O   UNL     1     113.830 128.015 136.240  0.00  0.00    +0.000 OA
ATOM      3  C   UNL     1     111.145 129.129 135.393  0.00  0.00    +0.000 A 
ATOM      4  C   UNL     1     112.172 126.609 136.436  0.00  0.00    +0.000 C 
ATOM      5  C   UNL     1     112.934 126.924 136.460  0.00  0.00    +0.000 C 
ATOM      6  C   UNL     1     111.676 127.848 135.925  0.00  0.00    +0.000 A 
ATOM      7  C   UNL     1     112.438 128.163 135.949  0.00  0.00    +0.000 A 
ATOM      8  C   UNL     1     111.012 128.319 135.649  0.00  0.00    +0.000 A 
ATOM      9  C   UNL     1     113.067 127.701 136.216  0.00  0.00    +0.000 C 
ATOM     10  C   UNL     1     111.939 129.456 135.418  0.00  0.00    +0.000 A 
ATOM     11  C   UNL     1     112.589 128.970 135.698  0.00  0.00    +0.000 A 
ENDROOT
BRANCH   4  14
ATOM     12  O   UNL     1     111.245 124.758 138.407  0.00  0.00    +0.000 OA
ATOM     13  O   UNL     1     111.639 123.502 137.412  0.00  0.00    +0.000 OA
ATOM     14  C   UNL     1     112.039 125.832 136.680  0.00  0.00    +0.000 A 
ATOM     15  C   UNL     1     111.708 125.684 137.422  0.00  0.00    +0.000 A 
ATOM     16  C   UNL     1     112.236 125.204 136.182  0.00  0.00    +0.000 A 
ATOM     17  C   UNL     1     111.575 124.907 137.666  0.00  0.00    +0.000 A 
ATOM     18  C   UNL     1     112.102 124.428 136.427  0.00  0.00    +0.000 A 
ATOM     19  C   UNL     1     111.772 124.279 137.168  0.00  0.00    +0.000 A 
ENDBRANCH   4  14
BRANCH   3  20
ATOM     20  O   UNL     1     110.514 129.589 135.127  0.00  0.00    +0.000 OA
BRANCH  20  29
ATOM     21  O   UNL     1     110.251 130.313 136.330  0.00  0.00    +0.000 OA
ATOM     22  O   UNL     1     107.818 130.042 135.961  0.00  0.00    +0.000 OA
ATOM     23  O   UNL     1     108.366 130.856 137.287  0.00  0.00    +0.000 OA
ATOM     24  O   UNL     1     108.892 129.408 134.881  0.00  0.00    +0.000 OA
ATOM     25  C   UNL     1     108.629 130.132 136.084  0.00  0.00    +0.000 C 
ATOM     26  C   UNL     1     108.904 130.539 136.747  0.00  0.00    +0.000 C 
ATOM     27  C   UNL     1     109.167 129.815 135.544  0.00  0.00    +0.000 C 
ATOM     28  C   UNL     1     109.714 130.629 136.870  0.00  0.00    +0.000 C 
ATOM     29  C   UNL     1     109.977 129.905 135.667  0.00  0.00    +0.000 C 
BRANCH  28  31
ATOM     30  O   UNL     1     110.543 131.641 137.447  0.00  0.00    +0.000 OA
ATOM     31  C   UNL     1     109.988 131.036 137.533  0.00  0.00    +0.000 C 
ENDBRANCH  28  31
ENDBRANCH  20  29
ENDBRANCH   3  20
TORSDOF 4
ENDMDL
MODEL 9
REMARK VINA RESULT:      -9.2      1.372      5.207
REMARK  Name = 193124
REMARK  4 active torsions:
REMARK  status: ('A' for Active; 'I' for Inactive)
REMARK    1  A    between atoms: O_2  and  C_15
REMARK    2  A    between atoms: O_2  and  C_17
REMARK    3  A    between atoms: C_14  and  C_16
REMARK    4  A    between atoms: C_18  and  C_25
REMARK                            x       y       z     vdW  Elec       q    Type
REMARK                         _______ _______ _______ _____ _____    ______ ____
ROOT
ATOM      1  O   UNL     1     110.201 127.336 136.467  0.00  0.00    +0.000 OA
ATOM      2  O   UNL     1     110.392 125.708 134.612  0.00  0.00    +0.000 OA
ATOM      3  C   UNL     1     111.083 125.596 137.558  0.00  0.00    +0.000 A 
ATOM      4  C   UNL     1     109.956 127.545 135.708  0.00  0.00    +0.000 C 
ATOM      5  C   UNL     1     110.020 127.003 135.090  0.00  0.00    +0.000 C 
ATOM      6  C   UNL     1     110.509 126.584 136.609  0.00  0.00    +0.000 A 
ATOM      7  C   UNL     1     110.573 126.041 135.991  0.00  0.00    +0.000 A 
ATOM      8  C   UNL     1     110.760 126.378 137.404  0.00  0.00    +0.000 A 
ATOM      9  C   UNL     1     110.328 126.251 135.231  0.00  0.00    +0.000 C 
ATOM     10  C   UNL     1     111.149 125.031 136.913  0.00  0.00    +0.000 A 
ATOM     11  C   UNL     1     110.892 125.255 136.125  0.00  0.00    +0.000 A 
ENDROOT
BRANCH   4  14
ATOM     12  O   UNL     1     107.863 129.464 136.037  0.00  0.00    +0.000 OA
ATOM     13  O   UNL     1     108.721 130.553 135.143  0.00  0.00    +0.000 OA
ATOM     14  C   UNL     1     109.647 128.298 135.566  0.00  0.00    +0.000 A 
ATOM     15  C   UNL     1     108.909 128.504 135.873  0.00  0.00    +0.000 A 
ATOM     16  C   UNL     1     110.076 128.842 135.119  0.00  0.00    +0.000 A 
ATOM     17  C   UNL     1     108.601 129.257 135.731  0.00  0.00    +0.000 A 
ATOM     18  C   UNL     1     109.767 129.593 134.978  0.00  0.00    +0.000 A 
ATOM     19  C   UNL     1     109.030 129.801 135.284  0.00  0.00    +0.000 A 
ENDBRANCH   4  14
BRANCH   3  20
ATOM     20  O   UNL     1     111.327 125.389 138.318  0.00  0.00    +0.000 OA
BRANCH  20  29
ATOM     21  O   UNL     1     112.716 125.714 138.239  0.00  0.00    +0.000 OA
ATOM     22  O   UNL     1     112.578 126.839 140.439  0.00  0.00    +0.000 OA
ATOM     23  O   UNL     1     114.013 126.789 139.627  0.00  0.00    +0.000 OA
ATOM     24  O   UNL     1     111.235 126.139 139.785  0.00  0.00    +0.000 OA
ATOM     25  C   UNL     1     112.624 126.464 139.706  0.00  0.00    +0.000 C 
ATOM     26  C   UNL     1     113.341 126.438 139.299  0.00  0.00    +0.000 C 
ATOM     27  C   UNL     1     111.952 126.114 139.378  0.00  0.00    +0.000 C 
ATOM     28  C   UNL     1     113.387 126.063 138.566  0.00  0.00    +0.000 C 
ATOM     29  C   UNL     1     111.998 125.738 138.645  0.00  0.00    +0.000 C 
BRANCH  28  31
ATOM     30  O   UNL     1     114.434 125.312 137.948  0.00  0.00    +0.000 OA
ATOM     31  C   UNL     1     114.104 126.038 138.160  0.00  0.00    +0.000 C 
ENDBRANCH  28  31
ENDBRANCH  20  29
ENDBRANCH   3  20
TORSDOF 4
ENDMDL
MODEL 10
REMARK VINA RESULT:      -9.2      8.756     10.493
REMARK  Name = 193124
REMARK  4 active torsions:
REMARK  status: ('A' for Active; 'I' for Inactive)
REMARK    1  A    between atoms: O_2  and  C_15
REMARK    2  A    between atoms: O_2  and  C_17
REMARK    3  A    between atoms: C_14  and  C_16
REMARK    4  A    between atoms: C_18  and  C_25
REMARK                            x       y       z     vdW  Elec       q    Type
REMARK                         _______ _______ _______ _____ _____    ______ ____
ROOT
ATOM      1  O   UNL     1     106.598 125.751 146.175  0.00  0.00    +0.000 OA
ATOM      2  O   UNL     1     106.613 128.208 146.482  0.00  0.00    +0.000 OA
ATOM      3  C   UNL     1     105.768 126.401 144.204  0.00  0.00    +0.000 A 
ATOM      4  C   UNL     1     106.870 126.077 146.882  0.00  0.00    +0.000 C 
ATOM      5  C   UNL     1     106.875 126.896 146.984  0.00  0.00    +0.000 C 
ATOM      6  C   UNL     1     106.330 126.244 145.570  0.00  0.00    +0.000 A 
ATOM      7  C   UNL     1     106.335 127.063 145.672  0.00  0.00    +0.000 A 
ATOM      8  C   UNL     1     106.049 125.893 144.838  0.00  0.00    +0.000 A 
ATOM      9  C   UNL     1     106.608 127.389 146.379  0.00  0.00    +0.000 C 
ATOM     10  C   UNL     1     105.774 127.254 144.311  0.00  0.00    +0.000 A 
ATOM     11  C   UNL     1     106.059 127.587 145.050  0.00  0.00    +0.000 A 
ENDROOT
BRANCH   4  14
ATOM     12  O   UNL     1     106.331 124.444 149.165  0.00  0.00    +0.000 OA
ATOM     13  O   UNL     1     107.940 124.106 149.303  0.00  0.00    +0.000 OA
ATOM     14  C   UNL     1     107.138 125.584 147.487  0.00  0.00    +0.000 A 
ATOM     15  C   UNL     1     106.600 125.261 148.024  0.00  0.00    +0.000 A 
ATOM     16  C   UNL     1     107.942 125.415 147.556  0.00  0.00    +0.000 A 
ATOM     17  C   UNL     1     106.867 124.768 148.629  0.00  0.00    +0.000 A 
ATOM     18  C   UNL     1     108.209 124.922 148.161  0.00  0.00    +0.000 A 
ATOM     19  C   UNL     1     107.672 124.599 148.698  0.00  0.00    +0.000 A 
ENDBRANCH   4  14
BRANCH   3  20
ATOM     20  O   UNL     1     105.496 126.073 143.498  0.00  0.00    +0.000 OA
BRANCH  20  29
ATOM     21  O   UNL     1     106.630 126.398 142.691  0.00  0.00    +0.000 OA
ATOM     22  O   UNL     1     106.441 124.214 141.544  0.00  0.00    +0.000 OA
ATOM     23  O   UNL     1     107.637 125.267 141.120  0.00  0.00    +0.000 OA
ATOM     24  O   UNL     1     105.371 124.616 142.733  0.00  0.00    +0.000 OA
ATOM     25  C   UNL     1     106.504 124.942 141.926  0.00  0.00    +0.000 C 
ATOM     26  C   UNL     1     107.102 125.469 141.715  0.00  0.00    +0.000 C 
ATOM     27  C   UNL     1     105.969 125.144 142.521  0.00  0.00    +0.000 C 
ATOM     28  C   UNL     1     107.165 126.197 142.097  0.00  0.00    +0.000 C 
ATOM     29  C   UNL     1     106.031 125.872 142.904  0.00  0.00    +0.000 C 
BRANCH  28  31
ATOM     30  O   UNL     1     108.376 126.887 142.413  0.00  0.00    +0.000 OA
ATOM     31  C   UNL     1     107.763 126.724 141.885  0.00  0.00    +0.000 C 
ENDBRANCH  28  31
ENDBRANCH  20  29
ENDBRANCH   3  20
TORSDOF 4
ENDMDL
