MODEL 1
REMARK VINA RESULT:      -9.8      0.000      0.000
REMARK  Name = 44257073
REMARK  4 active torsions:
REMARK  status: ('A' for Active; 'I' for Inactive)
REMARK    1  A    between atoms: O_2  and  C_13
REMARK    2  A    between atoms: O_2  and  C_17
REMARK    3  A    between atoms: C_16  and  C_20
REMARK    4  A    between atoms: C_18  and  C_22
REMARK                            x       y       z     vdW  Elec       q    Type
REMARK                         _______ _______ _______ _____ _____    ______ ____
ROOT
ATOM      1  O   UNL     1     105.491 124.453 147.786  0.00  0.00    +0.000 OA
ATOM      2  O   UNL     1     108.033 125.513 146.908  0.00  0.00    +0.000 OA
ATOM      3  O   UNL     1     107.761 124.442 149.612  0.00  0.00    +0.000 OA
ATOM      4  C   UNL     1     105.630 124.978 146.464  0.00  0.00    +0.000 C 
ATOM      5  C   UNL     1     105.165 124.629 147.050  0.00  0.00    +0.000 C 
ATOM      6  C   UNL     1     106.422 125.152 146.616  0.00  0.00    +0.000 C 
ATOM      7  C   UNL     1     106.749 124.977 147.353  0.00  0.00    +0.000 A 
ATOM      8  C   UNL     1     106.284 124.627 147.938  0.00  0.00    +0.000 A 
ATOM      9  C   UNL     1     107.575 125.163 147.499  0.00  0.00    +0.000 A 
ATOM     10  C   UNL     1     106.612 124.440 148.709  0.00  0.00    +0.000 A 
ATOM     11  C   UNL     1     107.921 124.983 148.264  0.00  0.00    +0.000 A 
ATOM     12  C   UNL     1     107.436 124.618 148.874  0.00  0.00    +0.000 A 
ENDROOT
BRANCH   5  15
ATOM     13  O   UNL     1     103.176 122.882 145.971  0.00  0.00    +0.000 OA
ATOM     14  O   UNL     1     101.996 123.936 146.441  0.00  0.00    +0.000 OA
ATOM     15  C   UNL     1     104.373 124.455 146.897  0.00  0.00    +0.000 A 
ATOM     16  C   UNL     1     104.171 123.755 146.510  0.00  0.00    +0.000 A 
ATOM     17  C   UNL     1     103.782 124.982 147.132  0.00  0.00    +0.000 A 
ATOM     18  C   UNL     1     103.378 123.582 146.358  0.00  0.00    +0.000 A 
ATOM     19  C   UNL     1     102.991 124.808 146.980  0.00  0.00    +0.000 A 
ATOM     20  C   UNL     1     102.788 124.108 146.593  0.00  0.00    +0.000 A 
ENDBRANCH   5  15
BRANCH   4  21
ATOM     21  O   UNL     1     105.303 125.154 145.727  0.00  0.00    +0.000 OA
BRANCH  21  27
ATOM     22  O   UNL     1     105.518 126.558 145.570  0.00  0.00    +0.000 OA
ATOM     23  O   UNL     1     106.043 124.878 144.278  0.00  0.00    +0.000 OA
ATOM     24  O   UNL     1     106.628 126.144 143.397  0.00  0.00    +0.000 OA
ATOM     25  O   UNL     1     106.473 127.685 143.964  0.00  0.00    +0.000 OA
ATOM     26  C   UNL     1     105.965 125.648 144.562  0.00  0.00    +0.000 C 
ATOM     27  C   UNL     1     105.595 125.786 145.287  0.00  0.00    +0.000 C 
ATOM     28  C   UNL     1     106.258 126.282 144.121  0.00  0.00    +0.000 C 
ATOM     29  C   UNL     1     106.181 127.052 144.405  0.00  0.00    +0.000 C 
ATOM     30  C   UNL     1     105.810 127.190 145.129  0.00  0.00    +0.000 C 
BRANCH  30  32
ATOM     31  O   UNL     1     105.025 128.205 145.758  0.00  0.00    +0.000 OA
ATOM     32  C   UNL     1     105.733 127.961 145.412  0.00  0.00    +0.000 C 
ENDBRANCH  30  32
ENDBRANCH  21  27
ENDBRANCH   4  21
TORSDOF 4
ENDMDL
MODEL 2
REMARK VINA RESULT:      -9.3      0.888      3.655
REMARK  Name = 44257073
REMARK  4 active torsions:
REMARK  status: ('A' for Active; 'I' for Inactive)
REMARK    1  A    between atoms: O_2  and  C_13
REMARK    2  A    between atoms: O_2  and  C_17
REMARK    3  A    between atoms: C_16  and  C_20
REMARK    4  A    between atoms: C_18  and  C_22
REMARK                            x       y       z     vdW  Elec       q    Type
REMARK                         _______ _______ _______ _____ _____    ______ ____
ROOT
ATOM      1  O   UNL     1     106.777 125.560 146.696  0.00  0.00    +0.000 OA
ATOM      2  O   UNL     1     105.574 124.250 148.974  0.00  0.00    +0.000 OA
ATOM      3  O   UNL     1     108.472 124.598 148.860  0.00  0.00    +0.000 OA
ATOM      4  C   UNL     1     105.359 125.387 146.757  0.00  0.00    +0.000 C 
ATOM      5  C   UNL     1     106.030 125.661 146.361  0.00  0.00    +0.000 C 
ATOM      6  C   UNL     1     105.436 125.013 147.488  0.00  0.00    +0.000 C 
ATOM      7  C   UNL     1     106.183 124.912 147.823  0.00  0.00    +0.000 A 
ATOM      8  C   UNL     1     106.853 125.185 147.428  0.00  0.00    +0.000 A 
ATOM      9  C   UNL     1     106.250 124.520 148.585  0.00  0.00    +0.000 A 
ATOM     10  C   UNL     1     107.637 125.087 147.766  0.00  0.00    +0.000 A 
ATOM     11  C   UNL     1     107.026 124.412 148.939  0.00  0.00    +0.000 A 
ATOM     12  C   UNL     1     107.724 124.697 148.527  0.00  0.00    +0.000 A 
ENDROOT
BRANCH   5  15
ATOM     13  O   UNL     1     106.194 125.583 143.509  0.00  0.00    +0.000 OA
ATOM     14  O   UNL     1     105.719 127.161 143.438  0.00  0.00    +0.000 OA
ATOM     15  C   UNL     1     105.952 126.036 145.630  0.00  0.00    +0.000 A 
ATOM     16  C   UNL     1     106.112 125.621 144.935  0.00  0.00    +0.000 A 
ATOM     17  C   UNL     1     105.714 126.825 145.595  0.00  0.00    +0.000 A 
ATOM     18  C   UNL     1     106.034 125.997 144.204  0.00  0.00    +0.000 A 
ATOM     19  C   UNL     1     105.637 127.200 144.864  0.00  0.00    +0.000 A 
ATOM     20  C   UNL     1     105.797 126.786 144.169  0.00  0.00    +0.000 A 
ENDBRANCH   5  15
BRANCH   4  21
ATOM     21  O   UNL     1     104.612 125.488 146.422  0.00  0.00    +0.000 OA
BRANCH  21  27
ATOM     22  O   UNL     1     104.184 124.156 146.132  0.00  0.00    +0.000 OA
ATOM     23  O   UNL     1     103.210 125.758 147.250  0.00  0.00    +0.000 OA
ATOM     24  O   UNL     1     102.082 124.560 147.374  0.00  0.00    +0.000 OA
ATOM     25  O   UNL     1     102.356 123.094 146.670  0.00  0.00    +0.000 OA
ATOM     26  C   UNL     1     103.348 125.025 146.898  0.00  0.00    +0.000 C 
ATOM     27  C   UNL     1     104.048 124.890 146.484  0.00  0.00    +0.000 C 
ATOM     28  C   UNL     1     102.783 124.425 146.960  0.00  0.00    +0.000 C 
ATOM     29  C   UNL     1     102.920 123.692 146.607  0.00  0.00    +0.000 C 
ATOM     30  C   UNL     1     103.621 123.558 146.193  0.00  0.00    +0.000 C 
BRANCH  30  32
ATOM     31  O   UNL     1     104.191 122.777 145.141  0.00  0.00    +0.000 OA
ATOM     32  C   UNL     1     103.757 122.825 145.841  0.00  0.00    +0.000 C 
ENDBRANCH  30  32
ENDBRANCH  21  27
ENDBRANCH   4  21
TORSDOF 4
ENDMDL
MODEL 3
REMARK VINA RESULT:      -9.1      9.812     12.516
REMARK  Name = 44257073
REMARK  4 active torsions:
REMARK  status: ('A' for Active; 'I' for Inactive)
REMARK    1  A    between atoms: O_2  and  C_13
REMARK    2  A    between atoms: O_2  and  C_17
REMARK    3  A    between atoms: C_16  and  C_20
REMARK    4  A    between atoms: C_18  and  C_22
REMARK                            x       y       z     vdW  Elec       q    Type
REMARK                         _______ _______ _______ _____ _____    ______ ____
ROOT
ATOM      1  O   UNL     1     113.786 127.459 136.248  0.00  0.00    +0.000 OA
ATOM      2  O   UNL     1     111.711 129.470 136.301  0.00  0.00    +0.000 OA
ATOM      3  O   UNL     1     114.204 129.990 134.870  0.00  0.00    +0.000 OA
ATOM      4  C   UNL     1     112.564 127.209 136.947  0.00  0.00    +0.000 C 
ATOM      5  C   UNL     1     113.313 126.960 136.705  0.00  0.00    +0.000 C 
ATOM      6  C   UNL     1     112.288 127.956 136.731  0.00  0.00    +0.000 C 
ATOM      7  C   UNL     1     112.761 128.454 136.273  0.00  0.00    +0.000 A 
ATOM      8  C   UNL     1     113.509 128.206 136.032  0.00  0.00    +0.000 A 
ATOM      9  C   UNL     1     112.461 129.230 136.055  0.00  0.00    +0.000 A 
ATOM     10  C   UNL     1     114.011 128.715 135.556  0.00  0.00    +0.000 A 
ATOM     11  C   UNL     1     112.949 129.753 135.579  0.00  0.00    +0.000 A 
ATOM     12  C   UNL     1     113.729 129.494 135.327  0.00  0.00    +0.000 A 
ENDROOT
BRANCH   5  15
ATOM     13  O   UNL     1     113.678 124.189 136.112  0.00  0.00    +0.000 OA
ATOM     14  O   UNL     1     114.416 123.974 137.572  0.00  0.00    +0.000 OA
ATOM     15  C   UNL     1     113.589 126.214 136.921  0.00  0.00    +0.000 A 
ATOM     16  C   UNL     1     113.495 125.574 136.408  0.00  0.00    +0.000 A 
ATOM     17  C   UNL     1     113.958 126.106 137.652  0.00  0.00    +0.000 A 
ATOM     18  C   UNL     1     113.771 124.828 136.625  0.00  0.00    +0.000 A 
ATOM     19  C   UNL     1     114.234 125.359 137.868  0.00  0.00    +0.000 A 
ATOM     20  C   UNL     1     114.140 124.720 137.355  0.00  0.00    +0.000 A 
ENDBRANCH   5  15
BRANCH   4  21
ATOM     21  O   UNL     1     112.091 126.711 137.404  0.00  0.00    +0.000 OA
BRANCH  21  27
ATOM     22  O   UNL     1     110.949 126.516 136.567  0.00  0.00    +0.000 OA
ATOM     23  O   UNL     1     111.101 127.098 138.666  0.00  0.00    +0.000 OA
ATOM     24  O   UNL     1     109.464 127.096 138.460  0.00  0.00    +0.000 OA
ATOM     25  O   UNL     1     108.818 126.708 136.994  0.00  0.00    +0.000 OA
ATOM     26  C   UNL     1     110.778 126.904 137.932  0.00  0.00    +0.000 C 
ATOM     27  C   UNL     1     111.273 126.710 137.301  0.00  0.00    +0.000 C 
ATOM     28  C   UNL     1     109.959 126.903 137.829  0.00  0.00    +0.000 C 
ATOM     29  C   UNL     1     109.636 126.708 137.096  0.00  0.00    +0.000 C 
ATOM     30  C   UNL     1     110.131 126.515 136.465  0.00  0.00    +0.000 C 
BRANCH  30  32
ATOM     31  O   UNL     1     110.097 125.672 135.311  0.00  0.00    +0.000 OA
ATOM     32  C   UNL     1     109.808 126.321 135.732  0.00  0.00    +0.000 C 
ENDBRANCH  30  32
ENDBRANCH  21  27
ENDBRANCH   4  21
TORSDOF 4
ENDMDL
MODEL 4
REMARK VINA RESULT:      -9.1     10.106     12.229
REMARK  Name = 44257073
REMARK  4 active torsions:
REMARK  status: ('A' for Active; 'I' for Inactive)
REMARK    1  A    between atoms: O_2  and  C_13
REMARK    2  A    between atoms: O_2  and  C_17
REMARK    3  A    between atoms: C_16  and  C_20
REMARK    4  A    between atoms: C_18  and  C_22
REMARK                            x       y       z     vdW  Elec       q    Type
REMARK                         _______ _______ _______ _____ _____    ______ ____
ROOT
ATOM      1  O   UNL     1     111.599 129.046 135.651  0.00  0.00    +0.000 OA
ATOM      2  O   UNL     1     113.793 127.460 136.665  0.00  0.00    +0.000 OA
ATOM      3  O   UNL     1     114.312 129.603 134.749  0.00  0.00    +0.000 OA
ATOM      4  C   UNL     1     111.351 127.996 136.589  0.00  0.00    +0.000 C 
ATOM      5  C   UNL     1     111.072 128.607 136.109  0.00  0.00    +0.000 C 
ATOM      6  C   UNL     1     112.157 127.824 136.610  0.00  0.00    +0.000 C 
ATOM      7  C   UNL     1     112.685 128.262 136.152  0.00  0.00    +0.000 A 
ATOM      8  C   UNL     1     112.406 128.873 135.673  0.00  0.00    +0.000 A 
ATOM      9  C   UNL     1     113.523 128.073 136.182  0.00  0.00    +0.000 A 
ATOM     10  C   UNL     1     112.945 129.337 135.191  0.00  0.00    +0.000 A 
ATOM     11  C   UNL     1     114.077 128.526 135.708  0.00  0.00    +0.000 A 
ATOM     12  C   UNL     1     113.786 129.163 135.208  0.00  0.00    +0.000 A 
ENDROOT
BRANCH   5  15
ATOM     13  O   UNL     1     108.785 129.898 137.238  0.00  0.00    +0.000 OA
ATOM     14  O   UNL     1     107.845 129.293 136.024  0.00  0.00    +0.000 OA
ATOM     15  C   UNL     1     110.265 128.779 136.089  0.00  0.00    +0.000 A 
ATOM     16  C   UNL     1     109.929 129.253 136.674  0.00  0.00    +0.000 A 
ATOM     17  C   UNL     1     109.795 128.476 135.481  0.00  0.00    +0.000 A 
ATOM     18  C   UNL     1     109.122 129.424 136.652  0.00  0.00    +0.000 A 
ATOM     19  C   UNL     1     108.988 128.648 135.461  0.00  0.00    +0.000 A 
ATOM     20  C   UNL     1     108.652 129.122 136.046  0.00  0.00    +0.000 A 
ENDBRANCH   5  15
BRANCH   4  21
ATOM     21  O   UNL     1     110.823 127.557 137.047  0.00  0.00    +0.000 OA
BRANCH  21  27
ATOM     22  O   UNL     1     111.017 126.234 136.543  0.00  0.00    +0.000 OA
ATOM     23  O   UNL     1     110.987 126.993 138.589  0.00  0.00    +0.000 OA
ATOM     24  O   UNL     1     111.263 125.389 138.856  0.00  0.00    +0.000 OA
ATOM     25  O   UNL     1     111.375 124.348 137.581  0.00  0.00    +0.000 OA
ATOM     26  C   UNL     1     111.043 126.473 137.951  0.00  0.00    +0.000 C 
ATOM     27  C   UNL     1     110.961 126.755 137.180  0.00  0.00    +0.000 C 
ATOM     28  C   UNL     1     111.181 125.670 138.085  0.00  0.00    +0.000 C 
ATOM     29  C   UNL     1     111.237 125.150 137.447  0.00  0.00    +0.000 C 
ATOM     30  C   UNL     1     111.155 125.432 136.676  0.00  0.00    +0.000 C 
BRANCH  30  32
ATOM     31  O   UNL     1     110.692 124.982 135.401  0.00  0.00    +0.000 OA
ATOM     32  C   UNL     1     111.211 124.912 136.039  0.00  0.00    +0.000 C 
ENDBRANCH  30  32
ENDBRANCH  21  27
ENDBRANCH   4  21
TORSDOF 4
ENDMDL
MODEL 5
REMARK VINA RESULT:      -9.1      9.764     12.468
REMARK  Name = 44257073
REMARK  4 active torsions:
REMARK  status: ('A' for Active; 'I' for Inactive)
REMARK    1  A    between atoms: O_2  and  C_13
REMARK    2  A    between atoms: O_2  and  C_17
REMARK    3  A    between atoms: C_16  and  C_20
REMARK    4  A    between atoms: C_18  and  C_22
REMARK                            x       y       z     vdW  Elec       q    Type
REMARK                         _______ _______ _______ _____ _____    ______ ____
ROOT
ATOM      1  O   UNL     1     113.822 126.866 136.755  0.00  0.00    +0.000 OA
ATOM      2  O   UNL     1     112.132 124.534 136.517  0.00  0.00    +0.000 OA
ATOM      3  O   UNL     1     114.890 124.244 137.434  0.00  0.00    +0.000 OA
ATOM      4  C   UNL     1     112.471 127.003 136.306  0.00  0.00    +0.000 C 
ATOM      5  C   UNL     1     113.200 127.342 136.495  0.00  0.00    +0.000 C 
ATOM      6  C   UNL     1     112.366 126.188 136.378  0.00  0.00    +0.000 C 
ATOM      7  C   UNL     1     112.988 125.712 136.638  0.00  0.00    +0.000 A 
ATOM      8  C   UNL     1     113.715 126.051 136.826  0.00  0.00    +0.000 A 
ATOM      9  C   UNL     1     112.864 124.864 136.708  0.00  0.00    +0.000 A 
ATOM     10  C   UNL     1     114.371 125.567 137.098  0.00  0.00    +0.000 A 
ATOM     11  C   UNL     1     113.508 124.364 136.978  0.00  0.00    +0.000 A 
ATOM     12  C   UNL     1     114.267 124.717 137.174  0.00  0.00    +0.000 A 
ENDROOT
BRANCH   5  15
ATOM     13  O   UNL     1     113.271 129.943 137.678  0.00  0.00    +0.000 OA
ATOM     14  O   UNL     1     113.622 130.602 136.207  0.00  0.00    +0.000 OA
ATOM     15  C   UNL     1     113.305 128.157 136.424  0.00  0.00    +0.000 A 
ATOM     16  C   UNL     1     113.235 128.642 137.087  0.00  0.00    +0.000 A 
ATOM     17  C   UNL     1     113.481 128.487 135.688  0.00  0.00    +0.000 A 
ATOM     18  C   UNL     1     113.341 129.458 137.015  0.00  0.00    +0.000 A 
ATOM     19  C   UNL     1     113.587 129.302 135.616  0.00  0.00    +0.000 A 
ATOM     20  C   UNL     1     113.517 129.787 136.280  0.00  0.00    +0.000 A 
ENDBRANCH   5  15
BRANCH   4  21
ATOM     21  O   UNL     1     111.849 127.479 136.047  0.00  0.00    +0.000 OA
BRANCH  21  27
ATOM     22  O   UNL     1     110.876 127.274 137.073  0.00  0.00    +0.000 OA
ATOM     23  O   UNL     1     110.699 127.195 134.899  0.00  0.00    +0.000 OA
ATOM     24  O   UNL     1     109.150 126.848 135.350  0.00  0.00    +0.000 OA
ATOM     25  O   UNL     1     108.753 126.785 136.950  0.00  0.00    +0.000 OA
ATOM     26  C   UNL     1     110.501 127.163 135.699  0.00  0.00    +0.000 C 
ATOM     27  C   UNL     1     111.076 127.305 136.273  0.00  0.00    +0.000 C 
ATOM     28  C   UNL     1     109.726 126.990 135.924  0.00  0.00    +0.000 C 
ATOM     29  C   UNL     1     109.527 126.958 136.725  0.00  0.00    +0.000 C 
ATOM     30  C   UNL     1     110.102 127.100 137.299  0.00  0.00    +0.000 C 
BRANCH  30  32
ATOM     31  O   UNL     1     110.167 127.657 138.613  0.00  0.00    +0.000 OA
ATOM     32  C   UNL     1     109.903 127.069 138.098  0.00  0.00    +0.000 C 
ENDBRANCH  30  32
ENDBRANCH  21  27
ENDBRANCH   4  21
TORSDOF 4
ENDMDL
MODEL 6
REMARK VINA RESULT:      -9.0     10.479     12.013
REMARK  Name = 44257073
REMARK  4 active torsions:
REMARK  status: ('A' for Active; 'I' for Inactive)
REMARK    1  A    between atoms: O_2  and  C_13
REMARK    2  A    between atoms: O_2  and  C_17
REMARK    3  A    between atoms: C_16  and  C_20
REMARK    4  A    between atoms: C_18  and  C_22
REMARK                            x       y       z     vdW  Elec       q    Type
REMARK                         _______ _______ _______ _____ _____    ______ ____
ROOT
ATOM      1  O   UNL     1     111.539 125.447 136.519  0.00  0.00    +0.000 OA
ATOM      2  O   UNL     1     114.355 126.099 136.518  0.00  0.00    +0.000 OA
ATOM      3  O   UNL     1     113.492 123.376 137.132  0.00  0.00    +0.000 OA
ATOM      4  C   UNL     1     111.966 126.778 136.219  0.00  0.00    +0.000 C 
ATOM      5  C   UNL     1     111.359 126.227 136.319  0.00  0.00    +0.000 C 
ATOM      6  C   UNL     1     112.752 126.548 136.319  0.00  0.00    +0.000 C 
ATOM      7  C   UNL     1     112.932 125.768 136.519  0.00  0.00    +0.000 A 
ATOM      8  C   UNL     1     112.325 125.218 136.619  0.00  0.00    +0.000 A 
ATOM      9  C   UNL     1     113.754 125.541 136.620  0.00  0.00    +0.000 A 
ATOM     10  C   UNL     1     112.499 124.403 136.827  0.00  0.00    +0.000 A 
ATOM     11  C   UNL     1     113.947 124.731 136.828  0.00  0.00    +0.000 A 
ATOM     12  C   UNL     1     113.316 124.157 136.932  0.00  0.00    +0.000 A 
ENDROOT
BRANCH   5  15
ATOM     13  O   UNL     1     108.863 127.062 137.431  0.00  0.00    +0.000 OA
ATOM     14  O   UNL     1     108.216 127.148 135.915  0.00  0.00    +0.000 OA
ATOM     15  C   UNL     1     110.574 126.458 136.219  0.00  0.00    +0.000 A 
ATOM     16  C   UNL     1     110.111 126.645 136.876  0.00  0.00    +0.000 A 
ATOM     17  C   UNL     1     110.250 126.501 135.460  0.00  0.00    +0.000 A 
ATOM     18  C   UNL     1     109.325 126.875 136.774  0.00  0.00    +0.000 A 
ATOM     19  C   UNL     1     109.465 126.731 135.360  0.00  0.00    +0.000 A 
ATOM     20  C   UNL     1     109.002 126.918 136.017  0.00  0.00    +0.000 A 
ENDBRANCH   5  15
BRANCH   4  21
ATOM     21  O   UNL     1     111.787 127.558 136.019  0.00  0.00    +0.000 OA
BRANCH  21  27
ATOM     22  O   UNL     1     112.319 128.268 137.139  0.00  0.00    +0.000 OA
ATOM     23  O   UNL     1     112.536 128.613 134.995  0.00  0.00    +0.000 OA
ATOM     24  O   UNL     1     113.443 129.850 135.603  0.00  0.00    +0.000 OA
ATOM     25  O   UNL     1     113.600 130.032 137.234  0.00  0.00    +0.000 OA
ATOM     26  C   UNL     1     112.614 128.704 135.811  0.00  0.00    +0.000 C 
ATOM     27  C   UNL     1     112.240 128.176 136.323  0.00  0.00    +0.000 C 
ATOM     28  C   UNL     1     113.068 129.323 136.115  0.00  0.00    +0.000 C 
ATOM     29  C   UNL     1     113.147 129.413 136.931  0.00  0.00    +0.000 C 
ATOM     30  C   UNL     1     112.772 128.886 137.443  0.00  0.00    +0.000 C 
BRANCH  30  32
ATOM     31  O   UNL     1     112.199 128.867 138.752  0.00  0.00    +0.000 OA
ATOM     32  C   UNL     1     112.851 128.977 138.259  0.00  0.00    +0.000 C 
ENDBRANCH  30  32
ENDBRANCH  21  27
ENDBRANCH   4  21
TORSDOF 4
ENDMDL
MODEL 7
REMARK VINA RESULT:      -9.0      1.925      3.716
REMARK  Name = 44257073
REMARK  4 active torsions:
REMARK  status: ('A' for Active; 'I' for Inactive)
REMARK    1  A    between atoms: O_2  and  C_13
REMARK    2  A    between atoms: O_2  and  C_17
REMARK    3  A    between atoms: C_16  and  C_20
REMARK    4  A    between atoms: C_18  and  C_22
REMARK                            x       y       z     vdW  Elec       q    Type
REMARK                         _______ _______ _______ _____ _____    ______ ____
ROOT
ATOM      1  O   UNL     1     103.403 126.188 147.767  0.00  0.00    +0.000 OA
ATOM      2  O   UNL     1     105.416 127.527 149.351  0.00  0.00    +0.000 OA
ATOM      3  O   UNL     1     103.108 129.023 148.367  0.00  0.00    +0.000 OA
ATOM      4  C   UNL     1     104.535 125.460 148.251  0.00  0.00    +0.000 C 
ATOM      5  C   UNL     1     103.825 125.482 147.828  0.00  0.00    +0.000 C 
ATOM      6  C   UNL     1     104.820 126.145 148.611  0.00  0.00    +0.000 C 
ATOM      7  C   UNL     1     104.398 126.851 148.550  0.00  0.00    +0.000 A 
ATOM      8  C   UNL     1     103.690 126.872 148.128  0.00  0.00    +0.000 A 
ATOM      9  C   UNL     1     104.706 127.557 148.930  0.00  0.00    +0.000 A 
ATOM     10  C   UNL     1     103.240 127.601 148.057  0.00  0.00    +0.000 A 
ATOM     11  C   UNL     1     104.271 128.295 148.870  0.00  0.00    +0.000 A 
ATOM     12  C   UNL     1     103.533 128.318 148.430  0.00  0.00    +0.000 A 
ENDROOT
BRANCH   5  15
ATOM     13  O   UNL     1     103.568 123.825 145.514  0.00  0.00    +0.000 OA
ATOM     14  O   UNL     1     102.682 122.742 146.388  0.00  0.00    +0.000 OA
ATOM     15  C   UNL     1     103.540 124.797 147.468  0.00  0.00    +0.000 A 
ATOM     16  C   UNL     1     103.697 124.654 146.671  0.00  0.00    +0.000 A 
ATOM     17  C   UNL     1     103.097 124.255 147.905  0.00  0.00    +0.000 A 
ATOM     18  C   UNL     1     103.411 123.968 146.311  0.00  0.00    +0.000 A 
ATOM     19  C   UNL     1     102.811 123.571 147.545  0.00  0.00    +0.000 A 
ATOM     20  C   UNL     1     102.968 123.427 146.748  0.00  0.00    +0.000 A 
ENDBRANCH   5  15
BRANCH   4  21
ATOM     21  O   UNL     1     104.957 124.754 148.312  0.00  0.00    +0.000 OA
BRANCH  21  27
ATOM     22  O   UNL     1     106.190 125.069 147.662  0.00  0.00    +0.000 OA
ATOM     23  O   UNL     1     105.790 124.173 149.612  0.00  0.00    +0.000 OA
ATOM     24  O   UNL     1     107.440 124.196 149.612  0.00  0.00    +0.000 OA
ATOM     25  O   UNL     1     108.256 124.801 148.312  0.00  0.00    +0.000 OA
ATOM     26  C   UNL     1     106.198 124.475 148.962  0.00  0.00    +0.000 C 
ATOM     27  C   UNL     1     105.781 124.766 148.312  0.00  0.00    +0.000 C 
ATOM     28  C   UNL     1     107.024 124.487 148.962  0.00  0.00    +0.000 C 
ATOM     29  C   UNL     1     107.431 124.790 148.312  0.00  0.00    +0.000 C 
ATOM     30  C   UNL     1     107.015 125.080 147.662  0.00  0.00    +0.000 C 
BRANCH  30  32
ATOM     31  O   UNL     1     107.155 125.228 146.247  0.00  0.00    +0.000 OA
ATOM     32  C   UNL     1     107.423 125.382 147.012  0.00  0.00    +0.000 C 
ENDBRANCH  30  32
ENDBRANCH  21  27
ENDBRANCH   4  21
TORSDOF 4
ENDMDL
MODEL 8
REMARK VINA RESULT:      -9.0      9.121     11.875
REMARK  Name = 44257073
REMARK  4 active torsions:
REMARK  status: ('A' for Active; 'I' for Inactive)
REMARK    1  A    between atoms: O_2  and  C_13
REMARK    2  A    between atoms: O_2  and  C_17
REMARK    3  A    between atoms: C_16  and  C_20
REMARK    4  A    between atoms: C_18  and  C_22
REMARK                            x       y       z     vdW  Elec       q    Type
REMARK                         _______ _______ _______ _____ _____    ______ ____
ROOT
ATOM      1  O   UNL     1     113.414 127.289 136.762  0.00  0.00    +0.000 OA
ATOM      2  O   UNL     1     112.529 129.480 138.426  0.00  0.00    +0.000 OA
ATOM      3  O   UNL     1     113.652 130.022 135.785  0.00  0.00    +0.000 OA
ATOM      4  C   UNL     1     112.864 127.029 138.056  0.00  0.00    +0.000 C 
ATOM      5  C   UNL     1     113.193 126.754 137.350  0.00  0.00    +0.000 C 
ATOM      6  C   UNL     1     112.756 127.838 138.172  0.00  0.00    +0.000 C 
ATOM      7  C   UNL     1     112.977 128.373 137.584  0.00  0.00    +0.000 A 
ATOM      8  C   UNL     1     113.306 128.098 136.879  0.00  0.00    +0.000 A 
ATOM      9  C   UNL     1     112.859 129.214 137.718  0.00  0.00    +0.000 A 
ATOM     10  C   UNL     1     113.540 128.644 136.259  0.00  0.00    +0.000 A 
ATOM     11  C   UNL     1     113.087 129.775 137.109  0.00  0.00    +0.000 A 
ATOM     12  C   UNL     1     113.430 129.489 136.374  0.00  0.00    +0.000 A 
ENDROOT
BRANCH   5  15
ATOM     13  O   UNL     1     114.873 124.443 137.430  0.00  0.00    +0.000 OA
ATOM     14  O   UNL     1     113.623 123.515 136.885  0.00  0.00    +0.000 OA
ATOM     15  C   UNL     1     113.301 125.944 137.234  0.00  0.00    +0.000 A 
ATOM     16  C   UNL     1     114.034 125.599 137.391  0.00  0.00    +0.000 A 
ATOM     17  C   UNL     1     112.675 125.480 136.961  0.00  0.00    +0.000 A 
ATOM     18  C   UNL     1     114.141 124.789 137.274  0.00  0.00    +0.000 A 
ATOM     19  C   UNL     1     112.783 124.671 136.845  0.00  0.00    +0.000 A 
ATOM     20  C   UNL     1     113.516 124.325 137.001  0.00  0.00    +0.000 A 
ENDBRANCH   5  15
BRANCH   4  21
ATOM     21  O   UNL     1     112.643 126.494 138.644  0.00  0.00    +0.000 OA
BRANCH  21  27
ATOM     22  O   UNL     1     113.458 126.921 139.737  0.00  0.00    +0.000 OA
ATOM     23  O   UNL     1     111.326 126.463 139.638  0.00  0.00    +0.000 OA
ATOM     24  O   UNL     1     111.483 126.874 141.228  0.00  0.00    +0.000 OA
ATOM     25  O   UNL     1     112.956 127.317 141.823  0.00  0.00    +0.000 OA
ATOM     26  C   UNL     1     112.063 126.684 139.935  0.00  0.00    +0.000 C 
ATOM     27  C   UNL     1     112.721 126.700 139.438  0.00  0.00    +0.000 C 
ATOM     28  C   UNL     1     112.141 126.890 140.731  0.00  0.00    +0.000 C 
ATOM     29  C   UNL     1     112.878 127.111 141.028  0.00  0.00    +0.000 C 
ATOM     30  C   UNL     1     113.537 127.127 140.531  0.00  0.00    +0.000 C 
BRANCH  30  32
ATOM     31  O   UNL     1     114.934 126.874 140.691  0.00  0.00    +0.000 OA
ATOM     32  C   UNL     1     114.273 127.348 140.829  0.00  0.00    +0.000 C 
ENDBRANCH  30  32
ENDBRANCH  21  27
ENDBRANCH   4  21
TORSDOF 4
ENDMDL
MODEL 9
REMARK VINA RESULT:      -8.9     10.645     11.747
REMARK  Name = 44257073
REMARK  4 active torsions:
REMARK  status: ('A' for Active; 'I' for Inactive)
REMARK    1  A    between atoms: O_2  and  C_13
REMARK    2  A    between atoms: O_2  and  C_17
REMARK    3  A    between atoms: C_16  and  C_20
REMARK    4  A    between atoms: C_18  and  C_22
REMARK                            x       y       z     vdW  Elec       q    Type
REMARK                         _______ _______ _______ _____ _____    ______ ____
ROOT
ATOM      1  O   UNL     1     113.199 126.098 138.873  0.00  0.00    +0.000 OA
ATOM      2  O   UNL     1     113.185 128.970 139.197  0.00  0.00    +0.000 OA
ATOM      3  O   UNL     1     114.385 127.280 141.255  0.00  0.00    +0.000 OA
ATOM      4  C   UNL     1     112.612 126.929 137.869  0.00  0.00    +0.000 C 
ATOM      5  C   UNL     1     112.810 126.178 138.150  0.00  0.00    +0.000 C 
ATOM      6  C   UNL     1     112.804 127.598 138.311  0.00  0.00    +0.000 C 
ATOM      7  C   UNL     1     113.192 127.518 139.035  0.00  0.00    +0.000 A 
ATOM      8  C   UNL     1     113.390 126.768 139.315  0.00  0.00    +0.000 A 
ATOM      9  C   UNL     1     113.386 128.223 139.486  0.00  0.00    +0.000 A 
ATOM     10  C   UNL     1     113.794 126.670 140.066  0.00  0.00    +0.000 A 
ATOM     11  C   UNL     1     113.791 128.145 140.240  0.00  0.00    +0.000 A 
ATOM     12  C   UNL     1     113.997 127.364 140.532  0.00  0.00    +0.000 A 
ENDROOT
BRANCH   5  15
ATOM     13  O   UNL     1     113.562 124.138 136.296  0.00  0.00    +0.000 OA
ATOM     14  O   UNL     1     112.041 123.501 136.379  0.00  0.00    +0.000 OA
ATOM     15  C   UNL     1     112.618 125.509 137.707  0.00  0.00    +0.000 A 
ATOM     16  C   UNL     1     113.186 125.158 137.223  0.00  0.00    +0.000 A 
ATOM     17  C   UNL     1     111.858 125.191 137.749  0.00  0.00    +0.000 A 
ATOM     18  C   UNL     1     112.994 124.489 136.780  0.00  0.00    +0.000 A 
ATOM     19  C   UNL     1     111.666 124.522 137.306  0.00  0.00    +0.000 A 
ATOM     20  C   UNL     1     112.234 124.171 136.822  0.00  0.00    +0.000 A 
ENDBRANCH   5  15
BRANCH   4  21
ATOM     21  O   UNL     1     112.223 127.010 137.145  0.00  0.00    +0.000 OA
BRANCH  21  27
ATOM     22  O   UNL     1     113.160 127.803 136.414  0.00  0.00    +0.000 OA
ATOM     23  O   UNL     1     111.001 128.009 136.665  0.00  0.00    +0.000 OA
ATOM     24  O   UNL     1     111.326 129.302 135.694  0.00  0.00    +0.000 OA
ATOM     25  O   UNL     1     112.873 129.596 135.203  0.00  0.00    +0.000 OA
ATOM     26  C   UNL     1     111.775 128.155 136.420  0.00  0.00    +0.000 C 
ATOM     27  C   UNL     1     112.386 127.656 136.660  0.00  0.00    +0.000 C 
ATOM     28  C   UNL     1     111.938 128.803 135.934  0.00  0.00    +0.000 C 
ATOM     29  C   UNL     1     112.711 128.949 135.688  0.00  0.00    +0.000 C 
ATOM     30  C   UNL     1     113.322 128.450 135.928  0.00  0.00    +0.000 C 
BRANCH  30  32
ATOM     31  O   UNL     1     114.581 127.972 135.448  0.00  0.00    +0.000 OA
ATOM     32  C   UNL     1     114.095 128.597 135.683  0.00  0.00    +0.000 C 
ENDBRANCH  30  32
ENDBRANCH  21  27
ENDBRANCH   4  21
TORSDOF 4
ENDMDL
MODEL 10
REMARK VINA RESULT:      -8.9      9.758     12.197
REMARK  Name = 44257073
REMARK  4 active torsions:
REMARK  status: ('A' for Active; 'I' for Inactive)
REMARK    1  A    between atoms: O_2  and  C_13
REMARK    2  A    between atoms: O_2  and  C_17
REMARK    3  A    between atoms: C_16  and  C_20
REMARK    4  A    between atoms: C_18  and  C_22
REMARK                            x       y       z     vdW  Elec       q    Type
REMARK                         _______ _______ _______ _____ _____    ______ ____
ROOT
ATOM      1  O   UNL     1     113.063 128.392 138.266  0.00  0.00    +0.000 OA
ATOM      2  O   UNL     1     112.316 126.122 139.890  0.00  0.00    +0.000 OA
ATOM      3  O   UNL     1     113.223 128.587 141.168  0.00  0.00    +0.000 OA
ATOM      4  C   UNL     1     112.619 127.183 137.646  0.00  0.00    +0.000 C 
ATOM      5  C   UNL     1     112.890 127.961 137.585  0.00  0.00    +0.000 C 
ATOM      6  C   UNL     1     112.521 126.839 138.389  0.00  0.00    +0.000 C 
ATOM      7  C   UNL     1     112.694 127.270 139.071  0.00  0.00    +0.000 A 
ATOM      8  C   UNL     1     112.965 128.046 139.009  0.00  0.00    +0.000 A 
ATOM      9  C   UNL     1     112.588 126.899 139.839  0.00  0.00    +0.000 A 
ATOM     10  C   UNL     1     113.149 128.507 139.711  0.00  0.00    +0.000 A 
ATOM     11  C   UNL     1     112.767 127.344 140.552  0.00  0.00    +0.000 A 
ATOM     12  C   UNL     1     113.049 128.153 140.488  0.00  0.00    +0.000 A 
ENDROOT
BRANCH   5  15
ATOM     13  O   UNL     1     114.569 128.656 135.379  0.00  0.00    +0.000 OA
ATOM     14  O   UNL     1     113.278 129.340 134.612  0.00  0.00    +0.000 OA
ATOM     15  C   UNL     1     112.987 128.305 136.842  0.00  0.00    +0.000 A 
ATOM     16  C   UNL     1     113.730 128.308 136.482  0.00  0.00    +0.000 A 
ATOM     17  C   UNL     1     112.341 128.648 136.458  0.00  0.00    +0.000 A 
ATOM     18  C   UNL     1     113.826 128.653 135.739  0.00  0.00    +0.000 A 
ATOM     19  C   UNL     1     112.439 128.992 135.715  0.00  0.00    +0.000 A 
ATOM     20  C   UNL     1     113.182 128.995 135.355  0.00  0.00    +0.000 A 
ENDBRANCH   5  15
BRANCH   4  21
ATOM     21  O   UNL     1     112.445 126.752 136.965  0.00  0.00    +0.000 OA
BRANCH  21  27
ATOM     22  O   UNL     1     113.357 125.658 137.093  0.00  0.00    +0.000 OA
ATOM     23  O   UNL     1     111.228 125.696 136.611  0.00  0.00    +0.000 OA
ATOM     24  O   UNL     1     111.531 124.074 136.563  0.00  0.00    +0.000 OA
ATOM     25  O   UNL     1     113.050 123.510 136.867  0.00  0.00    +0.000 OA
ATOM     26  C   UNL     1     111.988 125.414 136.764  0.00  0.00    +0.000 C 
ATOM     27  C   UNL     1     112.597 125.942 136.940  0.00  0.00    +0.000 C 
ATOM     28  C   UNL     1     112.139 124.602 136.739  0.00  0.00    +0.000 C 
ATOM     29  C   UNL     1     112.899 124.320 136.892  0.00  0.00    +0.000 C 
ATOM     30  C   UNL     1     113.508 124.849 137.068  0.00  0.00    +0.000 C 
BRANCH  30  32
ATOM     31  O   UNL     1     114.925 124.967 136.924  0.00  0.00    +0.000 OA
ATOM     32  C   UNL     1     114.267 124.566 137.221  0.00  0.00    +0.000 C 
ENDBRANCH  30  32
ENDBRANCH  21  27
ENDBRANCH   4  21
TORSDOF 4
ENDMDL
