MODEL 1
REMARK VINA RESULT:     -10.2      0.000      0.000
REMARK  Name = 44258740
REMARK  7 active torsions:
REMARK  status: ('A' for Active; 'I' for Inactive)
REMARK    1  A    between atoms: O_3  and  C_22
REMARK    2  A    between atoms: O_3  and  C_27
REMARK    3  A    between atoms: O_6  and  C_26
REMARK    4  A    between atoms: O_6  and  C_29
REMARK    5  A    between atoms: C_17  and  C_27
REMARK    6  A    between atoms: C_25  and  C_28
REMARK    7  A    between atoms: C_30  and  C_34
REMARK                            x       y       z     vdW  Elec       q    Type
REMARK                         _______ _______ _______ _____ _____    ______ ____
ROOT
ATOM      1  O   UNL     1     112.321 127.618 137.931  0.00  0.00    +0.000 OA
ATOM      2  O   UNL     1     112.342 129.318 139.299  0.00  0.00    +0.000 OA
ATOM      3  O   UNL     1     113.441 129.811 138.171  0.00  0.00    +0.000 OA
ATOM      4  O   UNL     1     113.793 128.842 136.883  0.00  0.00    +0.000 OA
ATOM      5  C   UNL     1     112.145 128.103 138.575  0.00  0.00    +0.000 C 
ATOM      6  C   UNL     1     112.518 128.833 138.655  0.00  0.00    +0.000 C 
ATOM      7  C   UNL     1     113.068 129.081 138.091  0.00  0.00    +0.000 C 
ATOM      8  C   UNL     1     113.244 128.596 137.447  0.00  0.00    +0.000 C 
ATOM      9  C   UNL     1     112.870 127.864 137.367  0.00  0.00    +0.000 C 
ENDROOT
BRANCH   9  10
ATOM     10  O   UNL     1     113.046 127.380 136.723  0.00  0.00    +0.000 OA
BRANCH  10  15
ATOM     11  O   UNL     1     111.925 125.666 135.965  0.00  0.00    +0.000 OA
ATOM     12  O   UNL     1     111.710 128.128 136.106  0.00  0.00    +0.000 OA
ATOM     13  O   UNL     1     110.433 128.084 135.439  0.00  0.00    +0.000 OA
ATOM     14  O   UNL     1     109.352 125.499 134.612  0.00  0.00    +0.000 OA
ATOM     15  C   UNL     1     112.450 126.934 136.368  0.00  0.00    +0.000 A 
ATOM     16  C   UNL     1     112.522 126.113 136.321  0.00  0.00    +0.000 A 
ATOM     17  C   UNL     1     111.782 127.307 136.059  0.00  0.00    +0.000 A 
ATOM     18  C   UNL     1     111.186 126.862 135.704  0.00  0.00    +0.000 A 
ATOM     19  C   UNL     1     111.258 126.041 135.657  0.00  0.00    +0.000 A 
ATOM     20  C   UNL     1     110.496 127.263 135.387  0.00  0.00    +0.000 A 
ATOM     21  C   UNL     1     110.644 125.565 135.290  0.00  0.00    +0.000 A 
ATOM     22  C   UNL     1     109.872 126.803 135.016  0.00  0.00    +0.000 A 
ATOM     23  C   UNL     1     109.946 125.949 134.967  0.00  0.00    +0.000 A 
BRANCH  16  25
ATOM     24  O   UNL     1     115.190 124.613 137.555  0.00  0.00    +0.000 OA
ATOM     25  C   UNL     1     113.189 125.739 136.629  0.00  0.00    +0.000 A 
ATOM     26  C   UNL     1     113.127 125.287 137.317  0.00  0.00    +0.000 A 
ATOM     27  C   UNL     1     113.917 125.815 136.249  0.00  0.00    +0.000 A 
ATOM     28  C   UNL     1     113.794 124.912 137.625  0.00  0.00    +0.000 A 
ATOM     29  C   UNL     1     114.584 125.440 136.558  0.00  0.00    +0.000 A 
ATOM     30  C   UNL     1     114.523 124.989 137.246  0.00  0.00    +0.000 A 
ENDBRANCH  16  25
ENDBRANCH  10  15
ENDBRANCH   9  10
BRANCH   5  31
ATOM     31  C   UNL     1     111.595 127.856 139.139  0.00  0.00    +0.000 C 
BRANCH  31  32
ATOM     32  O   UNL     1     111.670 127.112 139.489  0.00  0.00    +0.000 OA
BRANCH  32  38
ATOM     33  O   UNL     1     110.335 126.628 139.329  0.00  0.00    +0.000 OA
ATOM     34  O   UNL     1     111.683 126.562 141.044  0.00  0.00    +0.000 OA
ATOM     35  O   UNL     1     110.355 125.803 141.662  0.00  0.00    +0.000 OA
ATOM     36  O   UNL     1     109.013 125.594 140.725  0.00  0.00    +0.000 OA
ATOM     37  C   UNL     1     111.013 126.458 140.576  0.00  0.00    +0.000 C 
ATOM     38  C   UNL     1     111.006 126.733 139.798  0.00  0.00    +0.000 C 
ATOM     39  C   UNL     1     110.348 126.078 140.885  0.00  0.00    +0.000 C 
ATOM     40  C   UNL     1     109.678 125.974 140.416  0.00  0.00    +0.000 C 
ATOM     41  C   UNL     1     109.671 126.249 139.639  0.00  0.00    +0.000 C 
BRANCH  41  43
ATOM     42  O   UNL     1     108.967 126.478 138.415  0.00  0.00    +0.000 OA
ATOM     43  C   UNL     1     109.000 126.144 139.169  0.00  0.00    +0.000 C 
ENDBRANCH  41  43
ENDBRANCH  32  38
ENDBRANCH  31  32
ENDBRANCH   5  31
TORSDOF 7
ENDMDL
MODEL 2
REMARK VINA RESULT:      -9.9      1.214      3.383
REMARK  Name = 44258740
REMARK  7 active torsions:
REMARK  status: ('A' for Active; 'I' for Inactive)
REMARK    1  A    between atoms: O_3  and  C_22
REMARK    2  A    between atoms: O_3  and  C_27
REMARK    3  A    between atoms: O_6  and  C_26
REMARK    4  A    between atoms: O_6  and  C_29
REMARK    5  A    between atoms: C_17  and  C_27
REMARK    6  A    between atoms: C_25  and  C_28
REMARK    7  A    between atoms: C_30  and  C_34
REMARK                            x       y       z     vdW  Elec       q    Type
REMARK                         _______ _______ _______ _____ _____    ______ ____
ROOT
ATOM      1  O   UNL     1     110.768 126.917 137.067  0.00  0.00    +0.000 OA
ATOM      2  O   UNL     1     108.609 126.644 137.229  0.00  0.00    +0.000 OA
ATOM      3  O   UNL     1     108.776 126.850 135.600  0.00  0.00    +0.000 OA
ATOM      4  O   UNL     1     110.271 127.101 134.950  0.00  0.00    +0.000 OA
ATOM      5  C   UNL     1     110.020 126.792 137.392  0.00  0.00    +0.000 C 
ATOM      6  C   UNL     1     109.356 126.770 136.903  0.00  0.00    +0.000 C 
ATOM      7  C   UNL     1     109.439 126.873 136.089  0.00  0.00    +0.000 C 
ATOM      8  C   UNL     1     110.187 126.998 135.764  0.00  0.00    +0.000 C 
ATOM      9  C   UNL     1     110.852 127.020 136.253  0.00  0.00    +0.000 C 
ENDROOT
BRANCH   9  10
ATOM     10  O   UNL     1     111.600 127.146 135.927  0.00  0.00    +0.000 OA
BRANCH  10  15
ATOM     11  O   UNL     1     113.560 126.784 136.817  0.00  0.00    +0.000 OA
ATOM     12  O   UNL     1     111.612 125.497 135.996  0.00  0.00    +0.000 OA
ATOM     13  O   UNL     1     112.256 124.251 136.332  0.00  0.00    +0.000 OA
ATOM     14  O   UNL     1     114.923 124.310 137.522  0.00  0.00    +0.000 OA
ATOM     15  C   UNL     1     112.254 126.751 136.235  0.00  0.00    +0.000 A 
ATOM     16  C   UNL     1     112.904 127.180 136.509  0.00  0.00    +0.000 A 
ATOM     17  C   UNL     1     112.261 125.926 136.270  0.00  0.00    +0.000 A 
ATOM     18  C   UNL     1     112.916 125.531 136.578  0.00  0.00    +0.000 A 
ATOM     19  C   UNL     1     113.565 125.960 136.851  0.00  0.00    +0.000 A 
ATOM     20  C   UNL     1     112.910 124.672 136.608  0.00  0.00    +0.000 A 
ATOM     21  C   UNL     1     114.254 125.560 137.175  0.00  0.00    +0.000 A 
ATOM     22  C   UNL     1     113.590 124.255 136.928  0.00  0.00    +0.000 A 
ATOM     23  C   UNL     1     114.266 124.702 137.213  0.00  0.00    +0.000 A 
BRANCH  16  25
ATOM     24  O   UNL     1     112.882 130.477 136.369  0.00  0.00    +0.000 OA
ATOM     25  C   UNL     1     112.898 128.004 136.475  0.00  0.00    +0.000 A 
ATOM     26  C   UNL     1     112.986 128.387 135.748  0.00  0.00    +0.000 A 
ATOM     27  C   UNL     1     112.806 128.445 137.165  0.00  0.00    +0.000 A 
ATOM     28  C   UNL     1     112.980 129.211 135.714  0.00  0.00    +0.000 A 
ATOM     29  C   UNL     1     112.800 129.270 137.130  0.00  0.00    +0.000 A 
ATOM     30  C   UNL     1     112.888 129.652 136.405  0.00  0.00    +0.000 A 
ENDBRANCH  16  25
ENDBRANCH  10  15
ENDBRANCH   9  10
BRANCH   5  31
ATOM     31  C   UNL     1     109.937 126.689 138.207  0.00  0.00    +0.000 C 
BRANCH  31  32
ATOM     32  O   UNL     1     110.551 126.904 138.714  0.00  0.00    +0.000 OA
BRANCH  32  38
ATOM     33  O   UNL     1     109.800 127.386 139.830  0.00  0.00    +0.000 OA
ATOM     34  O   UNL     1     111.538 126.068 139.739  0.00  0.00    +0.000 OA
ATOM     35  O   UNL     1     111.280 126.132 141.367  0.00  0.00    +0.000 OA
ATOM     36  O   UNL     1     110.035 127.032 141.971  0.00  0.00    +0.000 OA
ATOM     37  C   UNL     1     110.916 126.518 140.040  0.00  0.00    +0.000 C 
ATOM     38  C   UNL     1     110.423 126.936 139.528  0.00  0.00    +0.000 C 
ATOM     39  C   UNL     1     110.786 126.550 140.855  0.00  0.00    +0.000 C 
ATOM     40  C   UNL     1     110.165 126.999 141.156  0.00  0.00    +0.000 C 
ATOM     41  C   UNL     1     109.672 127.417 140.644  0.00  0.00    +0.000 C 
BRANCH  41  43
ATOM     42  O   UNL     1     108.739 128.492 140.504  0.00  0.00    +0.000 OA
ATOM     43  C   UNL     1     109.049 127.868 140.946  0.00  0.00    +0.000 C 
ENDBRANCH  41  43
ENDBRANCH  32  38
ENDBRANCH  31  32
ENDBRANCH   5  31
TORSDOF 7
ENDMDL
MODEL 3
REMARK VINA RESULT:      -9.9      1.413      4.408
REMARK  Name = 44258740
REMARK  7 active torsions:
REMARK  status: ('A' for Active; 'I' for Inactive)
REMARK    1  A    between atoms: O_3  and  C_22
REMARK    2  A    between atoms: O_3  and  C_27
REMARK    3  A    between atoms: O_6  and  C_26
REMARK    4  A    between atoms: O_6  and  C_29
REMARK    5  A    between atoms: C_17  and  C_27
REMARK    6  A    between atoms: C_25  and  C_28
REMARK    7  A    between atoms: C_30  and  C_34
REMARK                            x       y       z     vdW  Elec       q    Type
REMARK                         _______ _______ _______ _____ _____    ______ ____
ROOT
ATOM      1  O   UNL     1     111.680 126.597 136.633  0.00  0.00    +0.000 OA
ATOM      2  O   UNL     1     110.156 127.018 135.129  0.00  0.00    +0.000 OA
ATOM      3  O   UNL     1     110.151 125.368 135.126  0.00  0.00    +0.000 OA
ATOM      4  O   UNL     1     111.165 124.538 136.128  0.00  0.00    +0.000 OA
ATOM      5  C   UNL     1     111.172 127.012 136.132  0.00  0.00    +0.000 C 
ATOM      6  C   UNL     1     110.663 126.603 135.630  0.00  0.00    +0.000 C 
ATOM      7  C   UNL     1     110.660 125.777 135.628  0.00  0.00    +0.000 C 
ATOM      8  C   UNL     1     111.167 125.362 136.129  0.00  0.00    +0.000 C 
ATOM      9  C   UNL     1     111.678 125.773 136.632  0.00  0.00    +0.000 C 
ENDROOT
BRANCH   9  10
ATOM     10  O   UNL     1     112.185 125.358 137.133  0.00  0.00    +0.000 OA
BRANCH  10  15
ATOM     11  O   UNL     1     113.448 126.150 138.728  0.00  0.00    +0.000 OA
ATOM     12  O   UNL     1     111.049 125.761 138.259  0.00  0.00    +0.000 OA
ATOM     13  O   UNL     1     110.681 126.295 139.548  0.00  0.00    +0.000 OA
ATOM     14  O   UNL     1     112.781 127.239 141.345  0.00  0.00    +0.000 OA
ATOM     15  C   UNL     1     112.416 125.689 137.852  0.00  0.00    +0.000 A 
ATOM     16  C   UNL     1     113.216 125.818 138.008  0.00  0.00    +0.000 A 
ATOM     17  C   UNL     1     111.848 125.891 138.415  0.00  0.00    +0.000 A 
ATOM     18  C   UNL     1     112.079 126.222 139.134  0.00  0.00    +0.000 A 
ATOM     19  C   UNL     1     112.879 126.351 139.290  0.00  0.00    +0.000 A 
ATOM     20  C   UNL     1     111.478 126.428 139.713  0.00  0.00    +0.000 A 
ATOM     21  C   UNL     1     113.133 126.696 140.036  0.00  0.00    +0.000 A 
ATOM     22  C   UNL     1     111.713 126.773 140.463  0.00  0.00    +0.000 A 
ATOM     23  C   UNL     1     112.546 126.908 140.626  0.00  0.00    +0.000 A 
BRANCH  16  25
ATOM     24  O   UNL     1     115.491 125.014 135.757  0.00  0.00    +0.000 OA
ATOM     25  C   UNL     1     113.784 125.616 137.445  0.00  0.00    +0.000 A 
ATOM     26  C   UNL     1     114.134 126.205 136.984  0.00  0.00    +0.000 A 
ATOM     27  C   UNL     1     114.003 124.828 137.344  0.00  0.00    +0.000 A 
ATOM     28  C   UNL     1     114.703 126.003 136.421  0.00  0.00    +0.000 A 
ATOM     29  C   UNL     1     114.572 124.627 136.781  0.00  0.00    +0.000 A 
ATOM     30  C   UNL     1     114.922 125.214 136.320  0.00  0.00    +0.000 A 
ENDBRANCH  16  25
ENDBRANCH  10  15
ENDBRANCH   9  10
BRANCH   5  31
ATOM     31  C   UNL     1     111.175 127.838 136.135  0.00  0.00    +0.000 C 
BRANCH  31  32
ATOM     32  O   UNL     1     111.889 128.247 136.075  0.00  0.00    +0.000 OA
BRANCH  32  38
ATOM     33  O   UNL     1     111.480 129.220 137.039  0.00  0.00    +0.000 OA
ATOM     34  O   UNL     1     112.998 129.310 135.473  0.00  0.00    +0.000 OA
ATOM     35  O   UNL     1     113.144 130.814 136.136  0.00  0.00    +0.000 OA
ATOM     36  O   UNL     1     112.181 131.255 137.401  0.00  0.00    +0.000 OA
ATOM     37  C   UNL     1     112.517 129.531 136.105  0.00  0.00    +0.000 C 
ATOM     38  C   UNL     1     111.962 128.999 136.406  0.00  0.00    +0.000 C 
ATOM     39  C   UNL     1     112.590 130.282 136.437  0.00  0.00    +0.000 C 
ATOM     40  C   UNL     1     112.109 130.503 137.069  0.00  0.00    +0.000 C 
ATOM     41  C   UNL     1     111.554 129.971 137.370  0.00  0.00    +0.000 C 
BRANCH  41  43
ATOM     42  O   UNL     1     111.000 129.697 138.659  0.00  0.00    +0.000 OA
ATOM     43  C   UNL     1     111.072 130.192 138.003  0.00  0.00    +0.000 C 
ENDBRANCH  41  43
ENDBRANCH  32  38
ENDBRANCH  31  32
ENDBRANCH   5  31
TORSDOF 7
ENDMDL
MODEL 4
REMARK VINA RESULT:      -9.9      1.493      3.457
REMARK  Name = 44258740
REMARK  7 active torsions:
REMARK  status: ('A' for Active; 'I' for Inactive)
REMARK    1  A    between atoms: O_3  and  C_22
REMARK    2  A    between atoms: O_3  and  C_27
REMARK    3  A    between atoms: O_6  and  C_26
REMARK    4  A    between atoms: O_6  and  C_29
REMARK    5  A    between atoms: C_17  and  C_27
REMARK    6  A    between atoms: C_25  and  C_28
REMARK    7  A    between atoms: C_30  and  C_34
REMARK                            x       y       z     vdW  Elec       q    Type
REMARK                         _______ _______ _______ _____ _____    ______ ____
ROOT
ATOM      1  O   UNL     1     112.045 127.032 138.855  0.00  0.00    +0.000 OA
ATOM      2  O   UNL     1     111.251 127.122 140.885  0.00  0.00    +0.000 OA
ATOM      3  O   UNL     1     110.518 125.755 140.323  0.00  0.00    +0.000 OA
ATOM      4  O   UNL     1     110.803 125.240 138.782  0.00  0.00    +0.000 OA
ATOM      5  C   UNL     1     111.903 127.290 139.625  0.00  0.00    +0.000 C 
ATOM      6  C   UNL     1     111.394 126.865 140.114  0.00  0.00    +0.000 C 
ATOM      7  C   UNL     1     111.027 126.181 139.834  0.00  0.00    +0.000 C 
ATOM      8  C   UNL     1     111.169 125.923 139.063  0.00  0.00    +0.000 C 
ATOM      9  C   UNL     1     111.679 126.349 138.573  0.00  0.00    +0.000 C 
ENDROOT
BRANCH   9  10
ATOM     10  O   UNL     1     111.822 126.091 137.803  0.00  0.00    +0.000 OA
BRANCH  10  15
ATOM     11  O   UNL     1     112.853 127.137 136.188  0.00  0.00    +0.000 OA
ATOM     12  O   UNL     1     110.738 127.288 137.464  0.00  0.00    +0.000 OA
ATOM     13  O   UNL     1     110.331 128.447 136.709  0.00  0.00    +0.000 OA
ATOM     14  O   UNL     1     112.097 129.473 134.621  0.00  0.00    +0.000 OA
ATOM     15  C   UNL     1     111.985 126.639 137.208  0.00  0.00    +0.000 A 
ATOM     16  C   UNL     1     112.690 126.589 136.783  0.00  0.00    +0.000 A 
ATOM     17  C   UNL     1     111.443 127.238 137.039  0.00  0.00    +0.000 A 
ATOM     18  C   UNL     1     111.606 127.786 136.445  0.00  0.00    +0.000 A 
ATOM     19  C   UNL     1     112.311 127.735 136.019  0.00  0.00    +0.000 A 
ATOM     20  C   UNL     1     111.033 128.405 136.278  0.00  0.00    +0.000 A 
ATOM     21  C   UNL     1     112.492 128.301 135.397  0.00  0.00    +0.000 A 
ATOM     22  C   UNL     1     111.197 128.978 135.660  0.00  0.00    +0.000 A 
ATOM     23  C   UNL     1     111.931 128.926 135.217  0.00  0.00    +0.000 A 
BRANCH  16  25
ATOM     24  O   UNL     1     114.858 124.194 137.456  0.00  0.00    +0.000 OA
ATOM     25  C   UNL     1     113.232 125.991 136.951  0.00  0.00    +0.000 A 
ATOM     26  C   UNL     1     113.082 125.217 136.704  0.00  0.00    +0.000 A 
ATOM     27  C   UNL     1     113.923 126.165 137.367  0.00  0.00    +0.000 A 
ATOM     28  C   UNL     1     113.625 124.619 136.873  0.00  0.00    +0.000 A 
ATOM     29  C   UNL     1     114.465 125.565 137.535  0.00  0.00    +0.000 A 
ATOM     30  C   UNL     1     114.316 124.793 137.288  0.00  0.00    +0.000 A 
ENDBRANCH  16  25
ENDBRANCH  10  15
ENDBRANCH   9  10
BRANCH   5  31
ATOM     31  C   UNL     1     112.270 127.974 139.906  0.00  0.00    +0.000 C 
BRANCH  31  32
ATOM     32  O   UNL     1     113.090 128.052 139.856  0.00  0.00    +0.000 OA
BRANCH  32  38
ATOM     33  O   UNL     1     113.174 129.332 139.227  0.00  0.00    +0.000 OA
ATOM     34  O   UNL     1     114.286 128.487 140.905  0.00  0.00    +0.000 OA
ATOM     35  O   UNL     1     114.969 129.986 140.801  0.00  0.00    +0.000 OA
ATOM     36  O   UNL     1     114.455 131.049 139.648  0.00  0.00    +0.000 OA
ATOM     37  C   UNL     1     114.030 129.018 140.329  0.00  0.00    +0.000 C 
ATOM     38  C   UNL     1     113.431 128.801 139.804  0.00  0.00    +0.000 C 
ATOM     39  C   UNL     1     114.370 129.768 140.276  0.00  0.00    +0.000 C 
ATOM     40  C   UNL     1     114.114 130.299 139.701  0.00  0.00    +0.000 C 
ATOM     41  C   UNL     1     113.515 130.081 139.176  0.00  0.00    +0.000 C 
BRANCH  41  43
ATOM     42  O   UNL     1     112.452 130.767 138.510  0.00  0.00    +0.000 OA
ATOM     43  C   UNL     1     113.258 130.613 138.599  0.00  0.00    +0.000 C 
ENDBRANCH  41  43
ENDBRANCH  32  38
ENDBRANCH  31  32
ENDBRANCH   5  31
TORSDOF 7
ENDMDL
MODEL 5
REMARK VINA RESULT:      -9.8      2.461      4.733
REMARK  Name = 44258740
REMARK  7 active torsions:
REMARK  status: ('A' for Active; 'I' for Inactive)
REMARK    1  A    between atoms: O_3  and  C_22
REMARK    2  A    between atoms: O_3  and  C_27
REMARK    3  A    between atoms: O_6  and  C_26
REMARK    4  A    between atoms: O_6  and  C_29
REMARK    5  A    between atoms: C_17  and  C_27
REMARK    6  A    between atoms: C_25  and  C_28
REMARK    7  A    between atoms: C_30  and  C_34
REMARK                            x       y       z     vdW  Elec       q    Type
REMARK                         _______ _______ _______ _____ _____    ______ ____
ROOT
ATOM      1  O   UNL     1     110.401 128.384 137.452  0.00  0.00    +0.000 OA
ATOM      2  O   UNL     1     109.191 128.866 139.203  0.00  0.00    +0.000 OA
ATOM      3  O   UNL     1     109.896 127.455 139.690  0.00  0.00    +0.000 OA
ATOM      4  O   UNL     1     110.938 126.664 138.684  0.00  0.00    +0.000 OA
ATOM      5  C   UNL     1     109.880 128.780 137.955  0.00  0.00    +0.000 C 
ATOM      6  C   UNL     1     109.712 128.470 138.701  0.00  0.00    +0.000 C 
ATOM      7  C   UNL     1     110.064 127.765 138.944  0.00  0.00    +0.000 C 
ATOM      8  C   UNL     1     110.585 127.369 138.442  0.00  0.00    +0.000 C 
ATOM      9  C   UNL     1     110.754 127.679 137.695  0.00  0.00    +0.000 C 
ENDROOT
BRANCH   9  10
ATOM     10  O   UNL     1     111.275 127.284 137.192  0.00  0.00    +0.000 OA
BRANCH  10  15
ATOM     11  O   UNL     1     112.231 128.026 135.376  0.00  0.00    +0.000 OA
ATOM     12  O   UNL     1     112.340 128.375 137.824  0.00  0.00    +0.000 OA
ATOM     13  O   UNL     1     113.379 129.362 137.666  0.00  0.00    +0.000 OA
ATOM     14  O   UNL     1     114.326 130.009 134.980  0.00  0.00    +0.000 OA
ATOM     15  C   UNL     1     111.771 127.713 136.693  0.00  0.00    +0.000 A 
ATOM     16  C   UNL     1     111.734 127.597 135.877  0.00  0.00    +0.000 A 
ATOM     17  C   UNL     1     112.303 128.258 137.008  0.00  0.00    +0.000 A 
ATOM     18  C   UNL     1     112.799 128.687 136.508  0.00  0.00    +0.000 A 
ATOM     19  C   UNL     1     112.763 128.571 135.692  0.00  0.00    +0.000 A 
ATOM     20  C   UNL     1     113.350 129.253 136.849  0.00  0.00    +0.000 A 
ATOM     21  C   UNL     1     113.275 129.012 135.161  0.00  0.00    +0.000 A 
ATOM     22  C   UNL     1     113.869 129.703 136.333  0.00  0.00    +0.000 A 
ATOM     23  C   UNL     1     113.831 129.582 135.484  0.00  0.00    +0.000 A 
BRANCH  16  25
ATOM     24  O   UNL     1     109.607 125.413 134.612  0.00  0.00    +0.000 OA
ATOM     25  C   UNL     1     111.202 127.051 135.560  0.00  0.00    +0.000 A 
ATOM     26  C   UNL     1     111.330 126.242 135.666  0.00  0.00    +0.000 A 
ATOM     27  C   UNL     1     110.544 127.314 135.139  0.00  0.00    +0.000 A 
ATOM     28  C   UNL     1     110.797 125.697 135.349  0.00  0.00    +0.000 A 
ATOM     29  C   UNL     1     110.012 126.768 134.823  0.00  0.00    +0.000 A 
ATOM     30  C   UNL     1     110.139 125.960 134.928  0.00  0.00    +0.000 A 
ENDBRANCH  16  25
ENDBRANCH  10  15
ENDBRANCH   9  10
BRANCH   5  31
ATOM     31  C   UNL     1     109.528 129.485 137.711  0.00  0.00    +0.000 C 
BRANCH  31  32
ATOM     32  O   UNL     1     109.180 129.535 136.965  0.00  0.00    +0.000 OA
BRANCH  32  38
ATOM     33  O   UNL     1     109.616 130.871 136.706  0.00  0.00    +0.000 OA
ATOM     34  O   UNL     1     107.810 129.813 136.087  0.00  0.00    +0.000 OA
ATOM     35  O   UNL     1     107.562 131.287 135.390  0.00  0.00    +0.000 OA
ATOM     36  O   UNL     1     108.684 132.484 135.570  0.00  0.00    +0.000 OA
ATOM     37  C   UNL     1     108.370 130.411 136.177  0.00  0.00    +0.000 C 
ATOM     38  C   UNL     1     109.055 130.272 136.616  0.00  0.00    +0.000 C 
ATOM     39  C   UNL     1     108.247 131.148 135.829  0.00  0.00    +0.000 C 
ATOM     40  C   UNL     1     108.807 131.747 135.918  0.00  0.00    +0.000 C 
ATOM     41  C   UNL     1     109.492 131.608 136.357  0.00  0.00    +0.000 C 
BRANCH  41  43
ATOM     42  O   UNL     1     110.841 132.015 136.601  0.00  0.00    +0.000 OA
ATOM     43  C   UNL     1     110.053 132.207 136.447  0.00  0.00    +0.000 C 
ENDBRANCH  41  43
ENDBRANCH  32  38
ENDBRANCH  31  32
ENDBRANCH   5  31
TORSDOF 7
ENDMDL
MODEL 6
REMARK VINA RESULT:      -9.8      1.338      3.067
REMARK  Name = 44258740
REMARK  7 active torsions:
REMARK  status: ('A' for Active; 'I' for Inactive)
REMARK    1  A    between atoms: O_3  and  C_22
REMARK    2  A    between atoms: O_3  and  C_27
REMARK    3  A    between atoms: O_6  and  C_26
REMARK    4  A    between atoms: O_6  and  C_29
REMARK    5  A    between atoms: C_17  and  C_27
REMARK    6  A    between atoms: C_25  and  C_28
REMARK    7  A    between atoms: C_30  and  C_34
REMARK                            x       y       z     vdW  Elec       q    Type
REMARK                         _______ _______ _______ _____ _____    ______ ____
ROOT
ATOM      1  O   UNL     1     112.082 127.696 137.388  0.00  0.00    +0.000 OA
ATOM      2  O   UNL     1     113.336 129.323 138.124  0.00  0.00    +0.000 OA
ATOM      3  O   UNL     1     113.577 129.455 136.497  0.00  0.00    +0.000 OA
ATOM      4  O   UNL     1     112.821 128.414 135.464  0.00  0.00    +0.000 OA
ATOM      5  C   UNL     1     112.460 128.216 137.904  0.00  0.00    +0.000 C 
ATOM      6  C   UNL     1     112.958 128.802 137.607  0.00  0.00    +0.000 C 
ATOM      7  C   UNL     1     113.079 128.869 136.794  0.00  0.00    +0.000 C 
ATOM      8  C   UNL     1     112.701 128.349 136.277  0.00  0.00    +0.000 C 
ATOM      9  C   UNL     1     112.202 127.761 136.574  0.00  0.00    +0.000 C 
ENDROOT
BRANCH   9  10
ATOM     10  O   UNL     1     111.824 127.241 136.058  0.00  0.00    +0.000 OA
BRANCH  10  15
ATOM     11  O   UNL     1     110.984 125.271 136.481  0.00  0.00    +0.000 OA
ATOM     12  O   UNL     1     113.197 126.369 136.331  0.00  0.00    +0.000 OA
ATOM     13  O   UNL     1     113.865 125.132 136.655  0.00  0.00    +0.000 OA
ATOM     14  O   UNL     1     112.262 122.739 137.140  0.00  0.00    +0.000 OA
ATOM     15  C   UNL     1     111.773 126.440 136.244  0.00  0.00    +0.000 A 
ATOM     16  C   UNL     1     111.035 126.074 136.294  0.00  0.00    +0.000 A 
ATOM     17  C   UNL     1     112.460 126.003 136.381  0.00  0.00    +0.000 A 
ATOM     18  C   UNL     1     112.409 125.201 136.567  0.00  0.00    +0.000 A 
ATOM     19  C   UNL     1     111.671 124.836 136.617  0.00  0.00    +0.000 A 
ATOM     20  C   UNL     1     113.132 124.758 136.707  0.00  0.00    +0.000 A 
ATOM     21  C   UNL     1     111.605 124.001 136.811  0.00  0.00    +0.000 A 
ATOM     22  C   UNL     1     113.085 123.922 136.902  0.00  0.00    +0.000 A 
ATOM     23  C   UNL     1     112.317 123.541 136.954  0.00  0.00    +0.000 A 
BRANCH  16  25
ATOM     24  O   UNL     1     108.286 127.816 135.750  0.00  0.00    +0.000 OA
ATOM     25  C   UNL     1     110.348 126.509 136.157  0.00  0.00    +0.000 A 
ATOM     26  C   UNL     1     109.846 126.694 136.786  0.00  0.00    +0.000 A 
ATOM     27  C   UNL     1     110.163 126.760 135.394  0.00  0.00    +0.000 A 
ATOM     28  C   UNL     1     109.159 127.130 136.649  0.00  0.00    +0.000 A 
ATOM     29  C   UNL     1     109.475 127.196 135.258  0.00  0.00    +0.000 A 
ATOM     30  C   UNL     1     108.973 127.381 135.886  0.00  0.00    +0.000 A 
ENDBRANCH  16  25
ENDBRANCH  10  15
ENDBRANCH   9  10
BRANCH   5  31
ATOM     31  C   UNL     1     112.340 128.149 138.718  0.00  0.00    +0.000 C 
BRANCH  31  32
ATOM     32  O   UNL     1     111.943 127.493 139.023  0.00  0.00    +0.000 OA
BRANCH  32  38
ATOM     33  O   UNL     1     111.484 128.184 140.187  0.00  0.00    +0.000 OA
ATOM     34  O   UNL     1     111.928 126.072 139.861  0.00  0.00    +0.000 OA
ATOM     35  O   UNL     1     111.462 126.052 141.443  0.00  0.00    +0.000 OA
ATOM     36  O   UNL     1     111.011 127.454 142.188  0.00  0.00    +0.000 OA
ATOM     37  C   UNL     1     111.703 126.772 140.233  0.00  0.00    +0.000 C 
ATOM     38  C   UNL     1     111.710 127.483 139.814  0.00  0.00    +0.000 C 
ATOM     39  C   UNL     1     111.470 126.763 141.024  0.00  0.00    +0.000 C 
ATOM     40  C   UNL     1     111.244 127.463 141.397  0.00  0.00    +0.000 C 
ATOM     41  C   UNL     1     111.252 128.174 140.978  0.00  0.00    +0.000 C 
BRANCH  41  43
ATOM     42  O   UNL     1     110.633 129.462 140.923  0.00  0.00    +0.000 OA
ATOM     43  C   UNL     1     111.026 128.875 141.350  0.00  0.00    +0.000 C 
ENDBRANCH  41  43
ENDBRANCH  32  38
ENDBRANCH  31  32
ENDBRANCH   5  31
TORSDOF 7
ENDMDL
MODEL 7
REMARK VINA RESULT:      -9.8      1.668      3.791
REMARK  Name = 44258740
REMARK  7 active torsions:
REMARK  status: ('A' for Active; 'I' for Inactive)
REMARK    1  A    between atoms: O_3  and  C_22
REMARK    2  A    between atoms: O_3  and  C_27
REMARK    3  A    between atoms: O_6  and  C_26
REMARK    4  A    between atoms: O_6  and  C_29
REMARK    5  A    between atoms: C_17  and  C_27
REMARK    6  A    between atoms: C_25  and  C_28
REMARK    7  A    between atoms: C_30  and  C_34
REMARK                            x       y       z     vdW  Elec       q    Type
REMARK                         _______ _______ _______ _____ _____    ______ ____
ROOT
ATOM      1  O   UNL     1     111.703 127.667 138.137  0.00  0.00    +0.000 OA
ATOM      2  O   UNL     1     110.292 127.977 139.773  0.00  0.00    +0.000 OA
ATOM      3  O   UNL     1     111.538 127.246 140.570  0.00  0.00    +0.000 OA
ATOM      4  O   UNL     1     112.894 126.795 139.745  0.00  0.00    +0.000 OA
ATOM      5  C   UNL     1     111.025 127.893 138.550  0.00  0.00    +0.000 C 
ATOM      6  C   UNL     1     110.970 127.752 139.360  0.00  0.00    +0.000 C 
ATOM      7  C   UNL     1     111.593 127.386 139.759  0.00  0.00    +0.000 C 
ATOM      8  C   UNL     1     112.271 127.161 139.347  0.00  0.00    +0.000 C 
ATOM      9  C   UNL     1     112.326 127.302 138.535  0.00  0.00    +0.000 C 
ENDROOT
BRANCH   9  10
ATOM     10  O   UNL     1     113.004 127.076 138.123  0.00  0.00    +0.000 OA
BRANCH  10  15
ATOM     11  O   UNL     1     113.559 127.529 136.061  0.00  0.00    +0.000 OA
ATOM     12  O   UNL     1     113.299 128.696 138.227  0.00  0.00    +0.000 OA
ATOM     13  O   UNL     1     113.681 129.952 137.630  0.00  0.00    +0.000 OA
ATOM     14  O   UNL     1     114.339 130.028 134.785  0.00  0.00    +0.000 OA
ATOM     15  C   UNL     1     113.238 127.497 137.454  0.00  0.00    +0.000 A 
ATOM     16  C   UNL     1     113.325 127.108 136.731  0.00  0.00    +0.000 A 
ATOM     17  C   UNL     1     113.386 128.307 137.505  0.00  0.00    +0.000 A 
ATOM     18  C   UNL     1     113.620 128.728 136.836  0.00  0.00    +0.000 A 
ATOM     19  C   UNL     1     113.706 128.339 136.114  0.00  0.00    +0.000 A 
ATOM     20  C   UNL     1     113.770 129.572 136.903  0.00  0.00    +0.000 A 
ATOM     21  C   UNL     1     113.950 128.766 135.409  0.00  0.00    +0.000 A 
ATOM     22  C   UNL     1     114.014 130.015 136.209  0.00  0.00    +0.000 A 
ATOM     23  C   UNL     1     114.105 129.610 135.457  0.00  0.00    +0.000 A 
BRANCH  16  25
ATOM     24  O   UNL     1     112.738 123.867 136.520  0.00  0.00    +0.000 OA
ATOM     25  C   UNL     1     113.178 126.298 136.678  0.00  0.00    +0.000 A 
ATOM     26  C   UNL     1     113.734 125.758 136.964  0.00  0.00    +0.000 A 
ATOM     27  C   UNL     1     112.476 126.027 136.340  0.00  0.00    +0.000 A 
ATOM     28  C   UNL     1     113.586 124.949 136.911  0.00  0.00    +0.000 A 
ATOM     29  C   UNL     1     112.330 125.217 136.288  0.00  0.00    +0.000 A 
ATOM     30  C   UNL     1     112.884 124.678 136.573  0.00  0.00    +0.000 A 
ENDBRANCH  16  25
ENDBRANCH  10  15
ENDBRANCH   9  10
BRANCH   5  31
ATOM     31  C   UNL     1     110.402 128.258 138.151  0.00  0.00    +0.000 C 
BRANCH  31  32
ATOM     32  O   UNL     1     110.160 127.972 137.416  0.00  0.00    +0.000 OA
BRANCH  32  38
ATOM     33  O   UNL     1     110.001 129.233 136.761  0.00  0.00    +0.000 OA
ATOM     34  O   UNL     1     108.803 127.410 136.663  0.00  0.00    +0.000 OA
ATOM     35  O   UNL     1     107.966 128.390 135.632  0.00  0.00    +0.000 OA
ATOM     36  O   UNL     1     108.486 129.931 135.353  0.00  0.00    +0.000 OA
ATOM     37  C   UNL     1     109.063 128.180 136.524  0.00  0.00    +0.000 C 
ATOM     38  C   UNL     1     109.741 128.461 136.900  0.00  0.00    +0.000 C 
ATOM     39  C   UNL     1     108.644 128.671 136.008  0.00  0.00    +0.000 C 
ATOM     40  C   UNL     1     108.904 129.441 135.869  0.00  0.00    +0.000 C 
ATOM     41  C   UNL     1     109.582 129.722 136.245  0.00  0.00    +0.000 C 
BRANCH  41  43
ATOM     42  O   UNL     1     110.643 130.641 135.977  0.00  0.00    +0.000 OA
ATOM     43  C   UNL     1     109.842 130.493 136.106  0.00  0.00    +0.000 C 
ENDBRANCH  41  43
ENDBRANCH  32  38
ENDBRANCH  31  32
ENDBRANCH   5  31
TORSDOF 7
ENDMDL
MODEL 8
REMARK VINA RESULT:      -9.8      1.840      4.782
REMARK  Name = 44258740
REMARK  7 active torsions:
REMARK  status: ('A' for Active; 'I' for Inactive)
REMARK    1  A    between atoms: O_3  and  C_22
REMARK    2  A    between atoms: O_3  and  C_27
REMARK    3  A    between atoms: O_6  and  C_26
REMARK    4  A    between atoms: O_6  and  C_29
REMARK    5  A    between atoms: C_17  and  C_27
REMARK    6  A    between atoms: C_25  and  C_28
REMARK    7  A    between atoms: C_30  and  C_34
REMARK                            x       y       z     vdW  Elec       q    Type
REMARK                         _______ _______ _______ _____ _____    ______ ____
ROOT
ATOM      1  O   UNL     1     111.685 127.880 137.786  0.00  0.00    +0.000 OA
ATOM      2  O   UNL     1     110.164 129.064 136.762  0.00  0.00    +0.000 OA
ATOM      3  O   UNL     1     109.219 128.039 137.646  0.00  0.00    +0.000 OA
ATOM      4  O   UNL     1     109.919 126.908 138.623  0.00  0.00    +0.000 OA
ATOM      5  C   UNL     1     111.335 128.445 137.297  0.00  0.00    +0.000 C 
ATOM      6  C   UNL     1     110.513 128.498 137.251  0.00  0.00    +0.000 C 
ATOM      7  C   UNL     1     110.041 127.986 137.692  0.00  0.00    +0.000 C 
ATOM      8  C   UNL     1     110.390 127.421 138.181  0.00  0.00    +0.000 C 
ATOM      9  C   UNL     1     111.213 127.367 138.228  0.00  0.00    +0.000 C 
ENDROOT
BRANCH   9  10
ATOM     10  O   UNL     1     111.563 126.802 138.716  0.00  0.00    +0.000 OA
BRANCH  10  15
ATOM     11  O   UNL     1     113.644 126.144 138.762  0.00  0.00    +0.000 OA
ATOM     12  O   UNL     1     111.664 125.987 137.285  0.00  0.00    +0.000 OA
ATOM     13  O   UNL     1     112.410 125.216 136.320  0.00  0.00    +0.000 OA
ATOM     14  O   UNL     1     115.211 124.592 136.861  0.00  0.00    +0.000 OA
ATOM     15  C   UNL     1     112.273 126.447 138.493  0.00  0.00    +0.000 A 
ATOM     16  C   UNL     1     112.932 126.499 138.985  0.00  0.00    +0.000 A 
ATOM     17  C   UNL     1     112.324 126.039 137.777  0.00  0.00    +0.000 A 
ATOM     18  C   UNL     1     113.034 125.685 137.554  0.00  0.00    +0.000 A 
ATOM     19  C   UNL     1     113.694 125.737 138.047  0.00  0.00    +0.000 A 
ATOM     20  C   UNL     1     113.075 125.263 136.806  0.00  0.00    +0.000 A 
ATOM     21  C   UNL     1     114.440 125.372 137.825  0.00  0.00    +0.000 A 
ATOM     22  C   UNL     1     113.812 124.892 136.568  0.00  0.00    +0.000 A 
ATOM     23  C   UNL     1     114.499 124.946 137.081  0.00  0.00    +0.000 A 
BRANCH  16  25
ATOM     24  O   UNL     1     112.733 128.130 141.848  0.00  0.00    +0.000 OA
ATOM     25  C   UNL     1     112.882 126.907 139.701  0.00  0.00    +0.000 A 
ATOM     26  C   UNL     1     113.255 127.639 139.786  0.00  0.00    +0.000 A 
ATOM     27  C   UNL     1     112.460 126.583 140.332  0.00  0.00    +0.000 A 
ATOM     28  C   UNL     1     113.204 128.046 140.501  0.00  0.00    +0.000 A 
ATOM     29  C   UNL     1     112.411 126.991 141.047  0.00  0.00    +0.000 A 
ATOM     30  C   UNL     1     112.783 127.722 141.132  0.00  0.00    +0.000 A 
ENDBRANCH  16  25
ENDBRANCH  10  15
ENDBRANCH   9  10
BRANCH   5  31
ATOM     31  C   UNL     1     111.808 128.957 136.855  0.00  0.00    +0.000 C 
BRANCH  31  32
ATOM     32  O   UNL     1     112.401 129.394 137.227  0.00  0.00    +0.000 OA
BRANCH  32  38
ATOM     33  O   UNL     1     113.450 129.188 136.279  0.00  0.00    +0.000 OA
ATOM     34  O   UNL     1     112.837 130.979 137.366  0.00  0.00    +0.000 OA
ATOM     35  O   UNL     1     114.104 131.566 136.487  0.00  0.00    +0.000 OA
ATOM     36  O   UNL     1     114.935 130.568 135.469  0.00  0.00    +0.000 OA
ATOM     37  C   UNL     1     113.252 130.481 136.857  0.00  0.00    +0.000 C 
ATOM     38  C   UNL     1     113.034 129.688 136.788  0.00  0.00    +0.000 C 
ATOM     39  C   UNL     1     113.886 130.774 136.418  0.00  0.00    +0.000 C 
ATOM     40  C   UNL     1     114.301 130.275 135.909  0.00  0.00    +0.000 C 
ATOM     41  C   UNL     1     114.083 129.482 135.840  0.00  0.00    +0.000 C 
BRANCH  41  43
ATOM     42  O   UNL     1     114.572 128.180 135.509  0.00  0.00    +0.000 OA
ATOM     43  C   UNL     1     114.499 128.983 135.331  0.00  0.00    +0.000 C 
ENDBRANCH  41  43
ENDBRANCH  32  38
ENDBRANCH  31  32
ENDBRANCH   5  31
TORSDOF 7
ENDMDL
MODEL 9
REMARK VINA RESULT:      -9.7      1.450      4.520
REMARK  Name = 44258740
REMARK  7 active torsions:
REMARK  status: ('A' for Active; 'I' for Inactive)
REMARK    1  A    between atoms: O_3  and  C_22
REMARK    2  A    between atoms: O_3  and  C_27
REMARK    3  A    between atoms: O_6  and  C_26
REMARK    4  A    between atoms: O_6  and  C_29
REMARK    5  A    between atoms: C_17  and  C_27
REMARK    6  A    between atoms: C_25  and  C_28
REMARK    7  A    between atoms: C_30  and  C_34
REMARK                            x       y       z     vdW  Elec       q    Type
REMARK                         _______ _______ _______ _____ _____    ______ ____
ROOT
ATOM      1  O   UNL     1     111.686 126.509 136.765  0.00  0.00    +0.000 OA
ATOM      2  O   UNL     1     110.697 125.072 135.454  0.00  0.00    +0.000 OA
ATOM      3  O   UNL     1     111.870 124.126 136.125  0.00  0.00    +0.000 OA
ATOM      4  O   UNL     1     112.920 124.768 137.224  0.00  0.00    +0.000 OA
ATOM      5  C   UNL     1     111.161 126.188 136.216  0.00  0.00    +0.000 C 
ATOM      6  C   UNL     1     111.222 125.394 136.003  0.00  0.00    +0.000 C 
ATOM      7  C   UNL     1     111.808 124.920 136.338  0.00  0.00    +0.000 C 
ATOM      8  C   UNL     1     112.334 125.241 136.887  0.00  0.00    +0.000 C 
ATOM      9  C   UNL     1     112.273 126.036 137.101  0.00  0.00    +0.000 C 
ENDROOT
BRANCH   9  10
ATOM     10  O   UNL     1     112.798 126.357 137.650  0.00  0.00    +0.000 OA
BRANCH  10  15
ATOM     11  O   UNL     1     113.009 128.447 138.246  0.00  0.00    +0.000 OA
ATOM     12  O   UNL     1     113.485 127.000 136.294  0.00  0.00    +0.000 OA
ATOM     13  O   UNL     1     114.023 128.119 135.560  0.00  0.00    +0.000 OA
ATOM     14  O   UNL     1     114.082 130.751 136.824  0.00  0.00    +0.000 OA
ATOM     15  C   UNL     1     112.983 127.160 137.623  0.00  0.00    +0.000 A 
ATOM     16  C   UNL     1     112.824 127.642 138.273  0.00  0.00    +0.000 A 
ATOM     17  C   UNL     1     113.326 127.482 136.945  0.00  0.00    +0.000 A 
ATOM     18  C   UNL     1     113.511 128.285 136.917  0.00  0.00    +0.000 A 
ATOM     19  C   UNL     1     113.353 128.767 137.568  0.00  0.00    +0.000 A 
ATOM     20  C   UNL     1     113.869 128.609 136.205  0.00  0.00    +0.000 A 
ATOM     21  C   UNL     1     113.541 129.606 137.551  0.00  0.00    +0.000 A 
ATOM     22  C   UNL     1     114.063 129.444 136.171  0.00  0.00    +0.000 A 
ATOM     23  C   UNL     1     113.898 129.946 136.848  0.00  0.00    +0.000 A 
BRANCH  16  25
ATOM     24  O   UNL     1     111.449 126.360 140.985  0.00  0.00    +0.000 OA
ATOM     25  C   UNL     1     112.481 127.322 138.951  0.00  0.00    +0.000 A 
ATOM     26  C   UNL     1     111.688 127.474 139.123  0.00  0.00    +0.000 A 
ATOM     27  C   UNL     1     112.930 126.849 139.457  0.00  0.00    +0.000 A 
ATOM     28  C   UNL     1     111.345 127.153 139.801  0.00  0.00    +0.000 A 
ATOM     29  C   UNL     1     112.585 126.529 140.135  0.00  0.00    +0.000 A 
ATOM     30  C   UNL     1     111.793 126.681 140.307  0.00  0.00    +0.000 A 
ENDBRANCH  16  25
ENDBRANCH  10  15
ENDBRANCH   9  10
BRANCH   5  31
ATOM     31  C   UNL     1     110.575 126.662 135.880  0.00  0.00    +0.000 C 
BRANCH  31  32
ATOM     32  O   UNL     1     110.120 127.155 136.359  0.00  0.00    +0.000 OA
BRANCH  32  38
ATOM     33  O   UNL     1     110.262 128.398 135.668  0.00  0.00    +0.000 OA
ATOM     34  O   UNL     1     108.495 127.412 136.486  0.00  0.00    +0.000 OA
ATOM     35  O   UNL     1     107.825 128.783 135.859  0.00  0.00    +0.000 OA
ATOM     36  O   UNL     1     108.780 129.898 135.104  0.00  0.00    +0.000 OA
ATOM     37  C   UNL     1     108.972 127.969 136.109  0.00  0.00    +0.000 C 
ATOM     38  C   UNL     1     109.784 127.841 136.046  0.00  0.00    +0.000 C 
ATOM     39  C   UNL     1     108.637 128.655 135.795  0.00  0.00    +0.000 C 
ATOM     40  C   UNL     1     109.114 129.212 135.418  0.00  0.00    +0.000 C 
ATOM     41  C   UNL     1     109.927 129.083 135.355  0.00  0.00    +0.000 C 
BRANCH  41  43
ATOM     42  O   UNL     1     111.106 129.404 134.613  0.00  0.00    +0.000 OA
ATOM     43  C   UNL     1     110.405 129.641 134.977  0.00  0.00    +0.000 C 
ENDBRANCH  41  43
ENDBRANCH  32  38
ENDBRANCH  31  32
ENDBRANCH   5  31
TORSDOF 7
ENDMDL
MODEL 10
REMARK VINA RESULT:      -9.7      1.692      4.414
REMARK  Name = 44258740
REMARK  7 active torsions:
REMARK  status: ('A' for Active; 'I' for Inactive)
REMARK    1  A    between atoms: O_3  and  C_22
REMARK    2  A    between atoms: O_3  and  C_27
REMARK    3  A    between atoms: O_6  and  C_26
REMARK    4  A    between atoms: O_6  and  C_29
REMARK    5  A    between atoms: C_17  and  C_27
REMARK    6  A    between atoms: C_25  and  C_28
REMARK    7  A    between atoms: C_30  and  C_34
REMARK                            x       y       z     vdW  Elec       q    Type
REMARK                         _______ _______ _______ _____ _____    ______ ____
ROOT
ATOM      1  O   UNL     1     111.073 126.710 138.278  0.00  0.00    +0.000 OA
ATOM      2  O   UNL     1     108.896 126.742 138.140  0.00  0.00    +0.000 OA
ATOM      3  O   UNL     1     109.108 125.858 139.517  0.00  0.00    +0.000 OA
ATOM      4  O   UNL     1     110.631 125.543 140.068  0.00  0.00    +0.000 OA
ATOM      5  C   UNL     1     110.312 126.868 138.002  0.00  0.00    +0.000 C 
ATOM      6  C   UNL     1     109.657 126.584 138.415  0.00  0.00    +0.000 C 
ATOM      7  C   UNL     1     109.763 126.142 139.104  0.00  0.00    +0.000 C 
ATOM      8  C   UNL     1     110.524 125.985 139.380  0.00  0.00    +0.000 C 
ATOM      9  C   UNL     1     111.180 126.269 138.966  0.00  0.00    +0.000 C 
ENDROOT
BRANCH   9  10
ATOM     10  O   UNL     1     111.941 126.111 139.242  0.00  0.00    +0.000 OA
BRANCH  10  15
ATOM     11  O   UNL     1     113.851 126.311 138.204  0.00  0.00    +0.000 OA
ATOM     12  O   UNL     1     111.803 124.924 138.104  0.00  0.00    +0.000 OA
ATOM     13  O   UNL     1     112.329 124.177 136.987  0.00  0.00    +0.000 OA
ATOM     14  O   UNL     1     114.977 124.846 135.953  0.00  0.00    +0.000 OA
ATOM     15  C   UNL     1     112.554 125.980 138.706  0.00  0.00    +0.000 A 
ATOM     16  C   UNL     1     113.237 126.442 138.740  0.00  0.00    +0.000 A 
ATOM     17  C   UNL     1     112.486 125.387 138.137  0.00  0.00    +0.000 A 
ATOM     18  C   UNL     1     113.099 125.255 137.602  0.00  0.00    +0.000 A 
ATOM     19  C   UNL     1     113.781 125.718 137.635  0.00  0.00    +0.000 A 
ATOM     20  C   UNL     1     113.015 124.634 137.013  0.00  0.00    +0.000 A 
ATOM     21  C   UNL     1     114.428 125.590 137.082  0.00  0.00    +0.000 A 
ATOM     22  C   UNL     1     113.651 124.493 136.453  0.00  0.00    +0.000 A 
ATOM     23  C   UNL     1     114.361 124.974 136.487  0.00  0.00    +0.000 A 
BRANCH  16  25
ATOM     24  O   UNL     1     113.516 128.814 141.017  0.00  0.00    +0.000 OA
ATOM     25  C   UNL     1     113.307 127.035 139.309  0.00  0.00    +0.000 A 
ATOM     26  C   UNL     1     113.465 126.836 140.094  0.00  0.00    +0.000 A 
ATOM     27  C   UNL     1     113.218 127.827 139.093  0.00  0.00    +0.000 A 
ATOM     28  C   UNL     1     113.535 127.430 140.663  0.00  0.00    +0.000 A 
ATOM     29  C   UNL     1     113.288 128.419 139.663  0.00  0.00    +0.000 A 
ATOM     30  C   UNL     1     113.446 128.221 140.447  0.00  0.00    +0.000 A 
ENDBRANCH  16  25
ENDBRANCH  10  15
ENDBRANCH   9  10
BRANCH   5  31
ATOM     31  C   UNL     1     110.206 127.310 137.314  0.00  0.00    +0.000 C 
BRANCH  31  32
ATOM     32  O   UNL     1     110.710 127.942 137.149  0.00  0.00    +0.000 OA
BRANCH  32  38
ATOM     33  O   UNL     1     109.797 128.791 136.449  0.00  0.00    +0.000 OA
ATOM     34  O   UNL     1     111.874 128.268 136.026  0.00  0.00    +0.000 OA
ATOM     35  O   UNL     1     111.544 129.280 134.765  0.00  0.00    +0.000 OA
ATOM     36  O   UNL     1     110.049 129.965 134.626  0.00  0.00    +0.000 OA
ATOM     37  C   UNL     1     111.128 128.611 135.957  0.00  0.00    +0.000 C 
ATOM     38  C   UNL     1     110.545 128.448 136.518  0.00  0.00    +0.000 C 
ATOM     39  C   UNL     1     110.962 129.117 135.326  0.00  0.00    +0.000 C 
ATOM     40  C   UNL     1     110.215 129.459 135.257  0.00  0.00    +0.000 C 
ATOM     41  C   UNL     1     109.633 129.296 135.818  0.00  0.00    +0.000 C 
BRANCH  41  43
ATOM     42  O   UNL     1     108.209 129.185 135.880  0.00  0.00    +0.000 OA
ATOM     43  C   UNL     1     108.885 129.639 135.749  0.00  0.00    +0.000 C 
ENDBRANCH  41  43
ENDBRANCH  32  38
ENDBRANCH  31  32
ENDBRANCH   5  31
TORSDOF 7
ENDMDL
