MODEL 1
REMARK VINA RESULT:      -9.5      0.000      0.000
REMARK  Name = 42607967
REMARK  3 active torsions:
REMARK  status: ('A' for Active; 'I' for Inactive)
REMARK    1  A    between atoms: O_2  and  C_15
REMARK    2  A    between atoms: O_2  and  C_17
REMARK    3  A    between atoms: C_19  and  C_24
REMARK                            x       y       z     vdW  Elec       q    Type
REMARK                         _______ _______ _______ _____ _____    ______ ____
ROOT
ATOM      1  O   UNL     1     113.127 127.413 137.863  0.00  0.00    +0.000 OA
ATOM      2  O   UNL     1     113.371 127.612 140.318  0.00  0.00    +0.000 OA
ATOM      3  O   UNL     1     112.629 130.275 137.659  0.00  0.00    +0.000 OA
ATOM      4  C   UNL     1     113.045 128.976 139.437  0.00  0.00    +0.000 A 
ATOM      5  C   UNL     1     113.127 128.216 139.045  0.00  0.00    +0.000 A 
ATOM      6  C   UNL     1     113.290 126.743 138.318  0.00  0.00    +0.000 C 
ATOM      7  C   UNL     1     113.371 126.810 139.136  0.00  0.00    +0.000 C 
ATOM      8  C   UNL     1     113.046 128.149 138.227  0.00  0.00    +0.000 A 
ATOM      9  C   UNL     1     113.290 127.546 139.500  0.00  0.00    +0.000 C 
ATOM     10  C   UNL     1     112.876 129.677 138.969  0.00  0.00    +0.000 A 
ATOM     11  C   UNL     1     112.877 128.838 137.744  0.00  0.00    +0.000 A 
ATOM     12  C   UNL     1     112.791 129.608 138.117  0.00  0.00    +0.000 A 
ENDROOT
BRANCH   6  15
ATOM     13  O   UNL     1     114.955 124.662 137.287  0.00  0.00    +0.000 OA
ATOM     14  O   UNL     1     113.614 123.799 136.861  0.00  0.00    +0.000 OA
ATOM     15  C   UNL     1     113.371 126.008 137.954  0.00  0.00    +0.000 A 
ATOM     16  C   UNL     1     114.122 125.702 137.802  0.00  0.00    +0.000 A 
ATOM     17  C   UNL     1     112.701 125.576 137.741  0.00  0.00    +0.000 A 
ATOM     18  C   UNL     1     114.203 124.967 137.438  0.00  0.00    +0.000 A 
ATOM     19  C   UNL     1     112.782 124.841 137.377  0.00  0.00    +0.000 A 
ATOM     20  C   UNL     1     113.532 124.536 137.226  0.00  0.00    +0.000 A 
ENDBRANCH   6  15
BRANCH   4  21
ATOM     21  O   UNL     1     113.128 129.033 140.256  0.00  0.00    +0.000 OA
BRANCH  21  30
ATOM     22  O   UNL     1     114.326 129.806 140.350  0.00  0.00    +0.000 OA
ATOM     23  O   UNL     1     113.254 131.262 142.040  0.00  0.00    +0.000 OA
ATOM     24  O   UNL     1     114.809 131.550 141.571  0.00  0.00    +0.000 OA
ATOM     25  O   UNL     1     112.413 130.004 141.382  0.00  0.00    +0.000 OA
ATOM     26  C   UNL     1     113.611 130.777 141.477  0.00  0.00    +0.000 C 
ATOM     27  C   UNL     1     114.389 130.920 141.242  0.00  0.00    +0.000 C 
ATOM     28  C   UNL     1     113.191 130.148 141.147  0.00  0.00    +0.000 C 
ATOM     29  C   UNL     1     114.746 130.435 140.678  0.00  0.00    +0.000 C 
ATOM     30  C   UNL     1     113.549 129.662 140.584  0.00  0.00    +0.000 C 
ATOM     31  C   UNL     1     115.524 130.580 140.444  0.00  0.00    +0.000 C 
ENDBRANCH  21  30
ENDBRANCH   4  21
TORSDOF 3
ENDMDL
MODEL 2
REMARK VINA RESULT:      -9.4      2.598      3.404
REMARK  Name = 42607967
REMARK  3 active torsions:
REMARK  status: ('A' for Active; 'I' for Inactive)
REMARK    1  A    between atoms: O_2  and  C_15
REMARK    2  A    between atoms: O_2  and  C_17
REMARK    3  A    between atoms: C_19  and  C_24
REMARK                            x       y       z     vdW  Elec       q    Type
REMARK                         _______ _______ _______ _____ _____    ______ ____
ROOT
ATOM      1  O   UNL     1     113.638 127.334 136.280  0.00  0.00    +0.000 OA
ATOM      2  O   UNL     1     112.230 128.451 137.982  0.00  0.00    +0.000 OA
ATOM      3  O   UNL     1     114.191 129.902 135.022  0.00  0.00    +0.000 OA
ATOM      4  C   UNL     1     112.953 129.377 136.814  0.00  0.00    +0.000 A 
ATOM      5  C   UNL     1     113.067 128.525 136.825  0.00  0.00    +0.000 A 
ATOM      6  C   UNL     1     113.270 126.888 136.869  0.00  0.00    +0.000 C 
ATOM      7  C   UNL     1     112.800 127.261 137.436  0.00  0.00    +0.000 C 
ATOM      8  C   UNL     1     113.536 128.152 136.258  0.00  0.00    +0.000 A 
ATOM      9  C   UNL     1     112.699 128.079 137.414  0.00  0.00    +0.000 C 
ATOM     10  C   UNL     1     113.333 129.847 136.203  0.00  0.00    +0.000 A 
ATOM     11  C   UNL     1     113.924 128.606 135.640  0.00  0.00    +0.000 A 
ATOM     12  C   UNL     1     113.822 129.459 135.612  0.00  0.00    +0.000 A 
ENDROOT
BRANCH   6  15
ATOM     13  O   UNL     1     114.861 124.609 137.530  0.00  0.00    +0.000 OA
ATOM     14  O   UNL     1     113.676 123.614 136.956  0.00  0.00    +0.000 OA
ATOM     15  C   UNL     1     113.371 126.070 136.891  0.00  0.00    +0.000 A 
ATOM     16  C   UNL     1     114.065 125.748 137.199  0.00  0.00    +0.000 A 
ATOM     17  C   UNL     1     112.779 125.572 136.604  0.00  0.00    +0.000 A 
ATOM     18  C   UNL     1     114.167 124.929 137.221  0.00  0.00    +0.000 A 
ATOM     19  C   UNL     1     112.880 124.754 136.625  0.00  0.00    +0.000 A 
ATOM     20  C   UNL     1     113.574 124.433 136.934  0.00  0.00    +0.000 A 
ENDBRANCH   6  15
BRANCH   4  21
ATOM     21  O   UNL     1     112.482 129.741 137.385  0.00  0.00    +0.000 OA
BRANCH  21  30
ATOM     22  O   UNL     1     111.358 130.100 136.578  0.00  0.00    +0.000 OA
ATOM     23  O   UNL     1     111.310 132.335 137.641  0.00  0.00    +0.000 OA
ATOM     24  O   UNL     1     110.203 131.949 136.480  0.00  0.00    +0.000 OA
ATOM     25  O   UNL     1     112.450 131.231 138.093  0.00  0.00    +0.000 OA
ATOM     26  C   UNL     1     111.326 131.590 137.287  0.00  0.00    +0.000 C 
ATOM     27  C   UNL     1     110.773 131.397 136.706  0.00  0.00    +0.000 C 
ATOM     28  C   UNL     1     111.896 131.038 137.512  0.00  0.00    +0.000 C 
ATOM     29  C   UNL     1     110.789 130.652 136.352  0.00  0.00    +0.000 C 
ATOM     30  C   UNL     1     111.912 130.293 137.158  0.00  0.00    +0.000 C 
ATOM     31  C   UNL     1     110.235 130.460 135.771  0.00  0.00    +0.000 C 
ENDBRANCH  21  30
ENDBRANCH   4  21
TORSDOF 3
ENDMDL
MODEL 3
REMARK VINA RESULT:      -9.3      0.959      5.352
REMARK  Name = 42607967
REMARK  3 active torsions:
REMARK  status: ('A' for Active; 'I' for Inactive)
REMARK    1  A    between atoms: O_2  and  C_15
REMARK    2  A    between atoms: O_2  and  C_17
REMARK    3  A    between atoms: C_19  and  C_24
REMARK                            x       y       z     vdW  Elec       q    Type
REMARK                         _______ _______ _______ _____ _____    ______ ____
ROOT
ATOM      1  O   UNL     1     113.418 129.319 138.900  0.00  0.00    +0.000 OA
ATOM      2  O   UNL     1     113.171 127.019 139.782  0.00  0.00    +0.000 OA
ATOM      3  O   UNL     1     112.343 128.471 136.329  0.00  0.00    +0.000 OA
ATOM      4  C   UNL     1     112.714 127.327 138.220  0.00  0.00    +0.000 A 
ATOM      5  C   UNL     1     113.030 127.956 138.712  0.00  0.00    +0.000 A 
ATOM      6  C   UNL     1     113.641 129.148 139.676  0.00  0.00    +0.000 C 
ATOM      7  C   UNL     1     113.558 128.381 139.970  0.00  0.00    +0.000 C 
ATOM      8  C   UNL     1     113.113 128.723 138.418  0.00  0.00    +0.000 A 
ATOM      9  C   UNL     1     113.253 127.786 139.488  0.00  0.00    +0.000 C 
ATOM     10  C   UNL     1     112.480 127.499 137.411  0.00  0.00    +0.000 A 
ATOM     11  C   UNL     1     112.884 128.913 137.613  0.00  0.00    +0.000 A 
ATOM     12  C   UNL     1     112.565 128.297 137.105  0.00  0.00    +0.000 A 
ENDROOT
BRANCH   6  15
ATOM     13  O   UNL     1     113.293 131.051 141.779  0.00  0.00    +0.000 OA
ATOM     14  O   UNL     1     114.862 131.531 141.605  0.00  0.00    +0.000 OA
ATOM     15  C   UNL     1     113.946 129.744 140.159  0.00  0.00    +0.000 A 
ATOM     16  C   UNL     1     113.467 130.100 140.728  0.00  0.00    +0.000 A 
ATOM     17  C   UNL     1     114.730 129.984 140.071  0.00  0.00    +0.000 A 
ATOM     18  C   UNL     1     113.772 130.695 141.210  0.00  0.00    +0.000 A 
ATOM     19  C   UNL     1     115.035 130.580 140.553  0.00  0.00    +0.000 A 
ATOM     20  C   UNL     1     114.557 130.935 141.122  0.00  0.00    +0.000 A 
ENDBRANCH   6  15
BRANCH   4  21
ATOM     21  O   UNL     1     112.635 126.563 138.522  0.00  0.00    +0.000 OA
BRANCH  21  30
ATOM     22  O   UNL     1     113.608 125.841 137.764  0.00  0.00    +0.000 OA
ATOM     23  O   UNL     1     111.918 124.107 137.249  0.00  0.00    +0.000 OA
ATOM     24  O   UNL     1     113.454 123.962 136.663  0.00  0.00    +0.000 OA
ATOM     25  O   UNL     1     111.509 125.407 138.179  0.00  0.00    +0.000 OA
ATOM     26  C   UNL     1     112.481 124.685 137.421  0.00  0.00    +0.000 C 
ATOM     27  C   UNL     1     113.249 124.613 137.128  0.00  0.00    +0.000 C 
ATOM     28  C   UNL     1     112.277 125.335 137.885  0.00  0.00    +0.000 C 
ATOM     29  C   UNL     1     113.812 125.191 137.300  0.00  0.00    +0.000 C 
ATOM     30  C   UNL     1     112.841 125.913 138.057  0.00  0.00    +0.000 C 
ATOM     31  C   UNL     1     114.580 125.118 137.006  0.00  0.00    +0.000 C 
ENDBRANCH  21  30
ENDBRANCH   4  21
TORSDOF 3
ENDMDL
MODEL 4
REMARK VINA RESULT:      -9.3      7.895      8.862
REMARK  Name = 42607967
REMARK  3 active torsions:
REMARK  status: ('A' for Active; 'I' for Inactive)
REMARK    1  A    between atoms: O_2  and  C_15
REMARK    2  A    between atoms: O_2  and  C_17
REMARK    3  A    between atoms: C_19  and  C_24
REMARK                            x       y       z     vdW  Elec       q    Type
REMARK                         _______ _______ _______ _____ _____    ______ ____
ROOT
ATOM      1  O   UNL     1     105.031 123.668 139.456  0.00  0.00    +0.000 OA
ATOM      2  O   UNL     1     105.000 126.031 140.190  0.00  0.00    +0.000 OA
ATOM      3  O   UNL     1     107.266 123.120 141.241  0.00  0.00    +0.000 OA
ATOM      4  C   UNL     1     106.124 125.008 140.847  0.00  0.00    +0.000 A 
ATOM      5  C   UNL     1     105.564 124.720 140.262  0.00  0.00    +0.000 A 
ATOM      6  C   UNL     1     104.477 124.191 139.139  0.00  0.00    +0.000 C 
ATOM      7  C   UNL     1     104.467 124.979 139.384  0.00  0.00    +0.000 C 
ATOM      8  C   UNL     1     105.574 123.932 140.018  0.00  0.00    +0.000 A 
ATOM      9  C   UNL     1     105.011 125.243 139.945  0.00  0.00    +0.000 C 
ATOM     10  C   UNL     1     106.703 124.467 141.181  0.00  0.00    +0.000 A 
ATOM     11  C   UNL     1     106.145 123.377 140.340  0.00  0.00    +0.000 A 
ATOM     12  C   UNL     1     106.714 123.646 140.926  0.00  0.00    +0.000 A 
ENDROOT
BRANCH   6  15
ATOM     13  O   UNL     1     103.919 123.088 136.563  0.00  0.00    +0.000 OA
ATOM     14  O   UNL     1     102.303 123.134 136.892  0.00  0.00    +0.000 OA
ATOM     15  C   UNL     1     103.934 123.927 138.577  0.00  0.00    +0.000 A 
ATOM     16  C   UNL     1     104.198 123.639 137.851  0.00  0.00    +0.000 A 
ATOM     17  C   UNL     1     103.126 123.950 138.742  0.00  0.00    +0.000 A 
ATOM     18  C   UNL     1     103.654 123.375 137.289  0.00  0.00    +0.000 A 
ATOM     19  C   UNL     1     102.583 123.686 138.180  0.00  0.00    +0.000 A 
ATOM     20  C   UNL     1     102.847 123.399 137.454  0.00  0.00    +0.000 A 
ENDBRANCH   6  15
BRANCH   4  21
ATOM     21  O   UNL     1     106.107 125.797 141.085  0.00  0.00    +0.000 OA
BRANCH  21  30
ATOM     22  O   UNL     1     107.457 126.204 140.853  0.00  0.00    +0.000 OA
ATOM     23  O   UNL     1     107.554 127.183 143.124  0.00  0.00    +0.000 OA
ATOM     24  O   UNL     1     108.871 127.263 142.134  0.00  0.00    +0.000 OA
ATOM     25  O   UNL     1     106.172 126.450 142.600  0.00  0.00    +0.000 OA
ATOM     26  C   UNL     1     107.522 126.857 142.367  0.00  0.00    +0.000 C 
ATOM     27  C   UNL     1     108.180 126.897 141.871  0.00  0.00    +0.000 C 
ATOM     28  C   UNL     1     106.831 126.490 142.104  0.00  0.00    +0.000 C 
ATOM     29  C   UNL     1     108.148 126.570 141.114  0.00  0.00    +0.000 C 
ATOM     30  C   UNL     1     106.799 126.164 141.347  0.00  0.00    +0.000 C 
ATOM     31  C   UNL     1     108.807 126.611 140.620  0.00  0.00    +0.000 C 
ENDBRANCH  21  30
ENDBRANCH   4  21
TORSDOF 3
ENDMDL
MODEL 5
REMARK VINA RESULT:      -9.2      3.202      4.499
REMARK  Name = 42607967
REMARK  3 active torsions:
REMARK  status: ('A' for Active; 'I' for Inactive)
REMARK    1  A    between atoms: O_2  and  C_15
REMARK    2  A    between atoms: O_2  and  C_17
REMARK    3  A    between atoms: C_19  and  C_24
REMARK                            x       y       z     vdW  Elec       q    Type
REMARK                         _______ _______ _______ _____ _____    ______ ____
ROOT
ATOM      1  O   UNL     1     113.360 127.769 136.719  0.00  0.00    +0.000 OA
ATOM      2  O   UNL     1     111.075 127.344 135.866  0.00  0.00    +0.000 OA
ATOM      3  O   UNL     1     112.969 130.637 136.398  0.00  0.00    +0.000 OA
ATOM      4  C   UNL     1     111.606 128.909 135.977  0.00  0.00    +0.000 A 
ATOM      5  C   UNL     1     112.117 128.260 136.212  0.00  0.00    +0.000 A 
ATOM      6  C   UNL     1     113.079 126.995 136.657  0.00  0.00    +0.000 C 
ATOM      7  C   UNL     1     112.318 126.854 136.373  0.00  0.00    +0.000 C 
ATOM      8  C   UNL     1     112.879 128.401 136.496  0.00  0.00    +0.000 A 
ATOM      9  C   UNL     1     111.837 127.486 136.150  0.00  0.00    +0.000 C 
ATOM     10  C   UNL     1     111.893 129.717 136.039  0.00  0.00    +0.000 A 
ATOM     11  C   UNL     1     113.182 129.201 136.565  0.00  0.00    +0.000 A 
ATOM     12  C   UNL     1     112.686 129.865 136.335  0.00  0.00    +0.000 A 
ENDROOT
BRANCH   6  15
ATOM     13  O   UNL     1     115.119 125.096 136.027  0.00  0.00    +0.000 OA
ATOM     14  O   UNL     1     115.004 124.466 137.548  0.00  0.00    +0.000 OA
ATOM     15  C   UNL     1     113.560 126.363 136.880  0.00  0.00    +0.000 A 
ATOM     16  C   UNL     1     114.099 126.045 136.342  0.00  0.00    +0.000 A 
ATOM     17  C   UNL     1     113.503 126.048 137.640  0.00  0.00    +0.000 A 
ATOM     18  C   UNL     1     114.580 125.413 136.565  0.00  0.00    +0.000 A 
ATOM     19  C   UNL     1     113.984 125.416 137.863  0.00  0.00    +0.000 A 
ATOM     20  C   UNL     1     114.522 125.099 137.326  0.00  0.00    +0.000 A 
ENDBRANCH   6  15
BRANCH   4  21
ATOM     21  O   UNL     1     110.846 128.758 135.694  0.00  0.00    +0.000 OA
BRANCH  21  30
ATOM     22  O   UNL     1     110.079 129.293 136.774  0.00  0.00    +0.000 OA
ATOM     23  O   UNL     1     108.557 130.382 135.154  0.00  0.00    +0.000 OA
ATOM     24  O   UNL     1     108.297 130.554 136.774  0.00  0.00    +0.000 OA
ATOM     25  O   UNL     1     109.832 129.484 134.614  0.00  0.00    +0.000 OA
ATOM     26  C   UNL     1     109.064 130.019 135.694  0.00  0.00    +0.000 C 
ATOM     27  C   UNL     1     108.935 130.105 136.504  0.00  0.00    +0.000 C 
ATOM     28  C   UNL     1     109.702 129.570 135.424  0.00  0.00    +0.000 C 
ATOM     29  C   UNL     1     109.442 129.742 137.044  0.00  0.00    +0.000 C 
ATOM     30  C   UNL     1     110.209 129.207 135.964  0.00  0.00    +0.000 C 
ATOM     31  C   UNL     1     109.311 129.828 137.854  0.00  0.00    +0.000 C 
ENDBRANCH  21  30
ENDBRANCH   4  21
TORSDOF 3
ENDMDL
MODEL 6
REMARK VINA RESULT:      -9.2      3.071      3.752
REMARK  Name = 42607967
REMARK  3 active torsions:
REMARK  status: ('A' for Active; 'I' for Inactive)
REMARK    1  A    between atoms: O_2  and  C_15
REMARK    2  A    between atoms: O_2  and  C_17
REMARK    3  A    between atoms: C_19  and  C_24
REMARK                            x       y       z     vdW  Elec       q    Type
REMARK                         _______ _______ _______ _____ _____    ______ ____
ROOT
ATOM      1  O   UNL     1     111.926 126.668 136.070  0.00  0.00    +0.000 OA
ATOM      2  O   UNL     1     113.637 127.932 137.335  0.00  0.00    +0.000 OA
ATOM      3  O   UNL     1     111.158 129.090 134.646  0.00  0.00    +0.000 OA
ATOM      4  C   UNL     1     112.710 128.739 136.223  0.00  0.00    +0.000 A 
ATOM      5  C   UNL     1     112.596 127.897 136.355  0.00  0.00    +0.000 A 
ATOM      6  C   UNL     1     112.396 126.282 136.627  0.00  0.00    +0.000 C 
ATOM      7  C   UNL     1     112.966 126.704 137.049  0.00  0.00    +0.000 C 
ATOM      8  C   UNL     1     112.026 127.475 135.934  0.00  0.00    +0.000 A 
ATOM      9  C   UNL     1     113.066 127.511 136.913  0.00  0.00    +0.000 C 
ATOM     10  C   UNL     1     112.223 129.146 135.644  0.00  0.00    +0.000 A 
ATOM     11  C   UNL     1     111.530 127.866 135.351  0.00  0.00    +0.000 A 
ATOM     12  C   UNL     1     111.630 128.707 135.205  0.00  0.00    +0.000 A 
ENDROOT
BRANCH   6  15
ATOM     13  O   UNL     1     111.186 124.151 138.097  0.00  0.00    +0.000 OA
ATOM     14  O   UNL     1     111.996 123.051 137.171  0.00  0.00    +0.000 OA
ATOM     15  C   UNL     1     112.296 125.475 136.763  0.00  0.00    +0.000 A 
ATOM     16  C   UNL     1     111.791 125.216 137.362  0.00  0.00    +0.000 A 
ATOM     17  C   UNL     1     112.700 124.925 136.300  0.00  0.00    +0.000 A 
ATOM     18  C   UNL     1     111.691 124.409 137.498  0.00  0.00    +0.000 A 
ATOM     19  C   UNL     1     112.600 124.117 136.436  0.00  0.00    +0.000 A 
ATOM     20  C   UNL     1     112.096 123.859 137.035  0.00  0.00    +0.000 A 
ENDBRANCH   6  15
BRANCH   4  21
ATOM     21  O   UNL     1     113.283 129.152 136.650  0.00  0.00    +0.000 OA
BRANCH  21  30
ATOM     22  O   UNL     1     114.245 129.435 135.632  0.00  0.00    +0.000 OA
ATOM     23  O   UNL     1     114.329 131.797 136.367  0.00  0.00    +0.000 OA
ATOM     24  O   UNL     1     115.263 131.292 135.104  0.00  0.00    +0.000 OA
ATOM     25  O   UNL     1     113.339 130.727 137.140  0.00  0.00    +0.000 OA
ATOM     26  C   UNL     1     114.301 131.009 136.122  0.00  0.00    +0.000 C 
ATOM     27  C   UNL     1     114.768 130.756 135.490  0.00  0.00    +0.000 C 
ATOM     28  C   UNL     1     113.806 130.474 136.508  0.00  0.00    +0.000 C 
ATOM     29  C   UNL     1     114.740 129.969 135.245  0.00  0.00    +0.000 C 
ATOM     30  C   UNL     1     113.778 129.687 136.263  0.00  0.00    +0.000 C 
ATOM     31  C   UNL     1     115.207 129.717 134.614  0.00  0.00    +0.000 C 
ENDBRANCH  21  30
ENDBRANCH   4  21
TORSDOF 3
ENDMDL
MODEL 7
REMARK VINA RESULT:      -9.2      9.001     10.351
REMARK  Name = 42607967
REMARK  3 active torsions:
REMARK  status: ('A' for Active; 'I' for Inactive)
REMARK    1  A    between atoms: O_2  and  C_15
REMARK    2  A    between atoms: O_2  and  C_17
REMARK    3  A    between atoms: C_19  and  C_24
REMARK                            x       y       z     vdW  Elec       q    Type
REMARK                         _______ _______ _______ _____ _____    ______ ____
ROOT
ATOM      1  O   UNL     1     106.460 124.872 146.132  0.00  0.00    +0.000 OA
ATOM      2  O   UNL     1     106.451 127.296 145.629  0.00  0.00    +0.000 OA
ATOM      3  O   UNL     1     105.336 124.301 143.507  0.00  0.00    +0.000 OA
ATOM      4  C   UNL     1     105.893 126.241 144.480  0.00  0.00    +0.000 A 
ATOM      5  C   UNL     1     106.180 125.949 145.235  0.00  0.00    +0.000 A 
ATOM      6  C   UNL     1     106.735 125.412 146.694  0.00  0.00    +0.000 C 
ATOM      7  C   UNL     1     106.731 126.219 146.526  0.00  0.00    +0.000 C 
ATOM      8  C   UNL     1     106.183 125.141 145.404  0.00  0.00    +0.000 A 
ATOM      9  C   UNL     1     106.454 126.488 145.797  0.00  0.00    +0.000 C 
ATOM     10  C   UNL     1     105.606 125.684 143.891  0.00  0.00    +0.000 A 
ATOM     11  C   UNL     1     105.900 124.570 144.828  0.00  0.00    +0.000 A 
ATOM     12  C   UNL     1     105.610 124.843 144.066  0.00  0.00    +0.000 A 
ENDROOT
BRANCH   6  15
ATOM     13  O   UNL     1     106.227 124.320 149.285  0.00  0.00    +0.000 OA
ATOM     14  O   UNL     1     107.845 124.337 149.610  0.00  0.00    +0.000 OA
ATOM     15  C   UNL     1     107.012 125.143 147.423  0.00  0.00    +0.000 A 
ATOM     16  C   UNL     1     106.481 124.866 147.990  0.00  0.00    +0.000 A 
ATOM     17  C   UNL     1     107.821 125.152 147.585  0.00  0.00    +0.000 A 
ATOM     18  C   UNL     1     106.758 124.597 148.719  0.00  0.00    +0.000 A 
ATOM     19  C   UNL     1     108.098 124.883 148.314  0.00  0.00    +0.000 A 
ATOM     20  C   UNL     1     107.567 124.606 148.881  0.00  0.00    +0.000 A 
ENDBRANCH   6  15
BRANCH   4  21
ATOM     21  O   UNL     1     105.894 127.051 144.321  0.00  0.00    +0.000 OA
BRANCH  21  30
ATOM     22  O   UNL     1     106.890 127.140 143.300  0.00  0.00    +0.000 OA
ATOM     23  O   UNL     1     105.360 128.519 141.928  0.00  0.00    +0.000 OA
ATOM     24  O   UNL     1     106.867 128.149 141.365  0.00  0.00    +0.000 OA
ATOM     25  O   UNL     1     104.874 127.970 143.406  0.00  0.00    +0.000 OA
ATOM     26  C   UNL     1     105.870 128.060 142.385  0.00  0.00    +0.000 C 
ATOM     27  C   UNL     1     106.623 127.874 142.104  0.00  0.00    +0.000 C 
ATOM     28  C   UNL     1     105.628 127.785 143.124  0.00  0.00    +0.000 C 
ATOM     29  C   UNL     1     107.133 127.415 142.562  0.00  0.00    +0.000 C 
ATOM     30  C   UNL     1     106.138 127.325 143.582  0.00  0.00    +0.000 C 
ATOM     31  C   UNL     1     107.887 127.230 142.280  0.00  0.00    +0.000 C 
ENDBRANCH  21  30
ENDBRANCH   4  21
TORSDOF 3
ENDMDL
MODEL 8
REMARK VINA RESULT:      -9.2      3.883      6.494
REMARK  Name = 42607967
REMARK  3 active torsions:
REMARK  status: ('A' for Active; 'I' for Inactive)
REMARK    1  A    between atoms: O_2  and  C_15
REMARK    2  A    between atoms: O_2  and  C_17
REMARK    3  A    between atoms: C_19  and  C_24
REMARK                            x       y       z     vdW  Elec       q    Type
REMARK                         _______ _______ _______ _____ _____    ______ ____
ROOT
ATOM      1  O   UNL     1     109.996 131.292 136.282  0.00  0.00    +0.000 OA
ATOM      2  O   UNL     1     110.688 129.167 135.219  0.00  0.00    +0.000 OA
ATOM      3  O   UNL     1     112.358 131.235 137.984  0.00  0.00    +0.000 OA
ATOM      4  C   UNL     1     111.646 129.814 136.405  0.00  0.00    +0.000 A 
ATOM      5  C   UNL     1     110.923 130.212 136.166  0.00  0.00    +0.000 A 
ATOM      6  C   UNL     1     109.530 130.956 135.689  0.00  0.00    +0.000 C 
ATOM      7  C   UNL     1     109.761 130.248 135.335  0.00  0.00    +0.000 C 
ATOM      8  C   UNL     1     110.692 130.920 136.520  0.00  0.00    +0.000 A 
ATOM      9  C   UNL     1     110.458 129.875 135.573  0.00  0.00    +0.000 C 
ATOM     10  C   UNL     1     112.136 130.159 137.022  0.00  0.00    +0.000 A 
ATOM     11  C   UNL     1     111.168 131.279 137.138  0.00  0.00    +0.000 A 
ATOM     12  C   UNL     1     111.895 130.897 137.391  0.00  0.00    +0.000 A 
ENDROOT
BRANCH   6  15
ATOM     13  O   UNL     1     106.706 131.315 135.937  0.00  0.00    +0.000 OA
ATOM     14  O   UNL     1     106.744 132.445 134.736  0.00  0.00    +0.000 OA
ATOM     15  C   UNL     1     108.834 131.328 135.451  0.00  0.00    +0.000 A 
ATOM     16  C   UNL     1     108.118 131.136 135.813  0.00  0.00    +0.000 A 
ATOM     17  C   UNL     1     108.852 131.893 134.850  0.00  0.00    +0.000 A 
ATOM     18  C   UNL     1     107.421 131.508 135.575  0.00  0.00    +0.000 A 
ATOM     19  C   UNL     1     108.156 132.266 134.612  0.00  0.00    +0.000 A 
ATOM     20  C   UNL     1     107.441 132.073 134.974  0.00  0.00    +0.000 A 
ENDBRANCH   6  15
BRANCH   4  21
ATOM     21  O   UNL     1     111.870 129.106 136.045  0.00  0.00    +0.000 OA
BRANCH  21  30
ATOM     22  O   UNL     1     113.040 129.522 135.339  0.00  0.00    +0.000 OA
ATOM     23  O   UNL     1     114.252 127.532 136.174  0.00  0.00    +0.000 OA
ATOM     24  O   UNL     1     115.018 128.612 135.190  0.00  0.00    +0.000 OA
ATOM     25  O   UNL     1     112.678 127.779 136.602  0.00  0.00    +0.000 OA
ATOM     26  C   UNL     1     113.848 128.196 135.896  0.00  0.00    +0.000 C 
ATOM     27  C   UNL     1     114.231 128.736 135.404  0.00  0.00    +0.000 C 
ATOM     28  C   UNL     1     113.061 128.319 136.109  0.00  0.00    +0.000 C 
ATOM     29  C   UNL     1     113.827 129.399 135.125  0.00  0.00    +0.000 C 
ATOM     30  C   UNL     1     112.657 128.983 135.831  0.00  0.00    +0.000 C 
ATOM     31  C   UNL     1     114.211 129.939 134.633  0.00  0.00    +0.000 C 
ENDBRANCH  21  30
ENDBRANCH   4  21
TORSDOF 3
ENDMDL
MODEL 9
REMARK VINA RESULT:      -9.1      3.398      5.644
REMARK  Name = 42607967
REMARK  3 active torsions:
REMARK  status: ('A' for Active; 'I' for Inactive)
REMARK    1  A    between atoms: O_2  and  C_15
REMARK    2  A    between atoms: O_2  and  C_17
REMARK    3  A    between atoms: C_19  and  C_24
REMARK                            x       y       z     vdW  Elec       q    Type
REMARK                         _______ _______ _______ _____ _____    ______ ____
ROOT
ATOM      1  O   UNL     1     112.928 128.786 135.320  0.00  0.00    +0.000 OA
ATOM      2  O   UNL     1     113.454 127.482 137.356  0.00  0.00    +0.000 OA
ATOM      3  O   UNL     1     110.444 127.304 134.986  0.00  0.00    +0.000 OA
ATOM      4  C   UNL     1     112.048 127.157 136.543  0.00  0.00    +0.000 A 
ATOM      5  C   UNL     1     112.582 127.767 136.260  0.00  0.00    +0.000 A 
ATOM      6  C   UNL     1     113.625 128.935 135.737  0.00  0.00    +0.000 C 
ATOM      7  C   UNL     1     113.800 128.500 136.416  0.00  0.00    +0.000 C 
ATOM      8  C   UNL     1     112.408 128.203 135.581  0.00  0.00    +0.000 A 
ATOM      9  C   UNL     1     113.279 127.916 136.677  0.00  0.00    +0.000 C 
ATOM     10  C   UNL     1     111.321 126.997 136.113  0.00  0.00    +0.000 A 
ATOM     11  C   UNL     1     111.686 128.057 135.139  0.00  0.00    +0.000 A 
ATOM     12  C   UNL     1     111.139 127.450 135.406  0.00  0.00    +0.000 A 
ENDROOT
BRANCH   6  15
ATOM     13  O   UNL     1     114.631 131.605 135.893  0.00  0.00    +0.000 OA
ATOM     14  O   UNL     1     115.709 131.269 134.690  0.00  0.00    +0.000 OA
ATOM     15  C   UNL     1     114.146 129.518 135.475  0.00  0.00    +0.000 A 
ATOM     16  C   UNL     1     114.128 130.270 135.814  0.00  0.00    +0.000 A 
ATOM     17  C   UNL     1     114.685 129.351 134.874  0.00  0.00    +0.000 A 
ATOM     18  C   UNL     1     114.649 130.854 135.553  0.00  0.00    +0.000 A 
ATOM     19  C   UNL     1     115.206 129.934 134.612  0.00  0.00    +0.000 A 
ATOM     20  C   UNL     1     115.188 130.685 134.951  0.00  0.00    +0.000 A 
ENDBRANCH   6  15
BRANCH   4  21
ATOM     21  O   UNL     1     112.232 126.727 137.223  0.00  0.00    +0.000 OA
BRANCH  21  30
ATOM     22  O   UNL     1     112.548 125.449 136.668  0.00  0.00    +0.000 OA
ATOM     23  O   UNL     1     111.104 124.358 138.355  0.00  0.00    +0.000 OA
ATOM     24  O   UNL     1     111.902 123.443 137.237  0.00  0.00    +0.000 OA
ATOM     25  O   UNL     1     111.269 125.999 138.348  0.00  0.00    +0.000 OA
ATOM     26  C   UNL     1     111.585 124.721 137.793  0.00  0.00    +0.000 C 
ATOM     27  C   UNL     1     111.984 124.265 137.233  0.00  0.00    +0.000 C 
ATOM     28  C   UNL     1     111.668 125.542 137.789  0.00  0.00    +0.000 C 
ATOM     29  C   UNL     1     112.466 124.629 136.671  0.00  0.00    +0.000 C 
ATOM     30  C   UNL     1     112.150 125.906 137.226  0.00  0.00    +0.000 C 
ATOM     31  C   UNL     1     112.865 124.171 136.112  0.00  0.00    +0.000 C 
ENDBRANCH  21  30
ENDBRANCH   4  21
TORSDOF 3
ENDMDL
MODEL 10
REMARK VINA RESULT:      -9.1      3.684      4.779
REMARK  Name = 42607967
REMARK  3 active torsions:
REMARK  status: ('A' for Active; 'I' for Inactive)
REMARK    1  A    between atoms: O_2  and  C_15
REMARK    2  A    between atoms: O_2  and  C_17
REMARK    3  A    between atoms: C_19  and  C_24
REMARK                            x       y       z     vdW  Elec       q    Type
REMARK                         _______ _______ _______ _____ _____    ______ ____
ROOT
ATOM      1  O   UNL     1     111.598 125.840 137.504  0.00  0.00    +0.000 OA
ATOM      2  O   UNL     1     111.331 127.613 135.797  0.00  0.00    +0.000 OA
ATOM      3  O   UNL     1     108.857 126.257 138.396  0.00  0.00    +0.000 OA
ATOM      4  C   UNL     1     110.049 127.257 136.784  0.00  0.00    +0.000 A 
ATOM      5  C   UNL     1     110.791 126.832 136.866  0.00  0.00    +0.000 A 
ATOM      6  C   UNL     1     112.226 126.029 137.003  0.00  0.00    +0.000 C 
ATOM      7  C   UNL     1     112.137 126.620 136.435  0.00  0.00    +0.000 C 
ATOM      8  C   UNL     1     110.880 126.241 137.435  0.00  0.00    +0.000 A 
ATOM      9  C   UNL     1     111.419 127.022 136.366  0.00  0.00    +0.000 C 
ATOM     10  C   UNL     1     109.390 127.064 137.302  0.00  0.00    +0.000 A 
ATOM     11  C   UNL     1     110.234 126.035 137.961  0.00  0.00    +0.000 A 
ATOM     12  C   UNL     1     109.483 126.449 137.895  0.00  0.00    +0.000 A 
ENDROOT
BRANCH   6  15
ATOM     13  O   UNL     1     114.690 125.584 138.379  0.00  0.00    +0.000 OA
ATOM     14  O   UNL     1     115.097 124.424 137.278  0.00  0.00    +0.000 OA
ATOM     15  C   UNL     1     112.944 125.628 137.072  0.00  0.00    +0.000 A 
ATOM     16  C   UNL     1     113.459 125.806 137.691  0.00  0.00    +0.000 A 
ATOM     17  C   UNL     1     113.147 125.048 136.522  0.00  0.00    +0.000 A 
ATOM     18  C   UNL     1     114.176 125.405 137.760  0.00  0.00    +0.000 A 
ATOM     19  C   UNL     1     113.864 124.647 136.590  0.00  0.00    +0.000 A 
ATOM     20  C   UNL     1     114.378 124.825 137.209  0.00  0.00    +0.000 A 
ENDBRANCH   6  15
BRANCH   4  21
ATOM     21  O   UNL     1     109.969 127.847 136.213  0.00  0.00    +0.000 OA
BRANCH  21  30
ATOM     22  O   UNL     1     109.868 129.010 137.037  0.00  0.00    +0.000 OA
ATOM     23  O   UNL     1     107.931 129.785 135.706  0.00  0.00    +0.000 OA
ATOM     24  O   UNL     1     108.475 130.690 136.974  0.00  0.00    +0.000 OA
ATOM     25  O   UNL     1     108.677 128.364 135.325  0.00  0.00    +0.000 OA
ATOM     26  C   UNL     1     108.576 129.527 136.150  0.00  0.00    +0.000 C 
ATOM     27  C   UNL     1     108.849 129.978 136.784  0.00  0.00    +0.000 C 
ATOM     28  C   UNL     1     108.950 128.816 135.960  0.00  0.00    +0.000 C 
ATOM     29  C   UNL     1     109.495 129.720 137.227  0.00  0.00    +0.000 C 
ATOM     30  C   UNL     1     109.596 128.558 136.404  0.00  0.00    +0.000 C 
ATOM     31  C   UNL     1     109.767 130.173 137.861  0.00  0.00    +0.000 C 
ENDBRANCH  21  30
ENDBRANCH   4  21
TORSDOF 3
ENDMDL
