MODEL 1
REMARK VINA RESULT:      -8.9      0.000      0.000
REMARK  Name = 44259890
REMARK  6 active torsions:
REMARK  status: ('A' for Active; 'I' for Inactive)
REMARK    1  A    between atoms: O_2  and  C_19
REMARK    2  A    between atoms: O_2  and  C_21
REMARK    3  A    between atoms: O_8  and  C_22
REMARK    4  A    between atoms: O_10  and  C_29
REMARK    5  A    between atoms: C_18  and  C_20
REMARK    6  A    between atoms: C_28  and  C_30
REMARK                            x       y       z     vdW  Elec       q    Type
REMARK                         _______ _______ _______ _____ _____    ______ ____
ROOT
ATOM      1  O   UNL     1     110.158 130.632 136.206  0.00  0.00    +0.000 OA
ATOM      2  O   UNL     1     112.217 131.299 138.120  0.00  0.00    +0.000 OA
ATOM      3  O   UNL     1     111.162 132.232 137.806  0.00  0.00    +0.000 OA
ATOM      4  C   UNL     1     111.910 129.437 136.913  0.00  0.00    +0.000 A 
ATOM      5  C   UNL     1     112.258 129.993 137.468  0.00  0.00    +0.000 A 
ATOM      6  C   UNL     1     111.197 129.656 136.485  0.00  0.00    +0.000 A 
ATOM      7  C   UNL     1     110.843 130.427 136.619  0.00  0.00    +0.000 A 
ATOM      8  C   UNL     1     111.177 130.960 137.152  0.00  0.00    +0.000 A 
ATOM      9  C   UNL     1     111.889 130.759 137.589  0.00  0.00    +0.000 A 
ATOM     10  C   UNL     1     110.828 131.698 137.272  0.00  0.00    +0.000 A 
ATOM     11  C   UNL     1     109.809 131.369 136.326  0.00  0.00    +0.000 A 
ATOM     12  C   UNL     1     110.144 131.902 136.859  0.00  0.00    +0.000 A 
ENDROOT
BRANCH  11  16
ATOM     13  O   UNL     1     108.348 130.764 136.798  0.00  0.00    +0.000 OA
ATOM     14  O   UNL     1     106.980 131.173 135.972  0.00  0.00    +0.000 OA
ATOM     15  O   UNL     1     107.072 132.187 134.673  0.00  0.00    +0.000 OA
ATOM     16  C   UNL     1     109.125 131.574 135.912  0.00  0.00    +0.000 A 
ATOM     17  C   UNL     1     108.394 131.271 136.149  0.00  0.00    +0.000 A 
ATOM     18  C   UNL     1     109.171 132.081 135.263  0.00  0.00    +0.000 A 
ATOM     19  C   UNL     1     107.710 131.475 135.736  0.00  0.00    +0.000 A 
ATOM     20  C   UNL     1     108.487 132.285 134.851  0.00  0.00    +0.000 A 
ATOM     21  C   UNL     1     107.756 131.982 135.087  0.00  0.00    +0.000 A 
ENDBRANCH  11  16
BRANCH   5  22
ATOM     22  O   UNL     1     112.943 129.792 137.883  0.00  0.00    +0.000 OA
ATOM     23  C   UNL     1     113.659 130.156 137.699  0.00  0.00    +0.000 C 
ENDBRANCH   5  22
BRANCH  12  24
ATOM     24  O   UNL     1     109.794 132.640 136.979  0.00  0.00    +0.000 OA
ATOM     25  C   UNL     1     110.196 133.223 137.400  0.00  0.00    +0.000 C 
ENDBRANCH  12  24
BRANCH   4  26
ATOM     26  O   UNL     1     112.258 128.699 136.791  0.00  0.00    +0.000 OA
BRANCH  26  35
ATOM     27  O   UNL     1     111.312 127.876 137.477  0.00  0.00    +0.000 OA
ATOM     28  O   UNL     1     111.383 126.244 135.618  0.00  0.00    +0.000 OA
ATOM     29  O   UNL     1     110.414 125.966 136.924  0.00  0.00    +0.000 OA
ATOM     30  O   UNL     1     112.305 127.611 135.551  0.00  0.00    +0.000 OA
ATOM     31  C   UNL     1     111.359 126.788 136.238  0.00  0.00    +0.000 C 
ATOM     32  C   UNL     1     110.875 126.649 136.891  0.00  0.00    +0.000 C 
ATOM     33  C   UNL     1     111.821 127.472 136.205  0.00  0.00    +0.000 C 
ATOM     34  C   UNL     1     110.852 127.193 137.511  0.00  0.00    +0.000 C 
ATOM     35  C   UNL     1     111.797 128.016 136.824  0.00  0.00    +0.000 C 
BRANCH  34  37
ATOM     36  O   UNL     1     110.647 127.206 138.925  0.00  0.00    +0.000 OA
ATOM     37  C   UNL     1     110.368 127.054 138.164  0.00  0.00    +0.000 C 
ENDBRANCH  34  37
ENDBRANCH  26  35
ENDBRANCH   4  26
TORSDOF 6
ENDMDL
MODEL 2
REMARK VINA RESULT:      -8.9      3.738      5.559
REMARK  Name = 44259890
REMARK  6 active torsions:
REMARK  status: ('A' for Active; 'I' for Inactive)
REMARK    1  A    between atoms: O_2  and  C_19
REMARK    2  A    between atoms: O_2  and  C_21
REMARK    3  A    between atoms: O_8  and  C_22
REMARK    4  A    between atoms: O_10  and  C_29
REMARK    5  A    between atoms: C_18  and  C_20
REMARK    6  A    between atoms: C_28  and  C_30
REMARK                            x       y       z     vdW  Elec       q    Type
REMARK                         _______ _______ _______ _____ _____    ______ ____
ROOT
ATOM      1  O   UNL     1     111.782 126.551 139.232  0.00  0.00    +0.000 OA
ATOM      2  O   UNL     1     114.526 125.976 138.534  0.00  0.00    +0.000 OA
ATOM      3  O   UNL     1     114.190 126.560 139.809  0.00  0.00    +0.000 OA
ATOM      4  C   UNL     1     112.639 125.663 137.368  0.00  0.00    +0.000 A 
ATOM      5  C   UNL     1     113.474 125.666 137.569  0.00  0.00    +0.000 A 
ATOM      6  C   UNL     1     112.066 125.964 137.934  0.00  0.00    +0.000 A 
ATOM      7  C   UNL     1     112.337 126.264 138.692  0.00  0.00    +0.000 A 
ATOM      8  C   UNL     1     113.139 126.266 138.885  0.00  0.00    +0.000 A 
ATOM      9  C   UNL     1     113.726 125.970 138.332  0.00  0.00    +0.000 A 
ATOM     10  C   UNL     1     113.387 126.557 139.616  0.00  0.00    +0.000 A 
ATOM     11  C   UNL     1     112.030 126.842 139.963  0.00  0.00    +0.000 A 
ATOM     12  C   UNL     1     112.833 126.844 140.155  0.00  0.00    +0.000 A 
ENDROOT
BRANCH  11  16
ATOM     13  O   UNL     1     111.070 125.791 140.798  0.00  0.00    +0.000 OA
ATOM     14  O   UNL     1     109.961 126.366 141.876  0.00  0.00    +0.000 OA
ATOM     15  O   UNL     1     109.813 127.992 142.119  0.00  0.00    +0.000 OA
ATOM     16  C   UNL     1     111.476 127.129 140.502  0.00  0.00    +0.000 A 
ATOM     17  C   UNL     1     110.996 126.604 140.919  0.00  0.00    +0.000 A 
ATOM     18  C   UNL     1     111.402 127.942 140.624  0.00  0.00    +0.000 A 
ATOM     19  C   UNL     1     110.441 126.891 141.459  0.00  0.00    +0.000 A 
ATOM     20  C   UNL     1     110.848 128.229 141.163  0.00  0.00    +0.000 A 
ATOM     21  C   UNL     1     110.367 127.704 141.580  0.00  0.00    +0.000 A 
ENDBRANCH  11  16
BRANCH   5  22
ATOM     22  O   UNL     1     114.032 125.379 137.032  0.00  0.00    +0.000 OA
ATOM     23  C   UNL     1     114.445 124.685 137.199  0.00  0.00    +0.000 C 
ENDBRANCH   5  22
BRANCH  12  24
ATOM     24  O   UNL     1     113.081 127.135 140.886  0.00  0.00    +0.000 OA
ATOM     25  C   UNL     1     113.877 127.301 141.016  0.00  0.00    +0.000 C 
ENDBRANCH  12  24
BRANCH   4  26
ATOM     26  O   UNL     1     112.388 125.373 136.637  0.00  0.00    +0.000 OA
BRANCH  26  35
ATOM     27  O   UNL     1     111.974 126.608 136.049  0.00  0.00    +0.000 OA
ATOM     28  O   UNL     1     109.978 125.488 135.106  0.00  0.00    +0.000 OA
ATOM     29  O   UNL     1     110.229 127.095 134.833  0.00  0.00    +0.000 OA
ATOM     30  O   UNL     1     111.058 124.627 136.009  0.00  0.00    +0.000 OA
ATOM     31  C   UNL     1     110.643 125.861 135.421  0.00  0.00    +0.000 C 
ATOM     32  C   UNL     1     110.769 126.665 135.284  0.00  0.00    +0.000 C 
ATOM     33  C   UNL     1     111.184 125.430 135.872  0.00  0.00    +0.000 C 
ATOM     34  C   UNL     1     111.435 127.038 135.598  0.00  0.00    +0.000 C 
ATOM     35  C   UNL     1     111.849 125.804 136.187  0.00  0.00    +0.000 C 
BRANCH  34  37
ATOM     36  O   UNL     1     112.321 128.120 135.306  0.00  0.00    +0.000 OA
ATOM     37  C   UNL     1     111.560 127.841 135.461  0.00  0.00    +0.000 C 
ENDBRANCH  34  37
ENDBRANCH  26  35
ENDBRANCH   4  26
TORSDOF 6
ENDMDL
MODEL 3
REMARK VINA RESULT:      -8.9      8.974     10.930
REMARK  Name = 44259890
REMARK  6 active torsions:
REMARK  status: ('A' for Active; 'I' for Inactive)
REMARK    1  A    between atoms: O_2  and  C_19
REMARK    2  A    between atoms: O_2  and  C_21
REMARK    3  A    between atoms: O_8  and  C_22
REMARK    4  A    between atoms: O_10  and  C_29
REMARK    5  A    between atoms: C_18  and  C_20
REMARK    6  A    between atoms: C_28  and  C_30
REMARK                            x       y       z     vdW  Elec       q    Type
REMARK                         _______ _______ _______ _____ _____    ______ ____
ROOT
ATOM      1  O   UNL     1     105.465 126.435 144.329  0.00  0.00    +0.000 OA
ATOM      2  O   UNL     1     107.254 126.657 146.587  0.00  0.00    +0.000 OA
ATOM      3  O   UNL     1     107.260 127.641 145.533  0.00  0.00    +0.000 OA
ATOM      4  C   UNL     1     105.711 125.105 146.109  0.00  0.00    +0.000 A 
ATOM      5  C   UNL     1     106.334 125.524 146.526  0.00  0.00    +0.000 A 
ATOM      6  C   UNL     1     105.417 125.416 145.363  0.00  0.00    +0.000 A 
ATOM      7  C   UNL     1     105.751 126.141 145.045  0.00  0.00    +0.000 A 
ATOM      8  C   UNL     1     106.349 126.543 145.447  0.00  0.00    +0.000 A 
ATOM      9  C   UNL     1     106.655 126.248 146.193  0.00  0.00    +0.000 A 
ATOM     10  C   UNL     1     106.662 127.239 145.132  0.00  0.00    +0.000 A 
ATOM     11  C   UNL     1     105.778 127.130 144.014  0.00  0.00    +0.000 A 
ATOM     12  C   UNL     1     106.376 127.532 144.416  0.00  0.00    +0.000 A 
ENDROOT
BRANCH  11  16
ATOM     13  O   UNL     1     106.181 126.385 142.598  0.00  0.00    +0.000 OA
ATOM     14  O   UNL     1     105.609 126.972 141.166  0.00  0.00    +0.000 OA
ATOM     15  O   UNL     1     104.635 128.304 141.150  0.00  0.00    +0.000 OA
ATOM     16  C   UNL     1     105.492 127.424 143.298  0.00  0.00    +0.000 A 
ATOM     17  C   UNL     1     105.694 127.051 142.590  0.00  0.00    +0.000 A 
ATOM     18  C   UNL     1     105.005 128.090 143.290  0.00  0.00    +0.000 A 
ATOM     19  C   UNL     1     105.408 127.344 141.874  0.00  0.00    +0.000 A 
ATOM     20  C   UNL     1     104.720 128.383 142.574  0.00  0.00    +0.000 A 
ATOM     21  C   UNL     1     104.921 128.010 141.866  0.00  0.00    +0.000 A 
ENDBRANCH  11  16
BRANCH   5  22
ATOM     22  O   UNL     1     106.622 125.233 147.243  0.00  0.00    +0.000 OA
ATOM     23  C   UNL     1     107.425 125.064 147.326  0.00  0.00    +0.000 C 
ENDBRANCH   5  22
BRANCH  12  24
ATOM     24  O   UNL     1     106.689 128.228 144.101  0.00  0.00    +0.000 OA
ATOM     25  C   UNL     1     107.146 128.725 144.573  0.00  0.00    +0.000 C 
ENDBRANCH  12  24
BRANCH   4  26
ATOM     26  O   UNL     1     105.397 124.409 146.421  0.00  0.00    +0.000 OA
BRANCH  26  35
ATOM     27  O   UNL     1     104.159 124.884 146.955  0.00  0.00    +0.000 OA
ATOM     28  O   UNL     1     102.975 122.984 145.901  0.00  0.00    +0.000 OA
ATOM     29  O   UNL     1     102.133 124.092 146.786  0.00  0.00    +0.000 OA
ATOM     30  O   UNL     1     104.607 123.142 145.718  0.00  0.00    +0.000 OA
ATOM     31  C   UNL     1     103.370 123.617 146.252  0.00  0.00    +0.000 C 
ATOM     32  C   UNL     1     102.949 124.171 146.695  0.00  0.00    +0.000 C 
ATOM     33  C   UNL     1     104.186 123.697 146.161  0.00  0.00    +0.000 C 
ATOM     34  C   UNL     1     103.344 124.805 147.047  0.00  0.00    +0.000 C 
ATOM     35  C   UNL     1     104.581 124.330 146.513  0.00  0.00    +0.000 C 
BRANCH  34  37
ATOM     36  O   UNL     1     103.254 125.679 148.174  0.00  0.00    +0.000 OA
ATOM     37  C   UNL     1     102.923 125.358 147.489  0.00  0.00    +0.000 C 
ENDBRANCH  34  37
ENDBRANCH  26  35
ENDBRANCH   4  26
TORSDOF 6
ENDMDL
MODEL 4
REMARK VINA RESULT:      -8.9      8.881     11.365
REMARK  Name = 44259890
REMARK  6 active torsions:
REMARK  status: ('A' for Active; 'I' for Inactive)
REMARK    1  A    between atoms: O_2  and  C_19
REMARK    2  A    between atoms: O_2  and  C_21
REMARK    3  A    between atoms: O_8  and  C_22
REMARK    4  A    between atoms: O_10  and  C_29
REMARK    5  A    between atoms: C_18  and  C_20
REMARK    6  A    between atoms: C_28  and  C_30
REMARK                            x       y       z     vdW  Elec       q    Type
REMARK                         _______ _______ _______ _____ _____    ______ ____
ROOT
ATOM      1  O   UNL     1     104.833 125.631 145.710  0.00  0.00    +0.000 OA
ATOM      2  O   UNL     1     107.386 126.650 146.600  0.00  0.00    +0.000 OA
ATOM      3  O   UNL     1     106.738 125.561 147.290  0.00  0.00    +0.000 OA
ATOM      4  C   UNL     1     106.094 127.282 144.883  0.00  0.00    +0.000 A 
ATOM      5  C   UNL     1     106.754 127.257 145.432  0.00  0.00    +0.000 A 
ATOM      6  C   UNL     1     105.442 126.729 144.979  0.00  0.00    +0.000 A 
ATOM      7  C   UNL     1     105.461 126.159 145.622  0.00  0.00    +0.000 A 
ATOM      8  C   UNL     1     106.096 126.136 146.149  0.00  0.00    +0.000 A 
ATOM      9  C   UNL     1     106.755 126.680 146.069  0.00  0.00    +0.000 A 
ATOM     10  C   UNL     1     106.103 125.585 146.763  0.00  0.00    +0.000 A 
ATOM     11  C   UNL     1     104.840 125.080 146.323  0.00  0.00    +0.000 A 
ATOM     12  C   UNL     1     105.475 125.057 146.850  0.00  0.00    +0.000 A 
ENDROOT
BRANCH  11  16
ATOM     13  O   UNL     1     104.695 123.795 145.297  0.00  0.00    +0.000 OA
ATOM     14  O   UNL     1     103.439 122.739 145.472  0.00  0.00    +0.000 OA
ATOM     15  O   UNL     1     102.330 122.967 146.672  0.00  0.00    +0.000 OA
ATOM     16  C   UNL     1     104.213 124.552 146.411  0.00  0.00    +0.000 A 
ATOM     17  C   UNL     1     104.140 123.909 145.897  0.00  0.00    +0.000 A 
ATOM     18  C   UNL     1     103.658 124.665 147.011  0.00  0.00    +0.000 A 
ATOM     19  C   UNL     1     103.512 123.381 145.985  0.00  0.00    +0.000 A 
ATOM     20  C   UNL     1     103.031 124.137 147.097  0.00  0.00    +0.000 A 
ATOM     21  C   UNL     1     102.958 123.495 146.585  0.00  0.00    +0.000 A 
ENDBRANCH  11  16
BRANCH   5  22
ATOM     22  O   UNL     1     107.384 127.784 145.347  0.00  0.00    +0.000 OA
ATOM     23  C   UNL     1     107.461 128.420 145.866  0.00  0.00    +0.000 C 
ENDBRANCH   5  22
BRANCH  12  24
ATOM     24  O   UNL     1     105.482 124.505 147.464  0.00  0.00    +0.000 OA
ATOM     25  C   UNL     1     105.983 124.613 148.109  0.00  0.00    +0.000 C 
ENDBRANCH  12  24
BRANCH   4  26
ATOM     26  O   UNL     1     106.084 127.832 144.269  0.00  0.00    +0.000 OA
BRANCH  26  35
ATOM     27  O   UNL     1     106.368 126.969 143.165  0.00  0.00    +0.000 OA
ATOM     28  O   UNL     1     104.594 128.077 141.842  0.00  0.00    +0.000 OA
ATOM     29  O   UNL     1     105.469 126.845 141.181  0.00  0.00    +0.000 OA
ATOM     30  O   UNL     1     104.902 128.570 143.386  0.00  0.00    +0.000 OA
ATOM     31  C   UNL     1     105.186 127.708 142.283  0.00  0.00    +0.000 C 
ATOM     32  C   UNL     1     105.624 127.092 141.953  0.00  0.00    +0.000 C 
ATOM     33  C   UNL     1     105.339 127.954 143.056  0.00  0.00    +0.000 C 
ATOM     34  C   UNL     1     106.215 126.722 142.394  0.00  0.00    +0.000 C 
ATOM     35  C   UNL     1     105.931 127.585 143.497  0.00  0.00    +0.000 C 
BRANCH  34  37
ATOM     36  O   UNL     1     107.458 126.039 142.225  0.00  0.00    +0.000 OA
ATOM     37  C   UNL     1     106.652 126.107 142.063  0.00  0.00    +0.000 C 
ENDBRANCH  34  37
ENDBRANCH  26  35
ENDBRANCH   4  26
TORSDOF 6
ENDMDL
MODEL 5
REMARK VINA RESULT:      -8.8      2.092      5.567
REMARK  Name = 44259890
REMARK  6 active torsions:
REMARK  status: ('A' for Active; 'I' for Inactive)
REMARK    1  A    between atoms: O_2  and  C_19
REMARK    2  A    between atoms: O_2  and  C_21
REMARK    3  A    between atoms: O_8  and  C_22
REMARK    4  A    between atoms: O_10  and  C_29
REMARK    5  A    between atoms: C_18  and  C_20
REMARK    6  A    between atoms: C_28  and  C_30
REMARK                            x       y       z     vdW  Elec       q    Type
REMARK                         _______ _______ _______ _____ _____    ______ ____
ROOT
ATOM      1  O   UNL     1     111.949 126.536 136.255  0.00  0.00    +0.000 OA
ATOM      2  O   UNL     1     114.018 128.521 135.902  0.00  0.00    +0.000 OA
ATOM      3  O   UNL     1     114.333 127.192 136.364  0.00  0.00    +0.000 OA
ATOM      4  C   UNL     1     111.807 128.657 135.565  0.00  0.00    +0.000 A 
ATOM      5  C   UNL     1     112.635 128.884 135.603  0.00  0.00    +0.000 A 
ATOM      6  C   UNL     1     111.577 127.859 135.787  0.00  0.00    +0.000 A 
ATOM      7  C   UNL     1     112.176 127.300 136.043  0.00  0.00    +0.000 A 
ATOM      8  C   UNL     1     112.971 127.519 136.080  0.00  0.00    +0.000 A 
ATOM      9  C   UNL     1     113.221 128.312 135.862  0.00  0.00    +0.000 A 
ATOM     10  C   UNL     1     113.538 126.974 136.327  0.00  0.00    +0.000 A 
ATOM     11  C   UNL     1     112.516 125.990 136.503  0.00  0.00    +0.000 A 
ATOM     12  C   UNL     1     113.311 126.209 136.539  0.00  0.00    +0.000 A 
ENDROOT
BRANCH  11  16
ATOM     13  O   UNL     1     111.725 125.730 137.927  0.00  0.00    +0.000 OA
ATOM     14  O   UNL     1     111.270 124.201 138.350  0.00  0.00    +0.000 OA
ATOM     15  O   UNL     1     111.606 122.934 137.349  0.00  0.00    +0.000 OA
ATOM     16  C   UNL     1     112.289 125.226 136.714  0.00  0.00    +0.000 A 
ATOM     17  C   UNL     1     111.893 125.096 137.427  0.00  0.00    +0.000 A 
ATOM     18  C   UNL     1     112.457 124.592 136.214  0.00  0.00    +0.000 A 
ATOM     19  C   UNL     1     111.665 124.332 137.638  0.00  0.00    +0.000 A 
ATOM     20  C   UNL     1     112.229 123.828 136.426  0.00  0.00    +0.000 A 
ATOM     21  C   UNL     1     111.833 123.698 137.138  0.00  0.00    +0.000 A 
ENDBRANCH  11  16
BRANCH   5  22
ATOM     22  O   UNL     1     112.866 129.648 135.392  0.00  0.00    +0.000 OA
ATOM     23  C   UNL     1     113.319 129.770 134.714  0.00  0.00    +0.000 C 
ENDBRANCH   5  22
BRANCH  12  24
ATOM     24  O   UNL     1     113.878 125.664 136.787  0.00  0.00    +0.000 OA
ATOM     25  C   UNL     1     114.661 125.743 136.542  0.00  0.00    +0.000 C 
ENDBRANCH  12  24
BRANCH   4  26
ATOM     26  O   UNL     1     111.238 129.201 135.318  0.00  0.00    +0.000 OA
BRANCH  26  35
ATOM     27  O   UNL     1     110.640 129.509 136.579  0.00  0.00    +0.000 OA
ATOM     28  O   UNL     1     108.394 129.363 135.549  0.00  0.00    +0.000 OA
ATOM     29  O   UNL     1     108.545 129.719 137.152  0.00  0.00    +0.000 OA
ATOM     30  O   UNL     1     109.741 129.103 134.631  0.00  0.00    +0.000 OA
ATOM     31  C   UNL     1     109.143 129.411 135.892  0.00  0.00    +0.000 C 
ATOM     32  C   UNL     1     109.219 129.589 136.694  0.00  0.00    +0.000 C 
ATOM     33  C   UNL     1     109.817 129.282 135.433  0.00  0.00    +0.000 C 
ATOM     34  C   UNL     1     109.967 129.638 137.037  0.00  0.00    +0.000 C 
ATOM     35  C   UNL     1     110.565 129.330 135.776  0.00  0.00    +0.000 C 
BRANCH  34  37
ATOM     36  O   UNL     1     110.629 130.338 138.093  0.00  0.00    +0.000 OA
ATOM     37  C   UNL     1     110.042 129.816 137.839  0.00  0.00    +0.000 C 
ENDBRANCH  34  37
ENDBRANCH  26  35
ENDBRANCH   4  26
TORSDOF 6
ENDMDL
MODEL 6
REMARK VINA RESULT:      -8.8      6.848      8.320
REMARK  Name = 44259890
REMARK  6 active torsions:
REMARK  status: ('A' for Active; 'I' for Inactive)
REMARK    1  A    between atoms: O_2  and  C_19
REMARK    2  A    between atoms: O_2  and  C_21
REMARK    3  A    between atoms: O_8  and  C_22
REMARK    4  A    between atoms: O_10  and  C_29
REMARK    5  A    between atoms: C_18  and  C_20
REMARK    6  A    between atoms: C_28  and  C_30
REMARK                            x       y       z     vdW  Elec       q    Type
REMARK                         _______ _______ _______ _____ _____    ______ ____
ROOT
ATOM      1  O   UNL     1     105.107 128.090 142.324  0.00  0.00    +0.000 OA
ATOM      2  O   UNL     1     107.959 128.026 141.867  0.00  0.00    +0.000 OA
ATOM      3  O   UNL     1     107.199 129.234 141.660  0.00  0.00    +0.000 OA
ATOM      4  C   UNL     1     106.565 126.409 142.545  0.00  0.00    +0.000 A 
ATOM      5  C   UNL     1     107.290 126.807 142.315  0.00  0.00    +0.000 A 
ATOM      6  C   UNL     1     105.824 126.847 142.548  0.00  0.00    +0.000 A 
ATOM      7  C   UNL     1     105.821 127.675 142.320  0.00  0.00    +0.000 A 
ATOM      8  C   UNL     1     106.518 128.056 142.098  0.00  0.00    +0.000 A 
ATOM      9  C   UNL     1     107.267 127.636 142.090  0.00  0.00    +0.000 A 
ATOM     10  C   UNL     1     106.502 128.852 141.881  0.00  0.00    +0.000 A 
ATOM     11  C   UNL     1     105.091 128.885 142.107  0.00  0.00    +0.000 A 
ATOM     12  C   UNL     1     105.789 129.267 141.885  0.00  0.00    +0.000 A 
ENDROOT
BRANCH  11  16
ATOM     13  O   UNL     1     104.037 128.724 140.847  0.00  0.00    +0.000 OA
ATOM     14  O   UNL     1     102.610 129.554 140.856  0.00  0.00    +0.000 OA
ATOM     15  O   UNL     1     102.238 130.543 142.123  0.00  0.00    +0.000 OA
ATOM     16  C   UNL     1     104.378 129.300 142.111  0.00  0.00    +0.000 A 
ATOM     17  C   UNL     1     103.851 129.219 141.481  0.00  0.00    +0.000 A 
ATOM     18  C   UNL     1     104.192 129.795 142.744  0.00  0.00    +0.000 A 
ATOM     19  C   UNL     1     103.137 129.634 141.485  0.00  0.00    +0.000 A 
ATOM     20  C   UNL     1     103.479 130.209 142.748  0.00  0.00    +0.000 A 
ATOM     21  C   UNL     1     102.951 130.128 142.118  0.00  0.00    +0.000 A 
ENDBRANCH  11  16
BRANCH   5  22
ATOM     22  O   UNL     1     108.006 126.396 142.309  0.00  0.00    +0.000 OA
ATOM     23  C   UNL     1     108.369 126.210 141.593  0.00  0.00    +0.000 C 
ENDBRANCH   5  22
BRANCH  12  24
ATOM     24  O   UNL     1     105.772 130.062 141.668  0.00  0.00    +0.000 OA
ATOM     25  C   UNL     1     106.454 130.522 141.734  0.00  0.00    +0.000 C 
ENDBRANCH  12  24
BRANCH   4  26
ATOM     26  O   UNL     1     106.578 125.614 142.763  0.00  0.00    +0.000 OA
BRANCH  26  35
ATOM     27  O   UNL     1     106.460 125.750 144.180  0.00  0.00    +0.000 OA
ATOM     28  O   UNL     1     104.798 123.916 144.218  0.00  0.00    +0.000 OA
ATOM     29  O   UNL     1     105.234 124.663 145.622  0.00  0.00    +0.000 OA
ATOM     30  O   UNL     1     105.470 124.391 142.788  0.00  0.00    +0.000 OA
ATOM     31  C   UNL     1     105.352 124.527 144.205  0.00  0.00    +0.000 C 
ATOM     32  C   UNL     1     105.570 124.901 144.908  0.00  0.00    +0.000 C 
ATOM     33  C   UNL     1     105.688 124.765 143.490  0.00  0.00    +0.000 C 
ATOM     34  C   UNL     1     106.124 125.512 144.895  0.00  0.00    +0.000 C 
ATOM     35  C   UNL     1     106.242 125.376 143.477  0.00  0.00    +0.000 C 
BRANCH  34  37
ATOM     36  O   UNL     1     107.139 126.018 145.765  0.00  0.00    +0.000 OA
ATOM     37  C   UNL     1     106.342 125.885 145.597  0.00  0.00    +0.000 C 
ENDBRANCH  34  37
ENDBRANCH  26  35
ENDBRANCH   4  26
TORSDOF 6
ENDMDL
MODEL 7
REMARK VINA RESULT:      -8.8      1.676      5.077
REMARK  Name = 44259890
REMARK  6 active torsions:
REMARK  status: ('A' for Active; 'I' for Inactive)
REMARK    1  A    between atoms: O_2  and  C_19
REMARK    2  A    between atoms: O_2  and  C_21
REMARK    3  A    between atoms: O_8  and  C_22
REMARK    4  A    between atoms: O_10  and  C_29
REMARK    5  A    between atoms: C_18  and  C_20
REMARK    6  A    between atoms: C_28  and  C_30
REMARK                            x       y       z     vdW  Elec       q    Type
REMARK                         _______ _______ _______ _____ _____    ______ ____
ROOT
ATOM      1  O   UNL     1     111.799 129.261 135.895  0.00  0.00    +0.000 OA
ATOM      2  O   UNL     1     110.365 126.849 136.584  0.00  0.00    +0.000 OA
ATOM      3  O   UNL     1     111.806 126.868 136.526  0.00  0.00    +0.000 OA
ATOM      4  C   UNL     1     109.601 128.892 136.073  0.00  0.00    +0.000 A 
ATOM      5  C   UNL     1     109.604 128.061 136.292  0.00  0.00    +0.000 A 
ATOM      6  C   UNL     1     110.347 129.298 135.938  0.00  0.00    +0.000 A 
ATOM      7  C   UNL     1     111.086 128.867 136.025  0.00  0.00    +0.000 A 
ATOM      8  C   UNL     1     111.088 128.069 136.236  0.00  0.00    +0.000 A 
ATOM      9  C   UNL     1     110.353 127.647 136.374  0.00  0.00    +0.000 A 
ATOM     10  C   UNL     1     111.803 127.666 136.316  0.00  0.00    +0.000 A 
ATOM     11  C   UNL     1     112.514 128.858 135.976  0.00  0.00    +0.000 A 
ATOM     12  C   UNL     1     112.516 128.060 136.186  0.00  0.00    +0.000 A 
ENDROOT
BRANCH  11  16
ATOM     13  O   UNL     1     113.090 129.913 137.106  0.00  0.00    +0.000 OA
ATOM     14  O   UNL     1     114.516 130.702 136.846  0.00  0.00    +0.000 OA
ATOM     15  O   UNL     1     115.365 130.436 135.457  0.00  0.00    +0.000 OA
ATOM     16  C   UNL     1     113.227 129.253 135.846  0.00  0.00    +0.000 A 
ATOM     17  C   UNL     1     113.515 129.780 136.411  0.00  0.00    +0.000 A 
ATOM     18  C   UNL     1     113.651 129.120 135.151  0.00  0.00    +0.000 A 
ATOM     19  C   UNL     1     114.228 130.175 136.281  0.00  0.00    +0.000 A 
ATOM     20  C   UNL     1     114.363 129.514 135.022  0.00  0.00    +0.000 A 
ATOM     21  C   UNL     1     114.652 130.042 135.587  0.00  0.00    +0.000 A 
ENDBRANCH  11  16
BRANCH   5  22
ATOM     22  O   UNL     1     108.893 127.664 136.422  0.00  0.00    +0.000 OA
ATOM     23  C   UNL     1     108.624 127.109 135.874  0.00  0.00    +0.000 C 
ENDBRANCH   5  22
BRANCH  12  24
ATOM     24  O   UNL     1     113.231 127.657 136.266  0.00  0.00    +0.000 OA
ATOM     25  C   UNL     1     113.242 126.895 136.580  0.00  0.00    +0.000 C 
ENDBRANCH  12  24
BRANCH   4  26
ATOM     26  O   UNL     1     108.887 129.298 135.991  0.00  0.00    +0.000 OA
BRANCH  26  35
ATOM     27  O   UNL     1     108.927 130.072 137.192  0.00  0.00    +0.000 OA
ATOM     28  O   UNL     1     108.127 132.052 135.941  0.00  0.00    +0.000 OA
ATOM     29  O   UNL     1     108.433 132.166 137.557  0.00  0.00    +0.000 OA
ATOM     30  O   UNL     1     108.354 130.618 135.158  0.00  0.00    +0.000 OA
ATOM     31  C   UNL     1     108.394 131.392 136.358  0.00  0.00    +0.000 C 
ATOM     32  C   UNL     1     108.547 131.449 137.166  0.00  0.00    +0.000 C 
ATOM     33  C   UNL     1     108.507 130.674 135.966  0.00  0.00    +0.000 C 
ATOM     34  C   UNL     1     108.814 130.789 137.583  0.00  0.00    +0.000 C 
ATOM     35  C   UNL     1     108.774 130.014 136.383  0.00  0.00    +0.000 C 
BRANCH  34  37
ATOM     36  O   UNL     1     108.654 130.288 138.912  0.00  0.00    +0.000 OA
ATOM     37  C   UNL     1     108.967 130.846 138.391  0.00  0.00    +0.000 C 
ENDBRANCH  34  37
ENDBRANCH  26  35
ENDBRANCH   4  26
TORSDOF 6
ENDMDL
MODEL 8
REMARK VINA RESULT:      -8.7      2.700      4.586
REMARK  Name = 44259890
REMARK  6 active torsions:
REMARK  status: ('A' for Active; 'I' for Inactive)
REMARK    1  A    between atoms: O_2  and  C_19
REMARK    2  A    between atoms: O_2  and  C_21
REMARK    3  A    between atoms: O_8  and  C_22
REMARK    4  A    between atoms: O_10  and  C_29
REMARK    5  A    between atoms: C_18  and  C_20
REMARK    6  A    between atoms: C_28  and  C_30
REMARK                            x       y       z     vdW  Elec       q    Type
REMARK                         _______ _______ _______ _____ _____    ______ ____
ROOT
ATOM      1  O   UNL     1     110.985 127.147 136.658  0.00  0.00    +0.000 OA
ATOM      2  O   UNL     1     111.394 124.309 136.308  0.00  0.00    +0.000 OA
ATOM      3  O   UNL     1     110.478 125.038 135.466  0.00  0.00    +0.000 OA
ATOM      4  C   UNL     1     112.311 125.734 137.773  0.00  0.00    +0.000 A 
ATOM      5  C   UNL     1     112.134 125.002 137.359  0.00  0.00    +0.000 A 
ATOM      6  C   UNL     1     111.919 126.461 137.533  0.00  0.00    +0.000 A 
ATOM      7  C   UNL     1     111.357 126.446 136.883  0.00  0.00    +0.000 A 
ATOM      8  C   UNL     1     111.189 125.743 136.486  0.00  0.00    +0.000 A 
ATOM      9  C   UNL     1     111.569 125.007 136.711  0.00  0.00    +0.000 A 
ATOM     10  C   UNL     1     110.647 125.741 135.864  0.00  0.00    +0.000 A 
ATOM     11  C   UNL     1     110.444 127.145 136.035  0.00  0.00    +0.000 A 
ATOM     12  C   UNL     1     110.275 126.442 135.638  0.00  0.00    +0.000 A 
ENDROOT
BRANCH  11  16
ATOM     13  O   UNL     1     109.202 127.747 136.940  0.00  0.00    +0.000 OA
ATOM     14  O   UNL     1     108.457 129.148 136.489  0.00  0.00    +0.000 OA
ATOM     15  O   UNL     1     108.954 129.948 135.134  0.00  0.00    +0.000 OA
ATOM     16  C   UNL     1     110.071 127.846 135.810  0.00  0.00    +0.000 A 
ATOM     17  C   UNL     1     109.450 128.146 136.263  0.00  0.00    +0.000 A 
ATOM     18  C   UNL     1     110.320 128.245 135.132  0.00  0.00    +0.000 A 
ATOM     19  C   UNL     1     109.078 128.847 136.037  0.00  0.00    +0.000 A 
ATOM     20  C   UNL     1     109.947 128.946 134.908  0.00  0.00    +0.000 A 
ATOM     21  C   UNL     1     109.326 129.247 135.360  0.00  0.00    +0.000 A 
ENDBRANCH  11  16
BRANCH   5  22
ATOM     22  O   UNL     1     112.505 124.299 137.582  0.00  0.00    +0.000 OA
ATOM     23  C   UNL     1     113.036 123.933 137.069  0.00  0.00    +0.000 C 
ENDBRANCH   5  22
BRANCH  12  24
ATOM     24  O   UNL     1     109.734 126.439 135.016  0.00  0.00    +0.000 OA
ATOM     25  C   UNL     1     109.572 125.739 134.612  0.00  0.00    +0.000 C 
ENDBRANCH  12  24
BRANCH   4  26
ATOM     26  O   UNL     1     112.851 125.739 138.396  0.00  0.00    +0.000 OA
BRANCH  26  35
ATOM     27  O   UNL     1     111.956 126.105 139.448  0.00  0.00    +0.000 OA
ATOM     28  O   UNL     1     113.677 127.618 140.385  0.00  0.00    +0.000 OA
ATOM     29  O   UNL     1     112.209 127.479 141.124  0.00  0.00    +0.000 OA
ATOM     30  O   UNL     1     113.998 126.747 139.021  0.00  0.00    +0.000 OA
ATOM     31  C   UNL     1     113.103 127.113 140.073  0.00  0.00    +0.000 C 
ATOM     32  C   UNL     1     112.369 127.044 140.442  0.00  0.00    +0.000 C 
ATOM     33  C   UNL     1     113.264 126.678 139.390  0.00  0.00    +0.000 C 
ATOM     34  C   UNL     1     111.795 126.540 140.129  0.00  0.00    +0.000 C 
ATOM     35  C   UNL     1     112.691 126.174 139.077  0.00  0.00    +0.000 C 
BRANCH  34  37
ATOM     36  O   UNL     1     110.782 125.729 140.728  0.00  0.00    +0.000 OA
ATOM     37  C   UNL     1     111.062 126.471 140.499  0.00  0.00    +0.000 C 
ENDBRANCH  34  37
ENDBRANCH  26  35
ENDBRANCH   4  26
TORSDOF 6
ENDMDL
MODEL 9
REMARK VINA RESULT:      -8.7      2.000      4.065
REMARK  Name = 44259890
REMARK  6 active torsions:
REMARK  status: ('A' for Active; 'I' for Inactive)
REMARK    1  A    between atoms: O_2  and  C_19
REMARK    2  A    between atoms: O_2  and  C_21
REMARK    3  A    between atoms: O_8  and  C_22
REMARK    4  A    between atoms: O_10  and  C_29
REMARK    5  A    between atoms: C_18  and  C_20
REMARK    6  A    between atoms: C_28  and  C_30
REMARK                            x       y       z     vdW  Elec       q    Type
REMARK                         _______ _______ _______ _____ _____    ______ ____
ROOT
ATOM      1  O   UNL     1     112.113 128.569 136.155  0.00  0.00    +0.000 OA
ATOM      2  O   UNL     1     109.313 129.115 136.614  0.00  0.00    +0.000 OA
ATOM      3  O   UNL     1     110.290 130.177 136.622  0.00  0.00    +0.000 OA
ATOM      4  C   UNL     1     110.364 127.178 136.210  0.00  0.00    +0.000 A 
ATOM      5  C   UNL     1     109.731 127.737 136.371  0.00  0.00    +0.000 A 
ATOM      6  C   UNL     1     111.172 127.463 136.137  0.00  0.00    +0.000 A 
ATOM      7  C   UNL     1     111.336 128.302 136.226  0.00  0.00    +0.000 A 
ATOM      8  C   UNL     1     110.728 128.837 136.382  0.00  0.00    +0.000 A 
ATOM      9  C   UNL     1     109.914 128.572 136.458  0.00  0.00    +0.000 A 
ATOM     10  C   UNL     1     110.897 129.640 136.466  0.00  0.00    +0.000 A 
ATOM     11  C   UNL     1     112.282 129.372 136.240  0.00  0.00    +0.000 A 
ATOM     12  C   UNL     1     111.675 129.908 136.395  0.00  0.00    +0.000 A 
ENDROOT
BRANCH  11  16
ATOM     13  O   UNL     1     112.999 129.437 134.754  0.00  0.00    +0.000 OA
ATOM     14  O   UNL     1     114.554 129.972 134.612  0.00  0.00    +0.000 OA
ATOM     15  O   UNL     1     115.391 130.441 135.954  0.00  0.00    +0.000 OA
ATOM     16  C   UNL     1     113.060 129.639 136.168  0.00  0.00    +0.000 A 
ATOM     17  C   UNL     1     113.418 129.672 135.425  0.00  0.00    +0.000 A 
ATOM     18  C   UNL     1     113.478 129.874 136.840  0.00  0.00    +0.000 A 
ATOM     19  C   UNL     1     114.195 129.939 135.354  0.00  0.00    +0.000 A 
ATOM     20  C   UNL     1     114.255 130.141 136.768  0.00  0.00    +0.000 A 
ATOM     21  C   UNL     1     114.614 130.174 136.025  0.00  0.00    +0.000 A 
ENDBRANCH  11  16
BRANCH   5  22
ATOM     22  O   UNL     1     108.953 127.473 136.443  0.00  0.00    +0.000 OA
ATOM     23  C   UNL     1     108.418 127.594 135.827  0.00  0.00    +0.000 C 
ENDBRANCH   5  22
BRANCH  12  24
ATOM     24  O   UNL     1     111.844 130.711 136.479  0.00  0.00    +0.000 OA
ATOM     25  C   UNL     1     111.285 131.218 136.810  0.00  0.00    +0.000 C 
ENDBRANCH  12  24
BRANCH   4  26
ATOM     26  O   UNL     1     110.197 126.375 136.125  0.00  0.00    +0.000 OA
BRANCH  26  35
ATOM     27  O   UNL     1     110.723 125.898 137.365  0.00  0.00    +0.000 OA
ATOM     28  O   UNL     1     111.752 123.978 136.192  0.00  0.00    +0.000 OA
ATOM     29  O   UNL     1     111.934 124.142 137.823  0.00  0.00    +0.000 OA
ATOM     30  O   UNL     1     110.883 125.094 135.342  0.00  0.00    +0.000 OA
ATOM     31  C   UNL     1     111.409 124.618 136.583  0.00  0.00    +0.000 C 
ATOM     32  C   UNL     1     111.500 124.701 137.399  0.00  0.00    +0.000 C 
ATOM     33  C   UNL     1     110.974 125.177 136.158  0.00  0.00    +0.000 C 
ATOM     34  C   UNL     1     111.157 125.341 137.790  0.00  0.00    +0.000 C 
ATOM     35  C   UNL     1     110.631 125.817 136.549  0.00  0.00    +0.000 C 
BRANCH  34  37
ATOM     36  O   UNL     1     110.586 125.528 139.087  0.00  0.00    +0.000 OA
ATOM     37  C   UNL     1     111.248 125.422 138.605  0.00  0.00    +0.000 C 
ENDBRANCH  34  37
ENDBRANCH  26  35
ENDBRANCH   4  26
TORSDOF 6
ENDMDL
MODEL 10
REMARK VINA RESULT:      -8.6      2.269      5.831
REMARK  Name = 44259890
REMARK  6 active torsions:
REMARK  status: ('A' for Active; 'I' for Inactive)
REMARK    1  A    between atoms: O_2  and  C_19
REMARK    2  A    between atoms: O_2  and  C_21
REMARK    3  A    between atoms: O_8  and  C_22
REMARK    4  A    between atoms: O_10  and  C_29
REMARK    5  A    between atoms: C_18  and  C_20
REMARK    6  A    between atoms: C_28  and  C_30
REMARK                            x       y       z     vdW  Elec       q    Type
REMARK                         _______ _______ _______ _____ _____    ______ ____
ROOT
ATOM      1  O   UNL     1     111.380 126.961 138.138  0.00  0.00    +0.000 OA
ATOM      2  O   UNL     1     112.063 125.529 135.723  0.00  0.00    +0.000 OA
ATOM      3  O   UNL     1     112.886 125.432 136.903  0.00  0.00    +0.000 OA
ATOM      4  C   UNL     1     110.339 126.891 136.161  0.00  0.00    +0.000 A 
ATOM      5  C   UNL     1     110.862 126.361 135.733  0.00  0.00    +0.000 A 
ATOM      6  C   UNL     1     110.517 127.094 136.977  0.00  0.00    +0.000 A 
ATOM      7  C   UNL     1     111.215 126.763 137.354  0.00  0.00    +0.000 A 
ATOM      8  C   UNL     1     111.716 126.253 136.942  0.00  0.00    +0.000 A 
ATOM      9  C   UNL     1     111.555 126.040 136.126  0.00  0.00    +0.000 A 
ATOM     10  C   UNL     1     112.384 125.942 137.314  0.00  0.00    +0.000 A 
ATOM     11  C   UNL     1     112.047 126.649 138.510  0.00  0.00    +0.000 A 
ATOM     12  C   UNL     1     112.549 126.140 138.098  0.00  0.00    +0.000 A 
ENDROOT
BRANCH  11  16
ATOM     13  O   UNL     1     111.230 125.909 139.737  0.00  0.00    +0.000 OA
ATOM     14  O   UNL     1     111.561 126.305 141.305  0.00  0.00    +0.000 OA
ATOM     15  O   UNL     1     112.709 127.440 141.644  0.00  0.00    +0.000 OA
ATOM     16  C   UNL     1     112.213 126.847 139.293  0.00  0.00    +0.000 A 
ATOM     17  C   UNL     1     111.804 126.477 139.907  0.00  0.00    +0.000 A 
ATOM     18  C   UNL     1     112.787 127.415 139.463  0.00  0.00    +0.000 A 
ATOM     19  C   UNL     1     111.969 126.675 140.691  0.00  0.00    +0.000 A 
ATOM     20  C   UNL     1     112.951 127.612 140.247  0.00  0.00    +0.000 A 
ATOM     21  C   UNL     1     112.543 127.242 140.861  0.00  0.00    +0.000 A 
ENDBRANCH  11  16
BRANCH   5  22
ATOM     22  O   UNL     1     110.699 126.160 134.949  0.00  0.00    +0.000 OA
ATOM     23  C   UNL     1     110.352 125.434 134.772  0.00  0.00    +0.000 C 
ENDBRANCH   5  22
BRANCH  12  24
ATOM     24  O   UNL     1     113.216 125.828 138.470  0.00  0.00    +0.000 OA
ATOM     25  C   UNL     1     113.858 125.572 138.020  0.00  0.00    +0.000 C 
ENDBRANCH  12  24
BRANCH   4  26
ATOM     26  O   UNL     1     109.671 127.204 135.791  0.00  0.00    +0.000 OA
BRANCH  26  35
ATOM     27  O   UNL     1     110.182 128.521 135.576  0.00  0.00    +0.000 OA
ATOM     28  O   UNL     1     107.956 129.469 136.100  0.00  0.00    +0.000 OA
ATOM     29  O   UNL     1     109.208 130.470 135.710  0.00  0.00    +0.000 OA
ATOM     30  O   UNL     1     108.188 127.836 136.141  0.00  0.00    +0.000 OA
ATOM     31  C   UNL     1     108.698 129.153 135.926  0.00  0.00    +0.000 C 
ATOM     32  C   UNL     1     109.324 129.653 135.730  0.00  0.00    +0.000 C 
ATOM     33  C   UNL     1     108.814 128.336 135.946  0.00  0.00    +0.000 C 
ATOM     34  C   UNL     1     110.066 129.337 135.556  0.00  0.00    +0.000 C 
ATOM     35  C   UNL     1     109.556 128.020 135.771  0.00  0.00    +0.000 C 
BRANCH  34  37
ATOM     36  O   UNL     1     111.198 129.644 134.738  0.00  0.00    +0.000 OA
ATOM     37  C   UNL     1     110.692 129.838 135.361  0.00  0.00    +0.000 C 
ENDBRANCH  34  37
ENDBRANCH  26  35
ENDBRANCH   4  26
TORSDOF 6
ENDMDL
