MODEL 1
REMARK VINA RESULT:      -9.4      0.000      0.000
REMARK  Name = 131836014
REMARK  11 active torsions:
REMARK  status: ('A' for Active; 'I' for Inactive)
REMARK    1  A    between atoms: O_3  and  C_17
REMARK    2  A    between atoms: O_3  and  C_24
REMARK    3  A    between atoms: C_15  and  C_21
REMARK    4  A    between atoms: C_18  and  C_25
REMARK    5  A    between atoms: C_19  and  C_29
REMARK    6  A    between atoms: C_21  and  C_30
REMARK    7  A    between atoms: C_26  and  C_31
REMARK    8  A    between atoms: C_31  and  C_36
REMARK    9  A    between atoms: C_34  and  C_35
REMARK   10  A    between atoms: C_35  and  C_41
REMARK   11  A    between atoms: C_41  and  C_43
REMARK                            x       y       z     vdW  Elec       q    Type
REMARK                         _______ _______ _______ _____ _____    ______ ____
ROOT
ATOM      1  O   UNL     1     110.637 128.509 138.411  0.00  0.00    +0.000 OA
ATOM      2  O   UNL     1     112.477 129.410 137.022  0.00  0.00    +0.000 OA
ATOM      3  O   UNL     1     112.009 130.759 137.226  0.00  0.00    +0.000 OA
ATOM      4  C   UNL     1     111.800 128.296 137.608  0.00  0.00    +0.000 C 
ATOM      5  C   UNL     1     111.186 127.996 138.071  0.00  0.00    +0.000 C 
ATOM      6  C   UNL     1     111.864 129.109 137.485  0.00  0.00    +0.000 C 
ATOM      7  C   UNL     1     111.315 129.622 137.826  0.00  0.00    +0.000 A 
ATOM      8  C   UNL     1     110.701 129.322 138.288  0.00  0.00    +0.000 A 
ATOM      9  C   UNL     1     110.185 130.695 138.524  0.00  0.00    +0.000 A 
ATOM     10  C   UNL     1     110.823 131.007 138.042  0.00  0.00    +0.000 A 
ATOM     11  C   UNL     1     111.393 130.467 137.690  0.00  0.00    +0.000 A 
ATOM     12  C   UNL     1     110.123 129.847 138.648  0.00  0.00    +0.000 A 
ENDROOT
BRANCH   5  15
ATOM     13  O   UNL     1     111.746 127.326 139.471  0.00  0.00    +0.000 OA
ATOM     14  O   UNL     1     110.929 124.743 138.561  0.00  0.00    +0.000 OA
ATOM     15  C   UNL     1     111.122 127.183 138.194  0.00  0.00    +0.000 A 
ATOM     16  C   UNL     1     111.402 126.848 138.893  0.00  0.00    +0.000 A 
ATOM     17  C   UNL     1     110.777 126.705 137.616  0.00  0.00    +0.000 A 
ATOM     18  C   UNL     1     111.338 126.034 139.016  0.00  0.00    +0.000 A 
ATOM     19  C   UNL     1     110.713 125.891 137.739  0.00  0.00    +0.000 A 
ATOM     20  C   UNL     1     110.994 125.556 138.439  0.00  0.00    +0.000 A 
ENDBRANCH   5  15
BRANCH   9  21
ATOM     21  O   UNL     1     109.634 131.205 138.866  0.00  0.00    +0.000 OA
BRANCH  21  29
ATOM     22  O   UNL     1     110.000 131.089 140.242  0.00  0.00    +0.000 OA
ATOM     23  O   UNL     1     107.613 130.872 140.859  0.00  0.00    +0.000 OA
ATOM     24  O   UNL     1     108.043 131.061 139.277  0.00  0.00    +0.000 OA
ATOM     25  O   UNL     1     108.775 130.828 142.028  0.00  0.00    +0.000 OA
ATOM     26  C   UNL     1     108.409 130.945 140.653  0.00  0.00    +0.000 C 
ATOM     27  C   UNL     1     108.623 131.039 139.862  0.00  0.00    +0.000 C 
ATOM     28  C   UNL     1     108.989 130.922 141.238  0.00  0.00    +0.000 C 
ATOM     29  C   UNL     1     109.420 131.111 139.656  0.00  0.00    +0.000 C 
ATOM     30  C   UNL     1     109.786 130.995 141.032  0.00  0.00    +0.000 C 
BRANCH  30  33
ATOM     31  O   UNL     1     110.592 130.251 141.948  0.00  0.00    +0.000 OA
ATOM     32  O   UNL     1     110.722 131.672 141.872  0.00  0.00    +0.000 OA
ATOM     33  C   UNL     1     110.366 130.973 141.617  0.00  0.00    +0.000 C 
ENDBRANCH  30  33
ENDBRANCH  21  29
ENDBRANCH   9  21
BRANCH   4  34
ATOM     34  C   UNL     1     112.349 127.783 137.267  0.00  0.00    +0.000 C 
BRANCH  34  35
ATOM     35  C   UNL     1     112.732 127.993 136.569  0.00  0.00    +0.000 C 
ATOM     36  C   UNL     1     113.415 127.593 136.335  0.00  0.00    +0.000 C 
ATOM     37  C   UNL     1     113.798 127.804 135.636  0.00  0.00    +0.000 C 
BRANCH  36  38
ATOM     38  C   UNL     1     113.714 126.982 136.802  0.00  0.00    +0.000 C 
BRANCH  38  39
ATOM     39  C   UNL     1     114.054 126.320 136.445  0.00  0.00    +0.000 C 
BRANCH  39  40
ATOM     40  C   UNL     1     114.518 125.804 136.892  0.00  0.00    +0.000 C 
ATOM     41  C   UNL     1     114.437 124.988 136.796  0.00  0.00    +0.000 C 
ATOM     42  C   UNL     1     114.901 124.473 137.242  0.00  0.00    +0.000 C 
ATOM     43  C   UNL     1     113.892 124.689 136.254  0.00  0.00    +0.000 C 
ENDBRANCH  39  40
ENDBRANCH  38  39
ENDBRANCH  36  38
ENDBRANCH  34  35
ENDBRANCH   4  34
BRANCH  10  44
ATOM     44  C   UNL     1     110.891 131.820 137.917  0.00  0.00    +0.000 C 
BRANCH  44  45
ATOM     45  C   UNL     1     110.537 132.167 137.259  0.00  0.00    +0.000 C 
ATOM     46  C   UNL     1     110.322 132.741 136.705  0.00  0.00    +0.000 C 
ATOM     47  C   UNL     1     109.828 132.543 136.076  0.00  0.00    +0.000 C 
ATOM     48  C   UNL     1     110.602 133.513 136.784  0.00  0.00    +0.000 C 
ENDBRANCH  44  45
ENDBRANCH  10  44
TORSDOF 11
ENDMDL
MODEL 2
REMARK VINA RESULT:      -9.1      1.451      3.696
REMARK  Name = 131836014
REMARK  11 active torsions:
REMARK  status: ('A' for Active; 'I' for Inactive)
REMARK    1  A    between atoms: O_3  and  C_17
REMARK    2  A    between atoms: O_3  and  C_24
REMARK    3  A    between atoms: C_15  and  C_21
REMARK    4  A    between atoms: C_18  and  C_25
REMARK    5  A    between atoms: C_19  and  C_29
REMARK    6  A    between atoms: C_21  and  C_30
REMARK    7  A    between atoms: C_26  and  C_31
REMARK    8  A    between atoms: C_31  and  C_36
REMARK    9  A    between atoms: C_34  and  C_35
REMARK   10  A    between atoms: C_35  and  C_41
REMARK   11  A    between atoms: C_41  and  C_43
REMARK                            x       y       z     vdW  Elec       q    Type
REMARK                         _______ _______ _______ _____ _____    ______ ____
ROOT
ATOM      1  O   UNL     1     111.620 129.556 137.270  0.00  0.00    +0.000 OA
ATOM      2  O   UNL     1     110.531 127.763 138.583  0.00  0.00    +0.000 OA
ATOM      3  O   UNL     1     109.547 128.690 139.085  0.00  0.00    +0.000 OA
ATOM      4  C   UNL     1     111.557 128.189 137.685  0.00  0.00    +0.000 C 
ATOM      5  C   UNL     1     111.920 128.788 137.247  0.00  0.00    +0.000 C 
ATOM      6  C   UNL     1     110.894 128.360 138.145  0.00  0.00    +0.000 C 
ATOM      7  C   UNL     1     110.594 129.128 138.168  0.00  0.00    +0.000 A 
ATOM      8  C   UNL     1     110.957 129.726 137.730  0.00  0.00    +0.000 A 
ATOM      9  C   UNL     1     109.964 130.714 138.223  0.00  0.00    +0.000 A 
ATOM     10  C   UNL     1     109.586 130.092 138.678  0.00  0.00    +0.000 A 
ATOM     11  C   UNL     1     109.903 129.293 138.651  0.00  0.00    +0.000 A 
ATOM     12  C   UNL     1     110.654 130.530 137.745  0.00  0.00    +0.000 A 
ENDROOT
BRANCH   5  15
ATOM     13  O   UNL     1     113.431 129.122 137.821  0.00  0.00    +0.000 OA
ATOM     14  O   UNL     1     114.573 128.104 135.407  0.00  0.00    +0.000 OA
ATOM     15  C   UNL     1     112.583 128.617 136.787  0.00  0.00    +0.000 A 
ATOM     16  C   UNL     1     113.339 128.784 137.074  0.00  0.00    +0.000 A 
ATOM     17  C   UNL     1     112.491 128.279 136.040  0.00  0.00    +0.000 A 
ATOM     18  C   UNL     1     114.002 128.613 136.614  0.00  0.00    +0.000 A 
ATOM     19  C   UNL     1     113.154 128.108 135.580  0.00  0.00    +0.000 A 
ATOM     20  C   UNL     1     113.910 128.275 135.867  0.00  0.00    +0.000 A 
ENDBRANCH   5  15
BRANCH   9  21
ATOM     21  O   UNL     1     109.666 131.483 138.243  0.00  0.00    +0.000 OA
BRANCH  21  29
ATOM     22  O   UNL     1     109.215 131.689 136.903  0.00  0.00    +0.000 OA
ATOM     23  O   UNL     1     110.495 133.806 136.799  0.00  0.00    +0.000 OA
ATOM     24  O   UNL     1     110.519 132.894 138.174  0.00  0.00    +0.000 OA
ATOM     25  O   UNL     1     109.618 133.307 135.494  0.00  0.00    +0.000 OA
ATOM     26  C   UNL     1     110.068 133.100 136.833  0.00  0.00    +0.000 C 
ATOM     27  C   UNL     1     110.081 132.645 137.521  0.00  0.00    +0.000 C 
ATOM     28  C   UNL     1     109.630 132.851 136.181  0.00  0.00    +0.000 C 
ATOM     29  C   UNL     1     109.654 131.938 137.556  0.00  0.00    +0.000 C 
ATOM     30  C   UNL     1     109.203 132.145 136.216  0.00  0.00    +0.000 C 
BRANCH  30  33
ATOM     31  O   UNL     1     107.957 132.056 135.523  0.00  0.00    +0.000 OA
ATOM     32  O   UNL     1     109.135 131.486 134.950  0.00  0.00    +0.000 OA
ATOM     33  C   UNL     1     108.765 131.896 135.563  0.00  0.00    +0.000 C 
ENDBRANCH  30  33
ENDBRANCH  21  29
ENDBRANCH   9  21
BRANCH   4  34
ATOM     34  C   UNL     1     111.857 127.421 137.663  0.00  0.00    +0.000 C 
BRANCH  34  35
ATOM     35  C   UNL     1     111.347 126.777 137.725  0.00  0.00    +0.000 C 
ATOM     36  C   UNL     1     111.649 126.022 137.865  0.00  0.00    +0.000 C 
ATOM     37  C   UNL     1     111.138 125.378 137.927  0.00  0.00    +0.000 C 
BRANCH  36  38
ATOM     38  C   UNL     1     112.463 125.912 137.943  0.00  0.00    +0.000 C 
BRANCH  38  39
ATOM     39  C   UNL     1     112.818 125.230 137.644  0.00  0.00    +0.000 C 
BRANCH  39  40
ATOM     40  C   UNL     1     113.623 125.098 137.763  0.00  0.00    +0.000 C 
ATOM     41  C   UNL     1     114.064 124.697 137.192  0.00  0.00    +0.000 C 
ATOM     42  C   UNL     1     114.869 124.565 137.311  0.00  0.00    +0.000 C 
ATOM     43  C   UNL     1     113.699 124.428 136.503  0.00  0.00    +0.000 C 
ENDBRANCH  39  40
ENDBRANCH  38  39
ENDBRANCH  36  38
ENDBRANCH  34  35
ENDBRANCH   4  34
BRANCH  10  44
ATOM     44  C   UNL     1     108.922 130.258 139.140  0.00  0.00    +0.000 C 
BRANCH  44  45
ATOM     45  C   UNL     1     109.007 130.404 139.947  0.00  0.00    +0.000 C 
ATOM     46  C   UNL     1     108.806 130.559 140.732  0.00  0.00    +0.000 C 
ATOM     47  C   UNL     1     109.398 130.637 141.302  0.00  0.00    +0.000 C 
ATOM     48  C   UNL     1     108.013 130.636 140.947  0.00  0.00    +0.000 C 
ENDBRANCH  44  45
ENDBRANCH  10  44
TORSDOF 11
ENDMDL
MODEL 3
REMARK VINA RESULT:      -9.0      2.300      3.592
REMARK  Name = 131836014
REMARK  11 active torsions:
REMARK  status: ('A' for Active; 'I' for Inactive)
REMARK    1  A    between atoms: O_3  and  C_17
REMARK    2  A    between atoms: O_3  and  C_24
REMARK    3  A    between atoms: C_15  and  C_21
REMARK    4  A    between atoms: C_18  and  C_25
REMARK    5  A    between atoms: C_19  and  C_29
REMARK    6  A    between atoms: C_21  and  C_30
REMARK    7  A    between atoms: C_26  and  C_31
REMARK    8  A    between atoms: C_31  and  C_36
REMARK    9  A    between atoms: C_34  and  C_35
REMARK   10  A    between atoms: C_35  and  C_41
REMARK   11  A    between atoms: C_41  and  C_43
REMARK                            x       y       z     vdW  Elec       q    Type
REMARK                         _______ _______ _______ _____ _____    ______ ____
ROOT
ATOM      1  O   UNL     1     112.317 128.438 138.352  0.00  0.00    +0.000 OA
ATOM      2  O   UNL     1     113.764 127.212 136.761  0.00  0.00    +0.000 OA
ATOM      3  O   UNL     1     113.896 128.385 135.933  0.00  0.00    +0.000 OA
ATOM      4  C   UNL     1     112.983 127.236 137.958  0.00  0.00    +0.000 C 
ATOM      5  C   UNL     1     112.501 127.645 138.488  0.00  0.00    +0.000 C 
ATOM      6  C   UNL     1     113.281 127.620 137.291  0.00  0.00    +0.000 C 
ATOM      7  C   UNL     1     113.098 128.413 137.155  0.00  0.00    +0.000 A 
ATOM      8  C   UNL     1     112.615 128.821 137.685  0.00  0.00    +0.000 A 
ATOM      9  C   UNL     1     112.725 130.053 136.862  0.00  0.00    +0.000 A 
ATOM     10  C   UNL     1     113.227 129.627 136.310  0.00  0.00    +0.000 A 
ATOM     11  C   UNL     1     113.415 128.801 136.458  0.00  0.00    +0.000 A 
ATOM     12  C   UNL     1     112.417 129.648 137.554  0.00  0.00    +0.000 A 
ENDROOT
BRANCH   5  15
ATOM     13  O   UNL     1     110.945 127.094 138.495  0.00  0.00    +0.000 OA
ATOM     14  O   UNL     1     111.307 126.109 141.154  0.00  0.00    +0.000 OA
ATOM     15  C   UNL     1     112.202 127.261 139.154  0.00  0.00    +0.000 A 
ATOM     16  C   UNL     1     111.425 126.986 139.158  0.00  0.00    +0.000 A 
ATOM     17  C   UNL     1     112.681 127.153 139.817  0.00  0.00    +0.000 A 
ATOM     18  C   UNL     1     111.126 126.602 139.824  0.00  0.00    +0.000 A 
ATOM     19  C   UNL     1     112.383 126.768 140.483  0.00  0.00    +0.000 A 
ATOM     20  C   UNL     1     111.605 126.493 140.487  0.00  0.00    +0.000 A 
ENDBRANCH   5  15
BRANCH   9  21
ATOM     21  O   UNL     1     112.540 130.845 136.728  0.00  0.00    +0.000 OA
BRANCH  21  29
ATOM     22  O   UNL     1     111.166 130.716 136.356  0.00  0.00    +0.000 OA
ATOM     23  O   UNL     1     110.592 132.638 137.805  0.00  0.00    +0.000 OA
ATOM     24  O   UNL     1     112.157 132.127 137.694  0.00  0.00    +0.000 OA
ATOM     25  O   UNL     1     109.411 131.868 136.950  0.00  0.00    +0.000 OA
ATOM     26  C   UNL     1     110.783 131.997 137.322  0.00  0.00    +0.000 C 
ATOM     27  C   UNL     1     111.566 131.742 137.267  0.00  0.00    +0.000 C 
ATOM     28  C   UNL     1     110.192 131.612 136.895  0.00  0.00    +0.000 C 
ATOM     29  C   UNL     1     111.758 131.101 136.783  0.00  0.00    +0.000 C 
ATOM     30  C   UNL     1     110.384 130.971 136.411  0.00  0.00    +0.000 C 
BRANCH  30  33
ATOM     31  O   UNL     1     109.315 130.024 136.354  0.00  0.00    +0.000 OA
ATOM     32  O   UNL     1     109.680 130.762 135.186  0.00  0.00    +0.000 OA
ATOM     33  C   UNL     1     109.793 130.586 135.984  0.00  0.00    +0.000 C 
ENDBRANCH  30  33
ENDBRANCH  21  29
ENDBRANCH   9  21
BRANCH   4  34
ATOM     34  C   UNL     1     113.167 126.443 138.094  0.00  0.00    +0.000 C 
BRANCH  34  35
ATOM     35  C   UNL     1     113.902 126.146 137.870  0.00  0.00    +0.000 C 
ATOM     36  C   UNL     1     113.987 125.345 137.693  0.00  0.00    +0.000 C 
ATOM     37  C   UNL     1     114.723 125.048 137.469  0.00  0.00    +0.000 C 
BRANCH  36  38
ATOM     38  C   UNL     1     113.336 124.841 137.740  0.00  0.00    +0.000 C 
BRANCH  38  39
ATOM     39  C   UNL     1     113.199 124.287 137.144  0.00  0.00    +0.000 C 
BRANCH  39  40
ATOM     40  C   UNL     1     112.763 123.606 137.305  0.00  0.00    +0.000 C 
ATOM     41  C   UNL     1     112.102 123.420 136.847  0.00  0.00    +0.000 C 
ATOM     42  C   UNL     1     111.666 122.739 137.010  0.00  0.00    +0.000 C 
ATOM     43  C   UNL     1     111.878 123.916 136.227  0.00  0.00    +0.000 C 
ENDBRANCH  39  40
ENDBRANCH  38  39
ENDBRANCH  36  38
ENDBRANCH  34  35
ENDBRANCH   4  34
BRANCH  10  44
ATOM     44  C   UNL     1     113.527 130.008 135.643  0.00  0.00    +0.000 C 
BRANCH  44  45
ATOM     45  C   UNL     1     114.306 130.280 135.638  0.00  0.00    +0.000 C 
ATOM     46  C   UNL     1     115.003 130.632 135.371  0.00  0.00    +0.000 C 
ATOM     47  C   UNL     1     115.665 130.660 135.860  0.00  0.00    +0.000 C 
ATOM     48  C   UNL     1     115.035 130.957 134.613  0.00  0.00    +0.000 C 
ENDBRANCH  44  45
ENDBRANCH  10  44
TORSDOF 11
ENDMDL
MODEL 4
REMARK VINA RESULT:      -9.0      7.737     10.785
REMARK  Name = 131836014
REMARK  11 active torsions:
REMARK  status: ('A' for Active; 'I' for Inactive)
REMARK    1  A    between atoms: O_3  and  C_17
REMARK    2  A    between atoms: O_3  and  C_24
REMARK    3  A    between atoms: C_15  and  C_21
REMARK    4  A    between atoms: C_18  and  C_25
REMARK    5  A    between atoms: C_19  and  C_29
REMARK    6  A    between atoms: C_21  and  C_30
REMARK    7  A    between atoms: C_26  and  C_31
REMARK    8  A    between atoms: C_31  and  C_36
REMARK    9  A    between atoms: C_34  and  C_35
REMARK   10  A    between atoms: C_35  and  C_41
REMARK   11  A    between atoms: C_41  and  C_43
REMARK                            x       y       z     vdW  Elec       q    Type
REMARK                         _______ _______ _______ _____ _____    ______ ____
ROOT
ATOM      1  O   UNL     1     105.676 126.230 144.965  0.00  0.00    +0.000 OA
ATOM      2  O   UNL     1     106.930 127.590 146.610  0.00  0.00    +0.000 OA
ATOM      3  O   UNL     1     106.676 126.620 147.648  0.00  0.00    +0.000 OA
ATOM      4  C   UNL     1     106.436 127.399 145.283  0.00  0.00    +0.000 C 
ATOM      5  C   UNL     1     106.018 126.945 144.735  0.00  0.00    +0.000 C 
ATOM      6  C   UNL     1     106.512 127.137 146.062  0.00  0.00    +0.000 C 
ATOM      7  C   UNL     1     106.170 126.422 146.292  0.00  0.00    +0.000 A 
ATOM      8  C   UNL     1     105.752 125.969 145.744  0.00  0.00    +0.000 A 
ATOM      9  C   UNL     1     105.468 124.945 146.782  0.00  0.00    +0.000 A 
ATOM     10  C   UNL     1     105.903 125.417 147.353  0.00  0.00    +0.000 A 
ATOM     11  C   UNL     1     106.257 126.161 147.106  0.00  0.00    +0.000 A 
ATOM     12  C   UNL     1     105.392 125.222 145.972  0.00  0.00    +0.000 A 
ENDROOT
BRANCH   5  15
ATOM     13  O   UNL     1     107.032 126.368 143.568  0.00  0.00    +0.000 OA
ATOM     14  O   UNL     1     105.713 127.991 141.620  0.00  0.00    +0.000 OA
ATOM     15  C   UNL     1     105.942 127.206 143.956  0.00  0.00    +0.000 A 
ATOM     16  C   UNL     1     106.449 126.918 143.373  0.00  0.00    +0.000 A 
ATOM     17  C   UNL     1     105.358 127.756 143.761  0.00  0.00    +0.000 A 
ATOM     18  C   UNL     1     106.373 127.180 142.594  0.00  0.00    +0.000 A 
ATOM     19  C   UNL     1     105.282 128.017 142.982  0.00  0.00    +0.000 A 
ATOM     20  C   UNL     1     105.790 127.729 142.399  0.00  0.00    +0.000 A 
ENDBRANCH   5  15
BRANCH   9  21
ATOM     21  O   UNL     1     105.125 124.230 147.009  0.00  0.00    +0.000 OA
BRANCH  21  29
ATOM     22  O   UNL     1     103.770 124.566 147.314  0.00  0.00    +0.000 OA
ATOM     23  O   UNL     1     102.985 122.820 145.746  0.00  0.00    +0.000 OA
ATOM     24  O   UNL     1     104.602 123.066 145.964  0.00  0.00    +0.000 OA
ATOM     25  O   UNL     1     101.892 123.738 146.573  0.00  0.00    +0.000 OA
ATOM     26  C   UNL     1     103.246 123.402 146.269  0.00  0.00    +0.000 C 
ATOM     27  C   UNL     1     104.055 123.525 146.377  0.00  0.00    +0.000 C 
ATOM     28  C   UNL     1     102.700 123.861 146.682  0.00  0.00    +0.000 C 
ATOM     29  C   UNL     1     104.317 124.107 146.900  0.00  0.00    +0.000 C 
ATOM     30  C   UNL     1     102.962 124.444 147.205  0.00  0.00    +0.000 C 
BRANCH  30  33
ATOM     31  O   UNL     1     102.157 124.664 148.364  0.00  0.00    +0.000 OA
ATOM     32  O   UNL     1     102.127 125.600 147.285  0.00  0.00    +0.000 OA
ATOM     33  C   UNL     1     102.416 124.902 147.618  0.00  0.00    +0.000 C 
ENDBRANCH  30  33
ENDBRANCH  21  29
ENDBRANCH   9  21
BRANCH   4  34
ATOM     34  C   UNL     1     106.778 128.113 145.053  0.00  0.00    +0.000 C 
BRANCH  34  35
ATOM     35  C   UNL     1     106.750 128.765 145.556  0.00  0.00    +0.000 C 
ATOM     36  C   UNL     1     107.257 129.404 145.433  0.00  0.00    +0.000 C 
ATOM     37  C   UNL     1     107.228 130.056 145.937  0.00  0.00    +0.000 C 
BRANCH  36  38
ATOM     38  C   UNL     1     107.792 129.391 144.805  0.00  0.00    +0.000 C 
BRANCH  38  39
ATOM     39  C   UNL     1     107.970 130.087 144.401  0.00  0.00    +0.000 C 
BRANCH  39  40
ATOM     40  C   UNL     1     108.640 130.125 143.920  0.00  0.00    +0.000 C 
ATOM     41  C   UNL     1     108.616 130.549 143.212  0.00  0.00    +0.000 C 
ATOM     42  C   UNL     1     109.285 130.586 142.732  0.00  0.00    +0.000 C 
ATOM     43  C   UNL     1     107.923 130.935 142.985  0.00  0.00    +0.000 C 
ENDBRANCH  39  40
ENDBRANCH  38  39
ENDBRANCH  36  38
ENDBRANCH  34  35
ENDBRANCH   4  34
BRANCH  10  44
ATOM     44  C   UNL     1     105.981 125.159 148.132  0.00  0.00    +0.000 C 
BRANCH  44  45
ATOM     45  C   UNL     1     106.710 124.886 148.406  0.00  0.00    +0.000 C 
ATOM     46  C   UNL     1     107.270 124.529 148.895  0.00  0.00    +0.000 C 
ATOM     47  C   UNL     1     108.063 124.508 148.668  0.00  0.00    +0.000 C 
ATOM     48  C   UNL     1     107.037 124.193 149.612  0.00  0.00    +0.000 C 
ENDBRANCH  44  45
ENDBRANCH  10  44
TORSDOF 11
ENDMDL
MODEL 5
REMARK VINA RESULT:      -9.0      1.588      2.215
REMARK  Name = 131836014
REMARK  11 active torsions:
REMARK  status: ('A' for Active; 'I' for Inactive)
REMARK    1  A    between atoms: O_3  and  C_17
REMARK    2  A    between atoms: O_3  and  C_24
REMARK    3  A    between atoms: C_15  and  C_21
REMARK    4  A    between atoms: C_18  and  C_25
REMARK    5  A    between atoms: C_19  and  C_29
REMARK    6  A    between atoms: C_21  and  C_30
REMARK    7  A    between atoms: C_26  and  C_31
REMARK    8  A    between atoms: C_31  and  C_36
REMARK    9  A    between atoms: C_34  and  C_35
REMARK   10  A    between atoms: C_35  and  C_41
REMARK   11  A    between atoms: C_41  and  C_43
REMARK                            x       y       z     vdW  Elec       q    Type
REMARK                         _______ _______ _______ _____ _____    ______ ____
ROOT
ATOM      1  O   UNL     1     111.475 128.865 139.890  0.00  0.00    +0.000 OA
ATOM      2  O   UNL     1     111.297 128.578 137.438  0.00  0.00    +0.000 OA
ATOM      3  O   UNL     1     110.115 129.404 137.399  0.00  0.00    +0.000 OA
ATOM      4  C   UNL     1     111.971 128.310 138.669  0.00  0.00    +0.000 C 
ATOM      5  C   UNL     1     112.030 128.406 139.487  0.00  0.00    +0.000 C 
ATOM      6  C   UNL     1     111.357 128.673 138.255  0.00  0.00    +0.000 C 
ATOM      7  C   UNL     1     110.802 129.132 138.658  0.00  0.00    +0.000 A 
ATOM      8  C   UNL     1     110.862 129.227 139.476  0.00  0.00    +0.000 A 
ATOM      9  C   UNL     1     109.647 130.083 139.481  0.00  0.00    +0.000 A 
ATOM     10  C   UNL     1     109.585 129.984 138.631  0.00  0.00    +0.000 A 
ATOM     11  C   UNL     1     110.167 129.505 138.216  0.00  0.00    +0.000 A 
ATOM     12  C   UNL     1     110.289 129.703 139.907  0.00  0.00    +0.000 A 
ENDROOT
BRANCH   5  15
ATOM     13  O   UNL     1     111.769 126.973 140.262  0.00  0.00    +0.000 OA
ATOM     14  O   UNL     1     114.488 126.954 141.142  0.00  0.00    +0.000 OA
ATOM     15  C   UNL     1     112.645 128.043 139.900  0.00  0.00    +0.000 A 
ATOM     16  C   UNL     1     112.514 127.326 140.288  0.00  0.00    +0.000 A 
ATOM     17  C   UNL     1     113.390 128.396 139.927  0.00  0.00    +0.000 A 
ATOM     18  C   UNL     1     113.129 126.963 140.702  0.00  0.00    +0.000 A 
ATOM     19  C   UNL     1     114.004 128.033 140.341  0.00  0.00    +0.000 A 
ATOM     20  C   UNL     1     113.874 127.317 140.728  0.00  0.00    +0.000 A 
ENDBRANCH   5  15
BRANCH   9  21
ATOM     21  O   UNL     1     109.094 130.541 139.887  0.00  0.00    +0.000 OA
BRANCH  21  29
ATOM     22  O   UNL     1     108.429 129.549 140.672  0.00  0.00    +0.000 OA
ATOM     23  O   UNL     1     108.657 130.983 142.677  0.00  0.00    +0.000 OA
ATOM     24  O   UNL     1     109.246 131.497 141.224  0.00  0.00    +0.000 OA
ATOM     25  O   UNL     1     107.917 129.514 142.793  0.00  0.00    +0.000 OA
ATOM     26  C   UNL     1     108.581 130.505 142.009  0.00  0.00    +0.000 C 
ATOM     27  C   UNL     1     108.876 130.762 141.282  0.00  0.00    +0.000 C 
ATOM     28  C   UNL     1     108.211 129.771 142.067  0.00  0.00    +0.000 C 
ATOM     29  C   UNL     1     108.800 130.284 140.613  0.00  0.00    +0.000 C 
ATOM     30  C   UNL     1     108.135 129.292 141.398  0.00  0.00    +0.000 C 
BRANCH  30  33
ATOM     31  O   UNL     1     106.959 128.487 141.292  0.00  0.00    +0.000 OA
ATOM     32  O   UNL     1     108.200 127.893 141.680  0.00  0.00    +0.000 OA
ATOM     33  C   UNL     1     107.765 128.558 141.457  0.00  0.00    +0.000 C 
ENDBRANCH  30  33
ENDBRANCH  21  29
ENDBRANCH   9  21
BRANCH   4  34
ATOM     34  C   UNL     1     112.526 127.852 138.265  0.00  0.00    +0.000 C 
BRANCH  34  35
ATOM     35  C   UNL     1     112.835 128.115 137.548  0.00  0.00    +0.000 C 
ATOM     36  C   UNL     1     113.198 127.581 137.035  0.00  0.00    +0.000 C 
ATOM     37  C   UNL     1     113.507 127.845 136.317  0.00  0.00    +0.000 C 
BRANCH  36  38
ATOM     38  C   UNL     1     113.253 126.784 137.239  0.00  0.00    +0.000 C 
BRANCH  38  39
ATOM     39  C   UNL     1     113.865 126.321 136.937  0.00  0.00    +0.000 C 
BRANCH  39  40
ATOM     40  C   UNL     1     114.071 125.614 137.309  0.00  0.00    +0.000 C 
ATOM     41  C   UNL     1     114.601 125.096 136.947  0.00  0.00    +0.000 C 
ATOM     42  C   UNL     1     114.806 124.390 137.319  0.00  0.00    +0.000 C 
ATOM     43  C   UNL     1     114.926 125.285 136.212  0.00  0.00    +0.000 C 
ENDBRANCH  39  40
ENDBRANCH  38  39
ENDBRANCH  36  38
ENDBRANCH  34  35
ENDBRANCH   4  34
BRANCH  10  44
ATOM     44  C   UNL     1     108.973 130.345 138.213  0.00  0.00    +0.000 C 
BRANCH  44  45
ATOM     45  C   UNL     1     109.094 131.076 137.851  0.00  0.00    +0.000 C 
ATOM     46  C   UNL     1     108.950 131.752 137.400  0.00  0.00    +0.000 C 
ATOM     47  C   UNL     1     109.531 132.332 137.329  0.00  0.00    +0.000 C 
ATOM     48  C   UNL     1     108.223 131.846 137.021  0.00  0.00    +0.000 C 
ENDBRANCH  44  45
ENDBRANCH  10  44
TORSDOF 11
ENDMDL
MODEL 6
REMARK VINA RESULT:      -8.9      2.358      5.671
REMARK  Name = 131836014
REMARK  11 active torsions:
REMARK  status: ('A' for Active; 'I' for Inactive)
REMARK    1  A    between atoms: O_3  and  C_17
REMARK    2  A    between atoms: O_3  and  C_24
REMARK    3  A    between atoms: C_15  and  C_21
REMARK    4  A    between atoms: C_18  and  C_25
REMARK    5  A    between atoms: C_19  and  C_29
REMARK    6  A    between atoms: C_21  and  C_30
REMARK    7  A    between atoms: C_26  and  C_31
REMARK    8  A    between atoms: C_31  and  C_36
REMARK    9  A    between atoms: C_34  and  C_35
REMARK   10  A    between atoms: C_35  and  C_41
REMARK   11  A    between atoms: C_41  and  C_43
REMARK                            x       y       z     vdW  Elec       q    Type
REMARK                         _______ _______ _______ _____ _____    ______ ____
ROOT
ATOM      1  O   UNL     1     111.885 131.077 138.309  0.00  0.00    +0.000 OA
ATOM      2  O   UNL     1     110.581 129.081 137.645  0.00  0.00    +0.000 OA
ATOM      3  O   UNL     1     111.398 128.234 138.479  0.00  0.00    +0.000 OA
ATOM      4  C   UNL     1     110.820 130.487 137.559  0.00  0.00    +0.000 C 
ATOM      5  C   UNL     1     111.255 131.152 137.781  0.00  0.00    +0.000 C 
ATOM      6  C   UNL     1     111.015 129.746 137.866  0.00  0.00    +0.000 C 
ATOM      7  C   UNL     1     111.644 129.671 138.394  0.00  0.00    +0.000 A 
ATOM      8  C   UNL     1     112.079 130.336 138.615  0.00  0.00    +0.000 A 
ATOM      9  C   UNL     1     112.945 129.502 139.487  0.00  0.00    +0.000 A 
ATOM     10  C   UNL     1     112.492 128.809 139.257  0.00  0.00    +0.000 A 
ATOM     11  C   UNL     1     111.837 128.894 138.706  0.00  0.00    +0.000 A 
ATOM     12  C   UNL     1     112.737 130.271 139.165  0.00  0.00    +0.000 A 
ENDROOT
BRANCH   5  15
ATOM     13  O   UNL     1     110.294 132.176 138.646  0.00  0.00    +0.000 OA
ATOM     14  O   UNL     1     110.475 134.115 136.554  0.00  0.00    +0.000 OA
ATOM     15  C   UNL     1     111.060 131.893 137.474  0.00  0.00    +0.000 A 
ATOM     16  C   UNL     1     110.579 132.405 137.907  0.00  0.00    +0.000 A 
ATOM     17  C   UNL     1     111.346 132.122 136.735  0.00  0.00    +0.000 A 
ATOM     18  C   UNL     1     110.384 133.146 137.600  0.00  0.00    +0.000 A 
ATOM     19  C   UNL     1     111.151 132.862 136.428  0.00  0.00    +0.000 A 
ATOM     20  C   UNL     1     110.670 133.374 136.861  0.00  0.00    +0.000 A 
ENDBRANCH   5  15
BRANCH   9  21
ATOM     21  O   UNL     1     113.575 129.429 140.015  0.00  0.00    +0.000 OA
BRANCH  21  29
ATOM     22  O   UNL     1     113.091 130.169 141.138  0.00  0.00    +0.000 OA
ATOM     23  O   UNL     1     115.245 131.381 141.267  0.00  0.00    +0.000 OA
ATOM     24  O   UNL     1     115.011 130.238 140.101  0.00  0.00    +0.000 OA
ATOM     25  O   UNL     1     114.044 131.716 142.346  0.00  0.00    +0.000 OA
ATOM     26  C   UNL     1     114.527 130.977 141.224  0.00  0.00    +0.000 C 
ATOM     27  C   UNL     1     114.410 130.405 140.640  0.00  0.00    +0.000 C 
ATOM     28  C   UNL     1     113.927 131.145 141.763  0.00  0.00    +0.000 C 
ATOM     29  C   UNL     1     113.692 130.001 140.597  0.00  0.00    +0.000 C 
ATOM     30  C   UNL     1     113.208 130.740 141.721  0.00  0.00    +0.000 C 
BRANCH  30  33
ATOM     31  O   UNL     1     112.161 131.597 142.180  0.00  0.00    +0.000 OA
ATOM     32  O   UNL     1     112.454 130.387 142.881  0.00  0.00    +0.000 OA
ATOM     33  C   UNL     1     112.608 130.908 142.260  0.00  0.00    +0.000 C 
ENDBRANCH  30  33
ENDBRANCH  21  29
ENDBRANCH   9  21
BRANCH   4  34
ATOM     34  C   UNL     1     110.191 130.562 137.031  0.00  0.00    +0.000 C 
BRANCH  34  35
ATOM     35  C   UNL     1     110.080 130.000 136.438  0.00  0.00    +0.000 C 
ATOM     36  C   UNL     1     109.359 129.956 136.041  0.00  0.00    +0.000 C 
ATOM     37  C   UNL     1     109.249 129.394 135.447  0.00  0.00    +0.000 C 
BRANCH  36  38
ATOM     38  C   UNL     1     108.747 130.474 136.237  0.00  0.00    +0.000 C 
BRANCH  38  39
ATOM     39  C   UNL     1     108.284 130.810 135.642  0.00  0.00    +0.000 C 
BRANCH  39  40
ATOM     40  C   UNL     1     107.561 131.159 135.830  0.00  0.00    +0.000 C 
ATOM     41  C   UNL     1     107.288 131.804 135.394  0.00  0.00    +0.000 C 
ATOM     42  C   UNL     1     106.565 132.152 135.583  0.00  0.00    +0.000 C 
ATOM     43  C   UNL     1     107.740 132.101 134.771  0.00  0.00    +0.000 C 
ENDBRANCH  39  40
ENDBRANCH  38  39
ENDBRANCH  36  38
ENDBRANCH  34  35
ENDBRANCH   4  34
BRANCH  10  44
ATOM     44  C   UNL     1     112.684 128.067 139.561  0.00  0.00    +0.000 C 
BRANCH  44  45
ATOM     45  C   UNL     1     113.075 127.515 139.089  0.00  0.00    +0.000 C 
ATOM     46  C   UNL     1     113.486 126.834 138.871  0.00  0.00    +0.000 C 
ATOM     47  C   UNL     1     113.704 126.717 138.084  0.00  0.00    +0.000 C 
ATOM     48  C   UNL     1     113.680 126.269 139.441  0.00  0.00    +0.000 C 
ENDBRANCH  44  45
ENDBRANCH  10  44
TORSDOF 11
ENDMDL
MODEL 7
REMARK VINA RESULT:      -8.9      2.688      5.843
REMARK  Name = 131836014
REMARK  11 active torsions:
REMARK  status: ('A' for Active; 'I' for Inactive)
REMARK    1  A    between atoms: O_3  and  C_17
REMARK    2  A    between atoms: O_3  and  C_24
REMARK    3  A    between atoms: C_15  and  C_21
REMARK    4  A    between atoms: C_18  and  C_25
REMARK    5  A    between atoms: C_19  and  C_29
REMARK    6  A    between atoms: C_21  and  C_30
REMARK    7  A    between atoms: C_26  and  C_31
REMARK    8  A    between atoms: C_31  and  C_36
REMARK    9  A    between atoms: C_34  and  C_35
REMARK   10  A    between atoms: C_35  and  C_41
REMARK   11  A    between atoms: C_41  and  C_43
REMARK                            x       y       z     vdW  Elec       q    Type
REMARK                         _______ _______ _______ _____ _____    ______ ____
ROOT
ATOM      1  O   UNL     1     111.075 127.429 139.071  0.00  0.00    +0.000 OA
ATOM      2  O   UNL     1     112.971 128.899 139.680  0.00  0.00    +0.000 OA
ATOM      3  O   UNL     1     113.545 128.750 138.366  0.00  0.00    +0.000 OA
ATOM      4  C   UNL     1     111.749 128.246 140.031  0.00  0.00    +0.000 C 
ATOM      5  C   UNL     1     111.117 127.756 139.827  0.00  0.00    +0.000 C 
ATOM      6  C   UNL     1     112.339 128.409 139.477  0.00  0.00    +0.000 C 
ATOM      7  C   UNL     1     112.297 128.082 138.721  0.00  0.00    +0.000 A 
ATOM      8  C   UNL     1     111.665 127.592 138.518  0.00  0.00    +0.000 A 
ATOM      9  C   UNL     1     112.222 127.411 137.153  0.00  0.00    +0.000 A 
ATOM     10  C   UNL     1     112.879 127.921 137.364  0.00  0.00    +0.000 A 
ATOM     11  C   UNL     1     112.917 128.259 138.154  0.00  0.00    +0.000 A 
ATOM     12  C   UNL     1     111.610 127.245 137.733  0.00  0.00    +0.000 A 
ENDROOT
BRANCH   5  15
ATOM     13  O   UNL     1     111.151 126.343 140.678  0.00  0.00    +0.000 OA
ATOM     14  O   UNL     1     108.757 127.105 142.040  0.00  0.00    +0.000 OA
ATOM     15  C   UNL     1     110.527 127.593 140.380  0.00  0.00    +0.000 A 
ATOM     16  C   UNL     1     110.544 126.887 140.806  0.00  0.00    +0.000 A 
ATOM     17  C   UNL     1     109.920 128.137 140.508  0.00  0.00    +0.000 A 
ATOM     18  C   UNL     1     109.954 126.724 141.359  0.00  0.00    +0.000 A 
ATOM     19  C   UNL     1     109.330 127.974 141.062  0.00  0.00    +0.000 A 
ATOM     20  C   UNL     1     109.347 127.268 141.487  0.00  0.00    +0.000 A 
ENDBRANCH   5  15
BRANCH   9  21
ATOM     21  O   UNL     1     112.177 127.083 136.398  0.00  0.00    +0.000 OA
BRANCH  21  29
ATOM     22  O   UNL     1     112.443 125.706 136.674  0.00  0.00    +0.000 OA
ATOM     23  O   UNL     1     110.497 125.053 135.291  0.00  0.00    +0.000 OA
ATOM     24  O   UNL     1     110.880 126.648 135.476  0.00  0.00    +0.000 OA
ATOM     25  O   UNL     1     111.411 123.895 136.028  0.00  0.00    +0.000 OA
ATOM     26  C   UNL     1     111.145 125.271 135.752  0.00  0.00    +0.000 C 
ATOM     27  C   UNL     1     111.336 126.068 135.844  0.00  0.00    +0.000 C 
ATOM     28  C   UNL     1     111.602 124.692 136.120  0.00  0.00    +0.000 C 
ATOM     29  C   UNL     1     111.986 126.286 136.306  0.00  0.00    +0.000 C 
ATOM     30  C   UNL     1     112.252 124.910 136.581  0.00  0.00    +0.000 C 
BRANCH  30  33
ATOM     31  O   UNL     1     112.452 123.988 137.655  0.00  0.00    +0.000 OA
ATOM     32  O   UNL     1     113.423 124.093 136.612  0.00  0.00    +0.000 OA
ATOM     33  C   UNL     1     112.709 124.330 136.949  0.00  0.00    +0.000 C 
ENDBRANCH  30  33
ENDBRANCH  21  29
ENDBRANCH   9  21
BRANCH   4  34
ATOM     34  C   UNL     1     111.791 128.574 140.787  0.00  0.00    +0.000 C 
BRANCH  34  35
ATOM     35  C   UNL     1     112.132 129.315 140.897  0.00  0.00    +0.000 C 
ATOM     36  C   UNL     1     112.286 129.590 141.660  0.00  0.00    +0.000 C 
ATOM     37  C   UNL     1     112.629 130.332 141.769  0.00  0.00    +0.000 C 
BRANCH  36  38
ATOM     38  C   UNL     1     112.098 129.122 142.313  0.00  0.00    +0.000 C 
BRANCH  38  39
ATOM     39  C   UNL     1     111.973 129.472 143.049  0.00  0.00    +0.000 C 
BRANCH  39  40
ATOM     40  C   UNL     1     111.917 129.003 143.725  0.00  0.00    +0.000 C 
ATOM     41  C   UNL     1     111.611 129.319 144.423  0.00  0.00    +0.000 C 
ATOM     42  C   UNL     1     111.556 128.849 145.098  0.00  0.00    +0.000 C 
ATOM     43  C   UNL     1     111.361 130.105 144.445  0.00  0.00    +0.000 C 
ENDBRANCH  39  40
ENDBRANCH  38  39
ENDBRANCH  36  38
ENDBRANCH  34  35
ENDBRANCH   4  34
BRANCH  10  44
ATOM     44  C   UNL     1     113.471 128.087 136.814  0.00  0.00    +0.000 C 
BRANCH  44  45
ATOM     45  C   UNL     1     113.446 128.786 136.378  0.00  0.00    +0.000 C 
ATOM     46  C   UNL     1     113.654 129.365 135.827  0.00  0.00    +0.000 C 
ATOM     47  C   UNL     1     113.200 130.050 135.758  0.00  0.00    +0.000 C 
ATOM     48  C   UNL     1     114.316 129.257 135.347  0.00  0.00    +0.000 C 
ENDBRANCH  44  45
ENDBRANCH  10  44
TORSDOF 11
ENDMDL
MODEL 8
REMARK VINA RESULT:      -8.9      6.400      9.916
REMARK  Name = 131836014
REMARK  11 active torsions:
REMARK  status: ('A' for Active; 'I' for Inactive)
REMARK    1  A    between atoms: O_3  and  C_17
REMARK    2  A    between atoms: O_3  and  C_24
REMARK    3  A    between atoms: C_15  and  C_21
REMARK    4  A    between atoms: C_18  and  C_25
REMARK    5  A    between atoms: C_19  and  C_29
REMARK    6  A    between atoms: C_21  and  C_30
REMARK    7  A    between atoms: C_26  and  C_31
REMARK    8  A    between atoms: C_31  and  C_36
REMARK    9  A    between atoms: C_34  and  C_35
REMARK   10  A    between atoms: C_35  and  C_41
REMARK   11  A    between atoms: C_41  and  C_43
REMARK                            x       y       z     vdW  Elec       q    Type
REMARK                         _______ _______ _______ _____ _____    ______ ____
ROOT
ATOM      1  O   UNL     1     105.100 128.656 143.871  0.00  0.00    +0.000 OA
ATOM      2  O   UNL     1     104.438 128.251 141.520  0.00  0.00    +0.000 OA
ATOM      3  O   UNL     1     105.102 126.970 141.525  0.00  0.00    +0.000 OA
ATOM      4  C   UNL     1     104.436 129.086 142.680  0.00  0.00    +0.000 C 
ATOM      5  C   UNL     1     104.657 129.221 143.464  0.00  0.00    +0.000 C 
ATOM      6  C   UNL     1     104.658 128.386 142.304  0.00  0.00    +0.000 C 
ATOM      7  C   UNL     1     105.101 127.822 142.711  0.00  0.00    +0.000 A 
ATOM      8  C   UNL     1     105.322 127.957 143.494  0.00  0.00    +0.000 A 
ATOM      9  C   UNL     1     106.018 126.646 143.542  0.00  0.00    +0.000 A 
ATOM     10  C   UNL     1     105.789 126.505 142.727  0.00  0.00    +0.000 A 
ATOM     11  C   UNL     1     105.327 127.097 142.308  0.00  0.00    +0.000 A 
ATOM     12  C   UNL     1     105.783 127.376 143.929  0.00  0.00    +0.000 A 
ENDROOT
BRANCH   5  15
ATOM     13  O   UNL     1     105.729 130.468 143.587  0.00  0.00    +0.000 OA
ATOM     14  O   UNL     1     103.766 132.020 144.968  0.00  0.00    +0.000 OA
ATOM     15  C   UNL     1     104.434 129.920 143.840  0.00  0.00    +0.000 A 
ATOM     16  C   UNL     1     104.970 130.544 143.901  0.00  0.00    +0.000 A 
ATOM     17  C   UNL     1     103.675 129.996 144.155  0.00  0.00    +0.000 A 
ATOM     18  C   UNL     1     104.748 131.244 144.278  0.00  0.00    +0.000 A 
ATOM     19  C   UNL     1     103.453 130.696 144.531  0.00  0.00    +0.000 A 
ATOM     20  C   UNL     1     103.989 131.320 144.592  0.00  0.00    +0.000 A 
ENDBRANCH   5  15
BRANCH   9  21
ATOM     21  O   UNL     1     106.461 126.083 143.952  0.00  0.00    +0.000 OA
BRANCH  21  29
ATOM     22  O   UNL     1     105.507 125.343 144.717  0.00  0.00    +0.000 OA
ATOM     23  O   UNL     1     106.769 125.853 146.784  0.00  0.00    +0.000 OA
ATOM     24  O   UNL     1     107.302 126.423 145.330  0.00  0.00    +0.000 OA
ATOM     25  O   UNL     1     105.396 124.943 146.859  0.00  0.00    +0.000 OA
ATOM     26  C   UNL     1     106.349 125.683 146.095  0.00  0.00    +0.000 C 
ATOM     27  C   UNL     1     106.616 125.969 145.368  0.00  0.00    +0.000 C 
ATOM     28  C   UNL     1     105.662 125.228 146.133  0.00  0.00    +0.000 C 
ATOM     29  C   UNL     1     106.195 125.798 144.678  0.00  0.00    +0.000 C 
ATOM     30  C   UNL     1     105.241 125.058 145.443  0.00  0.00    +0.000 C 
BRANCH  30  33
ATOM     31  O   UNL     1     104.565 123.817 145.228  0.00  0.00    +0.000 OA
ATOM     32  O   UNL     1     103.857 124.933 145.772  0.00  0.00    +0.000 OA
ATOM     33  C   UNL     1     104.555 124.603 145.481  0.00  0.00    +0.000 C 
ENDBRANCH  30  33
ENDBRANCH  21  29
ENDBRANCH   9  21
BRANCH   4  34
ATOM     34  C   UNL     1     103.993 129.650 142.273  0.00  0.00    +0.000 C 
BRANCH  34  35
ATOM     35  C   UNL     1     103.440 129.413 141.710  0.00  0.00    +0.000 C 
ATOM     36  C   UNL     1     103.098 129.970 141.206  0.00  0.00    +0.000 C 
ATOM     37  C   UNL     1     102.544 129.732 140.643  0.00  0.00    +0.000 C 
BRANCH  36  38
ATOM     38  C   UNL     1     103.310 130.765 141.265  0.00  0.00    +0.000 C 
BRANCH  38  39
ATOM     39  C   UNL     1     102.756 131.353 141.102  0.00  0.00    +0.000 C 
BRANCH  39  40
ATOM     40  C   UNL     1     102.999 132.137 141.016  0.00  0.00    +0.000 C 
ATOM     41  C   UNL     1     102.525 132.750 141.300  0.00  0.00    +0.000 C 
ATOM     42  C   UNL     1     102.768 133.533 141.214  0.00  0.00    +0.000 C 
ATOM     43  C   UNL     1     101.808 132.579 141.671  0.00  0.00    +0.000 C 
ENDBRANCH  39  40
ENDBRANCH  38  39
ENDBRANCH  36  38
ENDBRANCH  34  35
ENDBRANCH   4  34
BRANCH  10  44
ATOM     44  C   UNL     1     106.009 125.807 142.347  0.00  0.00    +0.000 C 
BRANCH  44  45
ATOM     45  C   UNL     1     106.688 125.787 141.880  0.00  0.00    +0.000 C 
ATOM     46  C   UNL     1     107.271 125.503 141.369  0.00  0.00    +0.000 C 
ATOM     47  C   UNL     1     107.897 125.989 141.146  0.00  0.00    +0.000 C 
ATOM     48  C   UNL     1     107.225 124.730 141.082  0.00  0.00    +0.000 C 
ENDBRANCH  44  45
ENDBRANCH  10  44
TORSDOF 11
ENDMDL
MODEL 9
REMARK VINA RESULT:      -8.9      2.204      4.090
REMARK  Name = 131836014
REMARK  11 active torsions:
REMARK  status: ('A' for Active; 'I' for Inactive)
REMARK    1  A    between atoms: O_3  and  C_17
REMARK    2  A    between atoms: O_3  and  C_24
REMARK    3  A    between atoms: C_15  and  C_21
REMARK    4  A    between atoms: C_18  and  C_25
REMARK    5  A    between atoms: C_19  and  C_29
REMARK    6  A    between atoms: C_21  and  C_30
REMARK    7  A    between atoms: C_26  and  C_31
REMARK    8  A    between atoms: C_31  and  C_36
REMARK    9  A    between atoms: C_34  and  C_35
REMARK   10  A    between atoms: C_35  and  C_41
REMARK   11  A    between atoms: C_41  and  C_43
REMARK                            x       y       z     vdW  Elec       q    Type
REMARK                         _______ _______ _______ _____ _____    ______ ____
ROOT
ATOM      1  O   UNL     1     110.425 127.527 138.761  0.00  0.00    +0.000 OA
ATOM      2  O   UNL     1     110.596 125.069 139.003  0.00  0.00    +0.000 OA
ATOM      3  O   UNL     1     109.649 125.082 140.091  0.00  0.00    +0.000 OA
ATOM      4  C   UNL     1     110.981 126.277 138.344  0.00  0.00    +0.000 C 
ATOM      5  C   UNL     1     110.924 127.096 138.264  0.00  0.00    +0.000 C 
ATOM      6  C   UNL     1     110.539 125.888 138.922  0.00  0.00    +0.000 C 
ATOM      7  C   UNL     1     110.041 126.318 139.420  0.00  0.00    +0.000 A 
ATOM      8  C   UNL     1     109.984 127.137 139.339  0.00  0.00    +0.000 A 
ATOM      9  C   UNL     1     109.006 127.196 140.455  0.00  0.00    +0.000 A 
ATOM     10  C   UNL     1     109.065 126.344 140.539  0.00  0.00    +0.000 A 
ATOM     11  C   UNL     1     109.587 125.901 140.018  0.00  0.00    +0.000 A 
ATOM     12  C   UNL     1     109.469 127.597 139.851  0.00  0.00    +0.000 A 
ENDROOT
BRANCH   5  15
ATOM     13  O   UNL     1     112.321 127.871 138.675  0.00  0.00    +0.000 OA
ATOM     14  O   UNL     1     112.690 128.652 135.950  0.00  0.00    +0.000 OA
ATOM     15  C   UNL     1     111.365 127.485 137.685  0.00  0.00    +0.000 A 
ATOM     16  C   UNL     1     112.064 127.873 137.891  0.00  0.00    +0.000 A 
ATOM     17  C   UNL     1     111.108 127.487 136.901  0.00  0.00    +0.000 A 
ATOM     18  C   UNL     1     112.506 128.262 137.312  0.00  0.00    +0.000 A 
ATOM     19  C   UNL     1     111.550 127.876 136.323  0.00  0.00    +0.000 A 
ATOM     20  C   UNL     1     112.249 128.263 136.529  0.00  0.00    +0.000 A 
ENDBRANCH   5  15
BRANCH   9  21
ATOM     21  O   UNL     1     108.509 127.629 140.951  0.00  0.00    +0.000 OA
BRANCH  21  29
ATOM     22  O   UNL     1     109.473 128.271 141.788  0.00  0.00    +0.000 OA
ATOM     23  O   UNL     1     108.266 130.417 141.533  0.00  0.00    +0.000 OA
ATOM     24  O   UNL     1     107.704 129.059 140.781  0.00  0.00    +0.000 OA
ATOM     25  O   UNL     1     109.632 130.343 142.454  0.00  0.00    +0.000 OA
ATOM     26  C   UNL     1     108.669 129.701 141.618  0.00  0.00    +0.000 C 
ATOM     27  C   UNL     1     108.387 129.023 141.242  0.00  0.00    +0.000 C 
ATOM     28  C   UNL     1     109.351 129.665 142.079  0.00  0.00    +0.000 C 
ATOM     29  C   UNL     1     108.790 128.307 141.327  0.00  0.00    +0.000 C 
ATOM     30  C   UNL     1     109.754 128.949 142.164  0.00  0.00    +0.000 C 
BRANCH  30  33
ATOM     31  O   UNL     1     110.396 128.645 143.404  0.00  0.00    +0.000 OA
ATOM     32  O   UNL     1     111.162 129.143 142.306  0.00  0.00    +0.000 OA
ATOM     33  C   UNL     1     110.437 128.912 142.624  0.00  0.00    +0.000 C 
ENDBRANCH  30  33
ENDBRANCH  21  29
ENDBRANCH   9  21
BRANCH   4  34
ATOM     34  C   UNL     1     111.479 125.847 137.846  0.00  0.00    +0.000 C 
BRANCH  34  35
ATOM     35  C   UNL     1     111.381 125.032 137.768  0.00  0.00    +0.000 C 
ATOM     36  C   UNL     1     111.923 124.591 137.330  0.00  0.00    +0.000 C 
ATOM     37  C   UNL     1     111.824 123.776 137.252  0.00  0.00    +0.000 C 
BRANCH  36  38
ATOM     38  C   UNL     1     112.563 124.966 136.968  0.00  0.00    +0.000 C 
BRANCH  38  39
ATOM     39  C   UNL     1     113.297 124.589 136.936  0.00  0.00    +0.000 C 
BRANCH  39  40
ATOM     40  C   UNL     1     113.863 124.835 136.389  0.00  0.00    +0.000 C 
ATOM     41  C   UNL     1     114.645 124.948 136.627  0.00  0.00    +0.000 C 
ATOM     42  C   UNL     1     115.210 125.194 136.079  0.00  0.00    +0.000 C 
ATOM     43  C   UNL     1     114.860 124.815 137.412  0.00  0.00    +0.000 C 
ENDBRANCH  39  40
ENDBRANCH  38  39
ENDBRANCH  36  38
ENDBRANCH  34  35
ENDBRANCH   4  34
BRANCH  10  44
ATOM     44  C   UNL     1     108.626 125.951 141.116  0.00  0.00    +0.000 C 
BRANCH  44  45
ATOM     45  C   UNL     1     107.915 125.584 140.915  0.00  0.00    +0.000 C 
ATOM     46  C   UNL     1     107.201 125.178 140.997  0.00  0.00    +0.000 C 
ATOM     47  C   UNL     1     106.744 125.009 140.333  0.00  0.00    +0.000 C 
ATOM     48  C   UNL     1     106.945 124.943 141.746  0.00  0.00    +0.000 C 
ENDBRANCH  44  45
ENDBRANCH  10  44
TORSDOF 11
ENDMDL
MODEL 10
REMARK VINA RESULT:      -8.9      1.525      2.261
REMARK  Name = 131836014
REMARK  11 active torsions:
REMARK  status: ('A' for Active; 'I' for Inactive)
REMARK    1  A    between atoms: O_3  and  C_17
REMARK    2  A    between atoms: O_3  and  C_24
REMARK    3  A    between atoms: C_15  and  C_21
REMARK    4  A    between atoms: C_18  and  C_25
REMARK    5  A    between atoms: C_19  and  C_29
REMARK    6  A    between atoms: C_21  and  C_30
REMARK    7  A    between atoms: C_26  and  C_31
REMARK    8  A    between atoms: C_31  and  C_36
REMARK    9  A    between atoms: C_34  and  C_35
REMARK   10  A    between atoms: C_35  and  C_41
REMARK   11  A    between atoms: C_41  and  C_43
REMARK                            x       y       z     vdW  Elec       q    Type
REMARK                         _______ _______ _______ _____ _____    ______ ____
ROOT
ATOM      1  O   UNL     1     111.268 128.505 138.235  0.00  0.00    +0.000 OA
ATOM      2  O   UNL     1     109.928 127.643 136.340  0.00  0.00    +0.000 OA
ATOM      3  O   UNL     1     109.077 128.807 136.376  0.00  0.00    +0.000 OA
ATOM      4  C   UNL     1     111.012 127.492 137.259  0.00  0.00    +0.000 C 
ATOM      5  C   UNL     1     111.459 127.780 137.891  0.00  0.00    +0.000 C 
ATOM      6  C   UNL     1     110.375 127.930 136.971  0.00  0.00    +0.000 C 
ATOM      7  C   UNL     1     110.184 128.655 137.316  0.00  0.00    +0.000 A 
ATOM      8  C   UNL     1     110.630 128.942 137.947  0.00  0.00    +0.000 A 
ATOM      9  C   UNL     1     109.778 130.157 138.019  0.00  0.00    +0.000 A 
ATOM     10  C   UNL     1     109.314 129.858 137.362  0.00  0.00    +0.000 A 
ATOM     11  C   UNL     1     109.518 129.101 137.007  0.00  0.00    +0.000 A 
ATOM     12  C   UNL     1     110.441 129.697 138.314  0.00  0.00    +0.000 A 
ENDROOT
BRANCH   5  15
ATOM     13  O   UNL     1     111.278 126.847 139.239  0.00  0.00    +0.000 OA
ATOM     14  O   UNL     1     114.009 126.028 139.040  0.00  0.00    +0.000 OA
ATOM     15  C   UNL     1     112.096 127.342 138.178  0.00  0.00    +0.000 A 
ATOM     16  C   UNL     1     112.006 126.876 138.852  0.00  0.00    +0.000 A 
ATOM     17  C   UNL     1     112.824 127.371 137.791  0.00  0.00    +0.000 A 
ATOM     18  C   UNL     1     112.643 126.438 139.140  0.00  0.00    +0.000 A 
ATOM     19  C   UNL     1     113.462 126.933 138.078  0.00  0.00    +0.000 A 
ATOM     20  C   UNL     1     113.371 126.466 138.752  0.00  0.00    +0.000 A 
ENDBRANCH   5  15
BRANCH   9  21
ATOM     21  O   UNL     1     109.590 130.882 138.365  0.00  0.00    +0.000 OA
BRANCH  21  29
ATOM     22  O   UNL     1     108.946 130.521 139.588  0.00  0.00    +0.000 OA
ATOM     23  O   UNL     1     110.510 131.973 140.840  0.00  0.00    +0.000 OA
ATOM     24  O   UNL     1     110.633 131.850 139.199  0.00  0.00    +0.000 OA
ATOM     25  O   UNL     1     109.345 131.129 141.646  0.00  0.00    +0.000 OA
ATOM     26  C   UNL     1     109.989 131.489 140.423  0.00  0.00    +0.000 C 
ATOM     27  C   UNL     1     110.051 131.428 139.602  0.00  0.00    +0.000 C 
ATOM     28  C   UNL     1     109.406 131.067 140.826  0.00  0.00    +0.000 C 
ATOM     29  C   UNL     1     109.528 130.943 139.185  0.00  0.00    +0.000 C 
ATOM     30  C   UNL     1     108.884 130.582 140.408  0.00  0.00    +0.000 C 
BRANCH  30  33
ATOM     31  O   UNL     1     107.537 130.464 140.870  0.00  0.00    +0.000 OA
ATOM     32  O   UNL     1     108.484 129.434 141.156  0.00  0.00    +0.000 OA
ATOM     33  C   UNL     1     108.302 130.160 140.811  0.00  0.00    +0.000 C 
ENDBRANCH  30  33
ENDBRANCH  21  29
ENDBRANCH   9  21
BRANCH   4  34
ATOM     34  C   UNL     1     111.203 126.767 136.915  0.00  0.00    +0.000 C 
BRANCH  34  35
ATOM     35  C   UNL     1     111.070 126.644 136.111  0.00  0.00    +0.000 C 
ATOM     36  C   UNL     1     111.018 125.876 135.813  0.00  0.00    +0.000 C 
ATOM     37  C   UNL     1     110.884 125.754 135.009  0.00  0.00    +0.000 C 
BRANCH  36  38
ATOM     38  C   UNL     1     111.100 125.231 136.321  0.00  0.00    +0.000 C 
BRANCH  38  39
ATOM     39  C   UNL     1     111.564 124.587 136.098  0.00  0.00    +0.000 C 
BRANCH  39  40
ATOM     40  C   UNL     1     111.532 123.885 136.531  0.00  0.00    +0.000 C 
ATOM     41  C   UNL     1     112.228 123.479 136.709  0.00  0.00    +0.000 C 
ATOM     42  C   UNL     1     112.196 122.778 137.143  0.00  0.00    +0.000 C 
ATOM     43  C   UNL     1     112.955 123.774 136.454  0.00  0.00    +0.000 C 
ENDBRANCH  39  40
ENDBRANCH  38  39
ENDBRANCH  36  38
ENDBRANCH  34  35
ENDBRANCH   4  34
BRANCH  10  44
ATOM     44  C   UNL     1     108.675 130.293 137.071  0.00  0.00    +0.000 C 
BRANCH  44  45
ATOM     45  C   UNL     1     108.773 130.779 136.413  0.00  0.00    +0.000 C 
ATOM     46  C   UNL     1     108.598 131.326 135.819  0.00  0.00    +0.000 C 
ATOM     47  C   UNL     1     109.173 131.532 135.266  0.00  0.00    +0.000 C 
ATOM     48  C   UNL     1     107.846 131.665 135.781  0.00  0.00    +0.000 C 
ENDBRANCH  44  45
ENDBRANCH  10  44
TORSDOF 11
ENDMDL
