MODEL 1
REMARK VINA RESULT:      -9.8      0.000      0.000
REMARK  Name = 44258878
REMARK  11 active torsions:
REMARK  status: ('A' for Active; 'I' for Inactive)
REMARK    1  A    between atoms: O_3  and  C_26
REMARK    2  A    between atoms: O_3  and  C_32
REMARK    3  A    between atoms: O_7  and  C_29
REMARK    4  A    between atoms: O_7  and  C_33
REMARK    5  A    between atoms: O_11  and  C_30
REMARK    6  A    between atoms: O_11  and  C_41
REMARK    7  A    between atoms: C_22  and  C_30
REMARK    8  A    between atoms: C_28  and  C_31
REMARK    9  A    between atoms: C_36  and  C_42
REMARK   10  A    between atoms: C_41  and  C_43
REMARK   11  A    between atoms: C_43  and  C_48
REMARK                            x       y       z     vdW  Elec       q    Type
REMARK                         _______ _______ _______ _____ _____    ______ ____
ROOT
ATOM      1  O   UNL     1     113.535 126.255 138.655  0.00  0.00    +0.000 OA
ATOM      2  O   UNL     1     111.130 125.824 138.252  0.00  0.00    +0.000 OA
ATOM      3  O   UNL     1     110.782 126.419 139.520  0.00  0.00    +0.000 OA
ATOM      4  C   UNL     1     112.491 125.742 137.823  0.00  0.00    +0.000 A 
ATOM      5  C   UNL     1     112.662 127.101 140.530  0.00  0.00    +0.000 A 
ATOM      6  C   UNL     1     112.174 126.337 139.084  0.00  0.00    +0.000 A 
ATOM      7  C   UNL     1     111.932 125.968 138.387  0.00  0.00    +0.000 A 
ATOM      8  C   UNL     1     113.293 125.886 137.958  0.00  0.00    +0.000 A 
ATOM      9  C   UNL     1     112.975 126.480 139.217  0.00  0.00    +0.000 A 
ATOM     10  C   UNL     1     113.239 126.864 139.939  0.00  0.00    +0.000 A 
ATOM     11  C   UNL     1     111.827 126.952 140.390  0.00  0.00    +0.000 A 
ATOM     12  C   UNL     1     111.582 126.567 139.662  0.00  0.00    +0.000 A 
ENDROOT
BRANCH   8  14
ATOM     13  O   UNL     1     115.528 124.980 135.705  0.00  0.00    +0.000 OA
ATOM     14  C   UNL     1     113.851 125.660 137.394  0.00  0.00    +0.000 A 
ATOM     15  C   UNL     1     114.182 126.224 136.891  0.00  0.00    +0.000 A 
ATOM     16  C   UNL     1     114.079 124.869 137.334  0.00  0.00    +0.000 A 
ATOM     17  C   UNL     1     114.741 125.997 136.328  0.00  0.00    +0.000 A 
ATOM     18  C   UNL     1     114.638 124.643 136.771  0.00  0.00    +0.000 A 
ATOM     19  C   UNL     1     114.969 125.207 136.268  0.00  0.00    +0.000 A 
ENDBRANCH   8  14
BRANCH   4  20
ATOM     20  O   UNL     1     112.249 125.373 137.126  0.00  0.00    +0.000 OA
BRANCH  20  29
ATOM     21  O   UNL     1     111.727 126.578 136.563  0.00  0.00    +0.000 OA
ATOM     22  O   UNL     1     110.145 126.901 135.095  0.00  0.00    +0.000 OA
ATOM     23  O   UNL     1     110.137 125.255 135.205  0.00  0.00    +0.000 OA
ATOM     24  O   UNL     1     111.189 124.491 136.220  0.00  0.00    +0.000 OA
ATOM     25  C   UNL     1     110.671 126.519 135.603  0.00  0.00    +0.000 C 
ATOM     26  C   UNL     1     110.667 125.696 135.657  0.00  0.00    +0.000 C 
ATOM     27  C   UNL     1     111.201 126.960 136.056  0.00  0.00    +0.000 C 
ATOM     28  C   UNL     1     111.193 125.314 136.166  0.00  0.00    +0.000 C 
ATOM     29  C   UNL     1     111.723 125.755 136.619  0.00  0.00    +0.000 C 
BRANCH  27  30
ATOM     30  C   UNL     1     111.205 127.783 136.000  0.00  0.00    +0.000 C 
BRANCH  30  31
ATOM     31  O   UNL     1     111.917 128.197 136.040  0.00  0.00    +0.000 OA
BRANCH  31  33
ATOM     32  O   UNL     1     111.598 129.483 135.505  0.00  0.00    +0.000 OA
ATOM     33  C   UNL     1     111.914 129.019 136.110  0.00  0.00    +0.000 C 
BRANCH  33  34
ATOM     34  C   UNL     1     112.227 129.377 136.783  0.00  0.00    +0.000 C 
BRANCH  34  37
ATOM     35  O   UNL     1     113.624 129.650 136.664  0.00  0.00    +0.000 OA
ATOM     36  O   UNL     1     112.686 130.727 136.693  0.00  0.00    +0.000 OA
ATOM     37  C   UNL     1     112.845 129.918 136.713  0.00  0.00    +0.000 C 
ENDBRANCH  34  37
ENDBRANCH  33  34
ENDBRANCH  31  33
ENDBRANCH  30  31
ENDBRANCH  27  30
ENDBRANCH  20  29
ENDBRANCH   4  20
BRANCH   5  38
ATOM     38  O   UNL     1     112.907 127.470 141.226  0.00  0.00    +0.000 OA
BRANCH  38  47
ATOM     39  O   UNL     1     113.245 128.764 140.722  0.00  0.00    +0.000 OA
ATOM     40  O   UNL     1     112.049 129.814 142.617  0.00  0.00    +0.000 OA
ATOM     41  O   UNL     1     112.784 130.758 141.482  0.00  0.00    +0.000 OA
ATOM     42  O   UNL     1     112.110 128.170 142.489  0.00  0.00    +0.000 OA
ATOM     43  C   UNL     1     112.447 129.464 141.985  0.00  0.00    +0.000 C 
ATOM     44  C   UNL     1     112.815 129.936 141.418  0.00  0.00    +0.000 C 
ATOM     45  C   UNL     1     112.478 128.642 141.922  0.00  0.00    +0.000 C 
ATOM     46  C   UNL     1     113.214 129.587 140.787  0.00  0.00    +0.000 C 
ATOM     47  C   UNL     1     112.877 128.292 141.290  0.00  0.00    +0.000 C 
BRANCH  46  49
ATOM     48  O   UNL     1     114.369 129.919 140.014  0.00  0.00    +0.000 OA
ATOM     49  C   UNL     1     113.582 130.058 140.219  0.00  0.00    +0.000 C 
ENDBRANCH  46  49
ENDBRANCH  38  47
ENDBRANCH   5  38
TORSDOF 11
ENDMDL
MODEL 2
REMARK VINA RESULT:      -9.4      2.293      4.930
REMARK  Name = 44258878
REMARK  11 active torsions:
REMARK  status: ('A' for Active; 'I' for Inactive)
REMARK    1  A    between atoms: O_3  and  C_26
REMARK    2  A    between atoms: O_3  and  C_32
REMARK    3  A    between atoms: O_7  and  C_29
REMARK    4  A    between atoms: O_7  and  C_33
REMARK    5  A    between atoms: O_11  and  C_30
REMARK    6  A    between atoms: O_11  and  C_41
REMARK    7  A    between atoms: C_22  and  C_30
REMARK    8  A    between atoms: C_28  and  C_31
REMARK    9  A    between atoms: C_36  and  C_42
REMARK   10  A    between atoms: C_41  and  C_43
REMARK   11  A    between atoms: C_43  and  C_48
REMARK                            x       y       z     vdW  Elec       q    Type
REMARK                         _______ _______ _______ _____ _____    ______ ____
ROOT
ATOM      1  O   UNL     1     112.040 129.312 135.469  0.00  0.00    +0.000 OA
ATOM      2  O   UNL     1     111.812 126.977 136.261  0.00  0.00    +0.000 OA
ATOM      3  O   UNL     1     110.374 127.062 136.186  0.00  0.00    +0.000 OA
ATOM      4  C   UNL     1     112.637 128.089 135.907  0.00  0.00    +0.000 A 
ATOM      5  C   UNL     1     109.814 129.109 135.467  0.00  0.00    +0.000 A 
ATOM      6  C   UNL     1     111.215 128.200 135.823  0.00  0.00    +0.000 A 
ATOM      7  C   UNL     1     111.888 127.756 135.997  0.00  0.00    +0.000 A 
ATOM      8  C   UNL     1     112.713 128.868 135.643  0.00  0.00    +0.000 A 
ATOM      9  C   UNL     1     111.291 128.977 135.560  0.00  0.00    +0.000 A 
ATOM     10  C   UNL     1     110.597 129.450 135.376  0.00  0.00    +0.000 A 
ATOM     11  C   UNL     1     109.735 128.298 135.742  0.00  0.00    +0.000 A 
ATOM     12  C   UNL     1     110.440 127.841 135.921  0.00  0.00    +0.000 A 
ENDROOT
BRANCH   8  14
ATOM     13  O   UNL     1     115.710 130.202 135.285  0.00  0.00    +0.000 OA
ATOM     14  C   UNL     1     113.462 129.201 135.553  0.00  0.00    +0.000 A 
ATOM     15  C   UNL     1     113.941 128.976 134.920  0.00  0.00    +0.000 A 
ATOM     16  C   UNL     1     113.733 129.760 136.097  0.00  0.00    +0.000 A 
ATOM     17  C   UNL     1     114.690 129.310 134.831  0.00  0.00    +0.000 A 
ATOM     18  C   UNL     1     114.482 130.093 136.008  0.00  0.00    +0.000 A 
ATOM     19  C   UNL     1     114.961 129.868 135.374  0.00  0.00    +0.000 A 
ENDBRANCH   8  14
BRANCH   4  20
ATOM     20  O   UNL     1     113.310 127.645 136.080  0.00  0.00    +0.000 OA
BRANCH  20  29
ATOM     21  O   UNL     1     113.139 127.703 137.498  0.00  0.00    +0.000 OA
ATOM     22  O   UNL     1     113.657 126.270 139.060  0.00  0.00    +0.000 OA
ATOM     23  O   UNL     1     114.173 125.465 137.715  0.00  0.00    +0.000 OA
ATOM     24  O   UNL     1     113.999 126.153 136.225  0.00  0.00    +0.000 OA
ATOM     25  C   UNL     1     113.570 126.614 138.315  0.00  0.00    +0.000 C 
ATOM     26  C   UNL     1     113.828 126.211 137.643  0.00  0.00    +0.000 C 
ATOM     27  C   UNL     1     113.225 127.360 138.242  0.00  0.00    +0.000 C 
ATOM     28  C   UNL     1     113.741 126.555 136.897  0.00  0.00    +0.000 C 
ATOM     29  C   UNL     1     113.397 127.301 136.825  0.00  0.00    +0.000 C 
BRANCH  27  30
ATOM     30  C   UNL     1     112.968 127.762 138.915  0.00  0.00    +0.000 C 
BRANCH  30  31
ATOM     31  O   UNL     1     112.984 128.586 138.936  0.00  0.00    +0.000 OA
BRANCH  31  33
ATOM     32  O   UNL     1     112.947 128.898 140.330  0.00  0.00    +0.000 OA
ATOM     33  C   UNL     1     112.642 128.990 139.569  0.00  0.00    +0.000 C 
BRANCH  33  34
ATOM     34  C   UNL     1     111.997 129.487 139.441  0.00  0.00    +0.000 C 
BRANCH  34  37
ATOM     35  O   UNL     1     111.877 130.599 140.331  0.00  0.00    +0.000 OA
ATOM     36  O   UNL     1     112.317 130.803 138.987  0.00  0.00    +0.000 OA
ATOM     37  C   UNL     1     112.064 130.296 139.586  0.00  0.00    +0.000 C 
ENDBRANCH  34  37
ENDBRANCH  33  34
ENDBRANCH  31  33
ENDBRANCH  30  31
ENDBRANCH  27  30
ENDBRANCH  20  29
ENDBRANCH   4  20
BRANCH   5  38
ATOM     38  O   UNL     1     109.143 129.556 135.293  0.00  0.00    +0.000 OA
BRANCH  38  47
ATOM     39  O   UNL     1     109.025 130.144 136.590  0.00  0.00    +0.000 OA
ATOM     40  O   UNL     1     108.148 132.220 135.569  0.00  0.00    +0.000 OA
ATOM     41  O   UNL     1     108.322 132.117 137.206  0.00  0.00    +0.000 OA
ATOM     42  O   UNL     1     108.558 130.940 134.612  0.00  0.00    +0.000 OA
ATOM     43  C   UNL     1     108.440 131.528 135.909  0.00  0.00    +0.000 C 
ATOM     44  C   UNL     1     108.527 131.476 136.728  0.00  0.00    +0.000 C 
ATOM     45  C   UNL     1     108.645 130.888 135.431  0.00  0.00    +0.000 C 
ATOM     46  C   UNL     1     108.819 130.784 137.068  0.00  0.00    +0.000 C 
ATOM     47  C   UNL     1     108.938 130.196 135.771  0.00  0.00    +0.000 C 
BRANCH  46  49
ATOM     48  O   UNL     1     108.588 130.090 138.295  0.00  0.00    +0.000 OA
ATOM     49  C   UNL     1     108.907 130.732 137.887  0.00  0.00    +0.000 C 
ENDBRANCH  46  49
ENDBRANCH  38  47
ENDBRANCH   5  38
TORSDOF 11
ENDMDL
MODEL 3
REMARK VINA RESULT:      -9.4      2.046      2.940
REMARK  Name = 44258878
REMARK  11 active torsions:
REMARK  status: ('A' for Active; 'I' for Inactive)
REMARK    1  A    between atoms: O_3  and  C_26
REMARK    2  A    between atoms: O_3  and  C_32
REMARK    3  A    between atoms: O_7  and  C_29
REMARK    4  A    between atoms: O_7  and  C_33
REMARK    5  A    between atoms: O_11  and  C_30
REMARK    6  A    between atoms: O_11  and  C_41
REMARK    7  A    between atoms: C_22  and  C_30
REMARK    8  A    between atoms: C_28  and  C_31
REMARK    9  A    between atoms: C_36  and  C_42
REMARK   10  A    between atoms: C_41  and  C_43
REMARK   11  A    between atoms: C_43  and  C_48
REMARK                            x       y       z     vdW  Elec       q    Type
REMARK                         _______ _______ _______ _____ _____    ______ ____
ROOT
ATOM      1  O   UNL     1     112.430 128.724 138.006  0.00  0.00    +0.000 OA
ATOM      2  O   UNL     1     111.603 126.392 138.083  0.00  0.00    +0.000 OA
ATOM      3  O   UNL     1     111.137 126.572 139.437  0.00  0.00    +0.000 OA
ATOM      4  C   UNL     1     112.242 127.455 137.374  0.00  0.00    +0.000 A 
ATOM      5  C   UNL     1     111.603 128.667 140.081  0.00  0.00    +0.000 A 
ATOM      6  C   UNL     1     111.791 127.661 138.715  0.00  0.00    +0.000 A 
ATOM      7  C   UNL     1     111.879 127.170 138.058  0.00  0.00    +0.000 A 
ATOM      8  C   UNL     1     112.518 128.233 137.349  0.00  0.00    +0.000 A 
ATOM      9  C   UNL     1     112.067 128.437 138.688  0.00  0.00    +0.000 A 
ATOM     10  C   UNL     1     111.981 128.958 139.366  0.00  0.00    +0.000 A 
ATOM     11  C   UNL     1     111.316 127.857 140.108  0.00  0.00    +0.000 A 
ATOM     12  C   UNL     1     111.410 127.351 139.420  0.00  0.00    +0.000 A 
ENDROOT
BRANCH   8  14
ATOM     13  O   UNL     1     113.971 129.376 134.615  0.00  0.00    +0.000 OA
ATOM     14  C   UNL     1     112.882 128.518 136.665  0.00  0.00    +0.000 A 
ATOM     15  C   UNL     1     113.637 128.257 136.459  0.00  0.00    +0.000 A 
ATOM     16  C   UNL     1     112.490 129.066 136.187  0.00  0.00    +0.000 A 
ATOM     17  C   UNL     1     114.000 128.544 135.776  0.00  0.00    +0.000 A 
ATOM     18  C   UNL     1     112.853 129.351 135.504  0.00  0.00    +0.000 A 
ATOM     19  C   UNL     1     113.608 129.090 135.298  0.00  0.00    +0.000 A 
ENDBRANCH   8  14
BRANCH   4  20
ATOM     20  O   UNL     1     112.330 126.964 136.717  0.00  0.00    +0.000 OA
BRANCH  20  29
ATOM     21  O   UNL     1     110.951 127.016 136.349  0.00  0.00    +0.000 OA
ATOM     22  O   UNL     1     109.682 125.548 135.349  0.00  0.00    +0.000 OA
ATOM     23  O   UNL     1     111.117 124.736 135.402  0.00  0.00    +0.000 OA
ATOM     24  O   UNL     1     112.441 125.444 136.086  0.00  0.00    +0.000 OA
ATOM     25  C   UNL     1     110.344 125.903 135.692  0.00  0.00    +0.000 C 
ATOM     26  C   UNL     1     111.062 125.496 135.718  0.00  0.00    +0.000 C 
ATOM     27  C   UNL     1     110.289 126.663 136.007  0.00  0.00    +0.000 C 
ATOM     28  C   UNL     1     111.724 125.850 136.060  0.00  0.00    +0.000 C 
ATOM     29  C   UNL     1     111.669 126.611 136.376  0.00  0.00    +0.000 C 
BRANCH  27  30
ATOM     30  C   UNL     1     109.571 127.069 135.981  0.00  0.00    +0.000 C 
BRANCH  30  31
ATOM     31  O   UNL     1     109.551 127.857 135.739  0.00  0.00    +0.000 OA
BRANCH  31  33
ATOM     32  O   UNL     1     108.129 127.996 135.717  0.00  0.00    +0.000 OA
ATOM     33  C   UNL     1     108.875 128.312 135.871  0.00  0.00    +0.000 C 
BRANCH  33  34
ATOM     34  C   UNL     1     108.946 129.082 136.156  0.00  0.00    +0.000 C 
BRANCH  34  37
ATOM     35  O   UNL     1     108.858 130.096 135.153  0.00  0.00    +0.000 OA
ATOM     36  O   UNL     1     107.784 129.909 136.077  0.00  0.00    +0.000 OA
ATOM     37  C   UNL     1     108.530 129.696 135.796  0.00  0.00    +0.000 C 
ENDBRANCH  34  37
ENDBRANCH  33  34
ENDBRANCH  31  33
ENDBRANCH  30  31
ENDBRANCH  27  30
ENDBRANCH  20  29
ENDBRANCH   4  20
BRANCH   5  38
ATOM     38  O   UNL     1     111.516 129.161 140.736  0.00  0.00    +0.000 OA
BRANCH  38  47
ATOM     39  O   UNL     1     110.143 129.509 140.553  0.00  0.00    +0.000 OA
ATOM     40  O   UNL     1     110.651 131.845 141.193  0.00  0.00    +0.000 OA
ATOM     41  O   UNL     1     109.108 131.416 140.798  0.00  0.00    +0.000 OA
ATOM     42  O   UNL     1     111.855 130.718 141.163  0.00  0.00    +0.000 OA
ATOM     43  C   UNL     1     110.481 131.067 140.980  0.00  0.00    +0.000 C 
ATOM     44  C   UNL     1     109.710 130.852 140.782  0.00  0.00    +0.000 C 
ATOM     45  C   UNL     1     111.084 130.503 140.965  0.00  0.00    +0.000 C 
ATOM     46  C   UNL     1     109.541 130.074 140.569  0.00  0.00    +0.000 C 
ATOM     47  C   UNL     1     110.914 129.724 140.751  0.00  0.00    +0.000 C 
BRANCH  46  49
ATOM     48  O   UNL     1     108.583 129.662 139.592  0.00  0.00    +0.000 OA
ATOM     49  C   UNL     1     108.769 129.859 140.371  0.00  0.00    +0.000 C 
ENDBRANCH  46  49
ENDBRANCH  38  47
ENDBRANCH   5  38
TORSDOF 11
ENDMDL
MODEL 4
REMARK VINA RESULT:      -9.3      1.701      4.495
REMARK  Name = 44258878
REMARK  11 active torsions:
REMARK  status: ('A' for Active; 'I' for Inactive)
REMARK    1  A    between atoms: O_3  and  C_26
REMARK    2  A    between atoms: O_3  and  C_32
REMARK    3  A    between atoms: O_7  and  C_29
REMARK    4  A    between atoms: O_7  and  C_33
REMARK    5  A    between atoms: O_11  and  C_30
REMARK    6  A    between atoms: O_11  and  C_41
REMARK    7  A    between atoms: C_22  and  C_30
REMARK    8  A    between atoms: C_28  and  C_31
REMARK    9  A    between atoms: C_36  and  C_42
REMARK   10  A    between atoms: C_41  and  C_43
REMARK   11  A    between atoms: C_43  and  C_48
REMARK                            x       y       z     vdW  Elec       q    Type
REMARK                         _______ _______ _______ _____ _____    ______ ____
ROOT
ATOM      1  O   UNL     1     112.258 128.523 138.547  0.00  0.00    +0.000 OA
ATOM      2  O   UNL     1     113.714 127.393 136.893  0.00  0.00    +0.000 OA
ATOM      3  O   UNL     1     113.698 128.557 136.041  0.00  0.00    +0.000 OA
ATOM      4  C   UNL     1     113.002 127.375 138.132  0.00  0.00    +0.000 A 
ATOM      5  C   UNL     1     112.441 130.137 137.013  0.00  0.00    +0.000 A 
ATOM      6  C   UNL     1     112.969 128.541 137.307  0.00  0.00    +0.000 A 
ATOM      7  C   UNL     1     113.228 127.770 137.444  0.00  0.00    +0.000 A 
ATOM      8  C   UNL     1     112.517 127.752 138.684  0.00  0.00    +0.000 A 
ATOM      9  C   UNL     1     112.485 128.917 137.858  0.00  0.00    +0.000 A 
ATOM     10  C   UNL     1     112.209 129.720 137.727  0.00  0.00    +0.000 A 
ATOM     11  C   UNL     1     112.946 129.745 136.438  0.00  0.00    +0.000 A 
ATOM     12  C   UNL     1     113.212 128.942 136.587  0.00  0.00    +0.000 A 
ENDROOT
BRANCH   8  14
ATOM     13  O   UNL     1     111.611 126.169 141.434  0.00  0.00    +0.000 OA
ATOM     14  C   UNL     1     112.291 127.356 139.371  0.00  0.00    +0.000 A 
ATOM     15  C   UNL     1     112.839 127.234 139.976  0.00  0.00    +0.000 A 
ATOM     16  C   UNL     1     111.516 127.083 139.454  0.00  0.00    +0.000 A 
ATOM     17  C   UNL     1     112.611 126.838 140.664  0.00  0.00    +0.000 A 
ATOM     18  C   UNL     1     111.290 126.688 140.142  0.00  0.00    +0.000 A 
ATOM     19  C   UNL     1     111.838 126.565 140.747  0.00  0.00    +0.000 A 
ENDBRANCH   8  14
BRANCH   4  20
ATOM     20  O   UNL     1     113.261 126.603 138.269  0.00  0.00    +0.000 OA
BRANCH  20  29
ATOM     21  O   UNL     1     112.397 126.042 137.279  0.00  0.00    +0.000 OA
ATOM     22  O   UNL     1     112.581 124.223 136.087  0.00  0.00    +0.000 OA
ATOM     23  O   UNL     1     113.970 124.155 136.976  0.00  0.00    +0.000 OA
ATOM     24  O   UNL     1     114.309 125.345 138.067  0.00  0.00    +0.000 OA
ATOM     25  C   UNL     1     112.751 124.819 136.633  0.00  0.00    +0.000 C 
ATOM     26  C   UNL     1     113.445 124.784 137.077  0.00  0.00    +0.000 C 
ATOM     27  C   UNL     1     112.227 125.448 136.734  0.00  0.00    +0.000 C 
ATOM     28  C   UNL     1     113.615 125.380 137.623  0.00  0.00    +0.000 C 
ATOM     29  C   UNL     1     113.091 126.009 137.724  0.00  0.00    +0.000 C 
BRANCH  27  30
ATOM     30  C   UNL     1     111.533 125.481 136.289  0.00  0.00    +0.000 C 
BRANCH  30  31
ATOM     31  O   UNL     1     110.853 125.819 136.609  0.00  0.00    +0.000 OA
BRANCH  31  33
ATOM     32  O   UNL     1     109.953 125.512 135.542  0.00  0.00    +0.000 OA
ATOM     33  C   UNL     1     110.228 126.037 136.116  0.00  0.00    +0.000 C 
BRANCH  33  34
ATOM     34  C   UNL     1     109.878 126.779 136.196  0.00  0.00    +0.000 C 
BRANCH  34  37
ATOM     35  O   UNL     1     108.519 126.946 135.789  0.00  0.00    +0.000 OA
ATOM     36  O   UNL     1     108.837 126.795 137.174  0.00  0.00    +0.000 OA
ATOM     37  C   UNL     1     109.079 126.840 136.386  0.00  0.00    +0.000 C 
ENDBRANCH  34  37
ENDBRANCH  33  34
ENDBRANCH  31  33
ENDBRANCH  30  31
ENDBRANCH  27  30
ENDBRANCH  20  29
ENDBRANCH   4  20
BRANCH   5  38
ATOM     38  O   UNL     1     112.180 130.909 136.878  0.00  0.00    +0.000 OA
BRANCH  38  47
ATOM     39  O   UNL     1     111.004 130.592 136.131  0.00  0.00    +0.000 OA
ATOM     40  O   UNL     1     109.777 132.397 137.296  0.00  0.00    +0.000 OA
ATOM     41  O   UNL     1     109.010 131.479 136.160  0.00  0.00    +0.000 OA
ATOM     42  O   UNL     1     111.362 132.112 137.655  0.00  0.00    +0.000 OA
ATOM     43  C   UNL     1     110.186 131.795 136.908  0.00  0.00    +0.000 C 
ATOM     44  C   UNL     1     109.803 131.336 136.339  0.00  0.00    +0.000 C 
ATOM     45  C   UNL     1     110.979 131.653 137.087  0.00  0.00    +0.000 C 
ATOM     46  C   UNL     1     110.211 130.735 135.951  0.00  0.00    +0.000 C 
ATOM     47  C   UNL     1     111.388 131.051 136.699  0.00  0.00    +0.000 C 
BRANCH  46  49
ATOM     48  O   UNL     1     110.198 130.116 134.663  0.00  0.00    +0.000 OA
ATOM     49  C   UNL     1     109.828 130.275 135.383  0.00  0.00    +0.000 C 
ENDBRANCH  46  49
ENDBRANCH  38  47
ENDBRANCH   5  38
TORSDOF 11
ENDMDL
MODEL 5
REMARK VINA RESULT:      -9.3      1.838      5.270
REMARK  Name = 44258878
REMARK  11 active torsions:
REMARK  status: ('A' for Active; 'I' for Inactive)
REMARK    1  A    between atoms: O_3  and  C_26
REMARK    2  A    between atoms: O_3  and  C_32
REMARK    3  A    between atoms: O_7  and  C_29
REMARK    4  A    between atoms: O_7  and  C_33
REMARK    5  A    between atoms: O_11  and  C_30
REMARK    6  A    between atoms: O_11  and  C_41
REMARK    7  A    between atoms: C_22  and  C_30
REMARK    8  A    between atoms: C_28  and  C_31
REMARK    9  A    between atoms: C_36  and  C_42
REMARK   10  A    between atoms: C_41  and  C_43
REMARK   11  A    between atoms: C_43  and  C_48
REMARK                            x       y       z     vdW  Elec       q    Type
REMARK                         _______ _______ _______ _____ _____    ______ ____
ROOT
ATOM      1  O   UNL     1     111.980 126.451 136.356  0.00  0.00    +0.000 OA
ATOM      2  O   UNL     1     113.344 127.790 137.930  0.00  0.00    +0.000 OA
ATOM      3  O   UNL     1     112.932 129.015 137.289  0.00  0.00    +0.000 OA
ATOM      4  C   UNL     1     112.874 126.521 137.470  0.00  0.00    +0.000 A 
ATOM      5  C   UNL     1     111.546 128.509 135.602  0.00  0.00    +0.000 A 
ATOM      6  C   UNL     1     112.450 127.719 136.816  0.00  0.00    +0.000 A 
ATOM      7  C   UNL     1     112.889 127.343 137.405  0.00  0.00    +0.000 A 
ATOM      8  C   UNL     1     112.419 126.075 136.944  0.00  0.00    +0.000 A 
ATOM      9  C   UNL     1     111.996 127.274 136.292  0.00  0.00    +0.000 A 
ATOM     10  C   UNL     1     111.535 127.654 135.675  0.00  0.00    +0.000 A 
ATOM     11  C   UNL     1     112.020 128.975 136.149  0.00  0.00    +0.000 A 
ATOM     12  C   UNL     1     112.475 128.577 136.760  0.00  0.00    +0.000 A 
ENDROOT
BRANCH   8  14
ATOM     13  O   UNL     1     112.356 122.785 137.204  0.00  0.00    +0.000 OA
ATOM     14  C   UNL     1     112.404 125.253 137.009  0.00  0.00    +0.000 A 
ATOM     15  C   UNL     1     113.060 124.808 136.781  0.00  0.00    +0.000 A 
ATOM     16  C   UNL     1     111.731 124.874 137.302  0.00  0.00    +0.000 A 
ATOM     17  C   UNL     1     113.044 123.986 136.846  0.00  0.00    +0.000 A 
ATOM     18  C   UNL     1     111.716 124.052 137.367  0.00  0.00    +0.000 A 
ATOM     19  C   UNL     1     112.372 123.608 137.139  0.00  0.00    +0.000 A 
ENDBRANCH   8  14
BRANCH   4  20
ATOM     20  O   UNL     1     113.312 126.145 138.058  0.00  0.00    +0.000 OA
BRANCH  20  29
ATOM     21  O   UNL     1     112.448 126.478 139.146  0.00  0.00    +0.000 OA
ATOM     22  O   UNL     1     112.894 126.988 141.221  0.00  0.00    +0.000 OA
ATOM     23  O   UNL     1     114.414 126.743 140.627  0.00  0.00    +0.000 OA
ATOM     24  O   UNL     1     114.623 126.321 139.045  0.00  0.00    +0.000 OA
ATOM     25  C   UNL     1     112.998 126.777 140.430  0.00  0.00    +0.000 C 
ATOM     26  C   UNL     1     113.758 126.655 140.133  0.00  0.00    +0.000 C 
ATOM     27  C   UNL     1     112.343 126.689 139.936  0.00  0.00    +0.000 C 
ATOM     28  C   UNL     1     113.863 126.444 139.342  0.00  0.00    +0.000 C 
ATOM     29  C   UNL     1     113.208 126.355 138.848  0.00  0.00    +0.000 C 
BRANCH  27  30
ATOM     30  C   UNL     1     111.584 126.812 140.234  0.00  0.00    +0.000 C 
BRANCH  30  31
ATOM     31  O   UNL     1     111.048 126.186 140.271  0.00  0.00    +0.000 OA
BRANCH  31  33
ATOM     32  O   UNL     1     110.052 126.899 141.006  0.00  0.00    +0.000 OA
ATOM     33  C   UNL     1     110.254 126.331 140.443  0.00  0.00    +0.000 C 
BRANCH  33  34
ATOM     34  C   UNL     1     109.663 125.908 140.053  0.00  0.00    +0.000 C 
BRANCH  34  37
ATOM     35  O   UNL     1     109.138 124.980 141.004  0.00  0.00    +0.000 OA
ATOM     36  O   UNL     1     108.272 125.926 140.374  0.00  0.00    +0.000 OA
ATOM     37  C   UNL     1     109.025 125.605 140.477  0.00  0.00    +0.000 C 
ENDBRANCH  34  37
ENDBRANCH  33  34
ENDBRANCH  31  33
ENDBRANCH  30  31
ENDBRANCH  27  30
ENDBRANCH  20  29
ENDBRANCH   4  20
BRANCH   5  38
ATOM     38  O   UNL     1     111.107 128.883 135.013  0.00  0.00    +0.000 OA
BRANCH  38  47
ATOM     39  O   UNL     1     109.797 128.685 135.550  0.00  0.00    +0.000 OA
ATOM     40  O   UNL     1     109.200 131.011 134.949  0.00  0.00    +0.000 OA
ATOM     41  O   UNL     1     108.089 130.039 135.686  0.00  0.00    +0.000 OA
ATOM     42  O   UNL     1     110.708 130.433 134.612  0.00  0.00    +0.000 OA
ATOM     43  C   UNL     1     109.399 130.236 135.149  0.00  0.00    +0.000 C 
ATOM     44  C   UNL     1     108.844 129.749 135.518  0.00  0.00    +0.000 C 
ATOM     45  C   UNL     1     110.153 129.947 134.981  0.00  0.00    +0.000 C 
ATOM     46  C   UNL     1     109.043 128.975 135.718  0.00  0.00    +0.000 C 
ATOM     47  C   UNL     1     110.352 129.172 135.181  0.00  0.00    +0.000 C 
BRANCH  46  49
ATOM     48  O   UNL     1     108.303 127.753 135.762  0.00  0.00    +0.000 OA
ATOM     49  C   UNL     1     108.488 128.488 136.087  0.00  0.00    +0.000 C 
ENDBRANCH  46  49
ENDBRANCH  38  47
ENDBRANCH   5  38
TORSDOF 11
ENDMDL
MODEL 6
REMARK VINA RESULT:      -9.3      1.698      3.002
REMARK  Name = 44258878
REMARK  11 active torsions:
REMARK  status: ('A' for Active; 'I' for Inactive)
REMARK    1  A    between atoms: O_3  and  C_26
REMARK    2  A    between atoms: O_3  and  C_32
REMARK    3  A    between atoms: O_7  and  C_29
REMARK    4  A    between atoms: O_7  and  C_33
REMARK    5  A    between atoms: O_11  and  C_30
REMARK    6  A    between atoms: O_11  and  C_41
REMARK    7  A    between atoms: C_22  and  C_30
REMARK    8  A    between atoms: C_28  and  C_31
REMARK    9  A    between atoms: C_36  and  C_42
REMARK   10  A    between atoms: C_41  and  C_43
REMARK   11  A    between atoms: C_43  and  C_48
REMARK                            x       y       z     vdW  Elec       q    Type
REMARK                         _______ _______ _______ _____ _____    ______ ____
ROOT
ATOM      1  O   UNL     1     112.035 126.013 138.917  0.00  0.00    +0.000 OA
ATOM      2  O   UNL     1     113.438 127.950 138.277  0.00  0.00    +0.000 OA
ATOM      3  O   UNL     1     113.242 128.556 139.572  0.00  0.00    +0.000 OA
ATOM      4  C   UNL     1     112.842 126.693 137.952  0.00  0.00    +0.000 A 
ATOM      5  C   UNL     1     111.936 127.212 140.800  0.00  0.00    +0.000 A 
ATOM      6  C   UNL     1     112.631 127.271 139.242  0.00  0.00    +0.000 A 
ATOM      7  C   UNL     1     112.970 127.304 138.491  0.00  0.00    +0.000 A 
ATOM      8  C   UNL     1     112.374 126.047 138.166  0.00  0.00    +0.000 A 
ATOM      9  C   UNL     1     112.164 126.626 139.455  0.00  0.00    +0.000 A 
ATOM     10  C   UNL     1     111.806 126.579 140.235  0.00  0.00    +0.000 A 
ATOM     11  C   UNL     1     112.424 127.885 140.578  0.00  0.00    +0.000 A 
ATOM     12  C   UNL     1     112.773 127.914 139.794  0.00  0.00    +0.000 A 
ENDROOT
BRANCH   8  14
ATOM     13  O   UNL     1     111.857 123.601 136.011  0.00  0.00    +0.000 OA
ATOM     14  C   UNL     1     112.245 125.435 137.627  0.00  0.00    +0.000 A 
ATOM     15  C   UNL     1     112.855 124.909 137.447  0.00  0.00    +0.000 A 
ATOM     16  C   UNL     1     111.506 125.350 137.269  0.00  0.00    +0.000 A 
ATOM     17  C   UNL     1     112.725 124.298 136.908  0.00  0.00    +0.000 A 
ATOM     18  C   UNL     1     111.378 124.739 136.730  0.00  0.00    +0.000 A 
ATOM     19  C   UNL     1     111.987 124.213 136.550  0.00  0.00    +0.000 A 
ENDBRANCH   8  14
BRANCH   4  20
ATOM     20  O   UNL     1     113.180 126.726 137.200  0.00  0.00    +0.000 OA
BRANCH  20  29
ATOM     21  O   UNL     1     112.282 127.713 136.689  0.00  0.00    +0.000 OA
ATOM     22  O   UNL     1     112.593 129.316 135.241  0.00  0.00    +0.000 OA
ATOM     23  O   UNL     1     114.097 128.637 135.283  0.00  0.00    +0.000 OA
ATOM     24  O   UNL     1     114.390 127.342 136.263  0.00  0.00    +0.000 OA
ATOM     25  C   UNL     1     112.740 128.668 135.731  0.00  0.00    +0.000 C 
ATOM     26  C   UNL     1     113.492 128.329 135.752  0.00  0.00    +0.000 C 
ATOM     27  C   UNL     1     112.135 128.360 136.200  0.00  0.00    +0.000 C 
ATOM     28  C   UNL     1     113.638 127.681 136.242  0.00  0.00    +0.000 C 
ATOM     29  C   UNL     1     113.033 127.373 136.711  0.00  0.00    +0.000 C 
BRANCH  27  30
ATOM     30  C   UNL     1     111.383 128.700 136.178  0.00  0.00    +0.000 C 
BRANCH  30  31
ATOM     31  O   UNL     1     110.715 128.221 136.111  0.00  0.00    +0.000 OA
BRANCH  31  33
ATOM     32  O   UNL     1     109.788 129.040 136.826  0.00  0.00    +0.000 OA
ATOM     33  C   UNL     1     109.962 128.550 136.186  0.00  0.00    +0.000 C 
BRANCH  33  34
ATOM     34  C   UNL     1     109.383 128.388 135.622  0.00  0.00    +0.000 C 
BRANCH  34  37
ATOM     35  O   UNL     1     108.429 127.452 136.128  0.00  0.00    +0.000 OA
ATOM     36  O   UNL     1     108.028 128.790 135.827  0.00  0.00    +0.000 OA
ATOM     37  C   UNL     1     108.614 128.210 135.859  0.00  0.00    +0.000 C 
ENDBRANCH  34  37
ENDBRANCH  33  34
ENDBRANCH  31  33
ENDBRANCH  30  31
ENDBRANCH  27  30
ENDBRANCH  20  29
ENDBRANCH   4  20
BRANCH   5  38
ATOM     38  O   UNL     1     111.596 127.176 141.551  0.00  0.00    +0.000 OA
BRANCH  38  47
ATOM     39  O   UNL     1     110.295 127.652 141.203  0.00  0.00    +0.000 OA
ATOM     40  O   UNL     1     110.217 128.970 143.296  0.00  0.00    +0.000 OA
ATOM     41  O   UNL     1     108.941 129.007 142.251  0.00  0.00    +0.000 OA
ATOM     42  O   UNL     1     111.544 128.055 142.946  0.00  0.00    +0.000 OA
ATOM     43  C   UNL     1     110.243 128.531 142.598  0.00  0.00    +0.000 C 
ATOM     44  C   UNL     1     109.605 128.549 142.075  0.00  0.00    +0.000 C 
ATOM     45  C   UNL     1     110.906 128.073 142.423  0.00  0.00    +0.000 C 
ATOM     46  C   UNL     1     109.631 128.110 141.378  0.00  0.00    +0.000 C 
ATOM     47  C   UNL     1     110.932 127.634 141.726  0.00  0.00    +0.000 C 
BRANCH  46  49
ATOM     48  O   UNL     1     108.639 127.424 140.612  0.00  0.00    +0.000 OA
ATOM     49  C   UNL     1     108.993 128.128 140.855  0.00  0.00    +0.000 C 
ENDBRANCH  46  49
ENDBRANCH  38  47
ENDBRANCH   5  38
TORSDOF 11
ENDMDL
MODEL 7
REMARK VINA RESULT:      -9.2      1.534      3.182
REMARK  Name = 44258878
REMARK  11 active torsions:
REMARK  status: ('A' for Active; 'I' for Inactive)
REMARK    1  A    between atoms: O_3  and  C_26
REMARK    2  A    between atoms: O_3  and  C_32
REMARK    3  A    between atoms: O_7  and  C_29
REMARK    4  A    between atoms: O_7  and  C_33
REMARK    5  A    between atoms: O_11  and  C_30
REMARK    6  A    between atoms: O_11  and  C_41
REMARK    7  A    between atoms: C_22  and  C_30
REMARK    8  A    between atoms: C_28  and  C_31
REMARK    9  A    between atoms: C_36  and  C_42
REMARK   10  A    between atoms: C_41  and  C_43
REMARK   11  A    between atoms: C_43  and  C_48
REMARK                            x       y       z     vdW  Elec       q    Type
REMARK                         _______ _______ _______ _____ _____    ______ ____
ROOT
ATOM      1  O   UNL     1     113.136 128.724 138.467  0.00  0.00    +0.000 OA
ATOM      2  O   UNL     1     113.635 126.343 138.925  0.00  0.00    +0.000 OA
ATOM      3  O   UNL     1     113.913 126.637 140.310  0.00  0.00    +0.000 OA
ATOM      4  C   UNL     1     113.251 127.374 138.013  0.00  0.00    +0.000 A 
ATOM      5  C   UNL     1     113.631 128.835 140.644  0.00  0.00    +0.000 A 
ATOM      6  C   UNL     1     113.520 127.693 139.379  0.00  0.00    +0.000 A 
ATOM      7  C   UNL     1     113.469 127.137 138.772  0.00  0.00    +0.000 A 
ATOM      8  C   UNL     1     113.085 128.168 137.860  0.00  0.00    +0.000 A 
ATOM      9  C   UNL     1     113.354 128.486 139.227  0.00  0.00    +0.000 A 
ATOM     10  C   UNL     1     113.405 129.075 139.851  0.00  0.00    +0.000 A 
ATOM     11  C   UNL     1     113.804 128.008 140.803  0.00  0.00    +0.000 A 
ATOM     12  C   UNL     1     113.749 127.433 140.166  0.00  0.00    +0.000 A 
ENDROOT
BRANCH   8  14
ATOM     13  O   UNL     1     112.216 129.114 134.820  0.00  0.00    +0.000 OA
ATOM     14  C   UNL     1     112.867 128.404 137.101  0.00  0.00    +0.000 A 
ATOM     15  C   UNL     1     112.083 128.604 136.939  0.00  0.00    +0.000 A 
ATOM     16  C   UNL     1     113.434 128.441 136.502  0.00  0.00    +0.000 A 
ATOM     17  C   UNL     1     111.866 128.840 136.179  0.00  0.00    +0.000 A 
ATOM     18  C   UNL     1     113.217 128.678 135.742  0.00  0.00    +0.000 A 
ATOM     19  C   UNL     1     112.432 128.877 135.581  0.00  0.00    +0.000 A 
ENDBRANCH   8  14
BRANCH   4  20
ATOM     20  O   UNL     1     113.199 126.817 137.406  0.00  0.00    +0.000 OA
BRANCH  20  29
ATOM     21  O   UNL     1     111.986 126.239 137.890  0.00  0.00    +0.000 OA
ATOM     22  O   UNL     1     111.205 124.207 137.725  0.00  0.00    +0.000 OA
ATOM     23  O   UNL     1     112.635 124.059 136.915  0.00  0.00    +0.000 OA
ATOM     24  O   UNL     1     113.632 125.364 136.755  0.00  0.00    +0.000 OA
ATOM     25  C   UNL     1     111.704 124.860 137.645  0.00  0.00    +0.000 C 
ATOM     26  C   UNL     1     112.419 124.786 137.240  0.00  0.00    +0.000 C 
ATOM     27  C   UNL     1     111.488 125.587 137.970  0.00  0.00    +0.000 C 
ATOM     28  C   UNL     1     112.918 125.439 137.160  0.00  0.00    +0.000 C 
ATOM     29  C   UNL     1     112.701 126.165 137.486  0.00  0.00    +0.000 C 
BRANCH  27  30
ATOM     30  C   UNL     1     110.772 125.661 138.375  0.00  0.00    +0.000 C 
BRANCH  30  31
ATOM     31  O   UNL     1     110.410 126.398 138.443  0.00  0.00    +0.000 OA
BRANCH  31  33
ATOM     32  O   UNL     1     109.031 126.216 138.769  0.00  0.00    +0.000 OA
ATOM     33  C   UNL     1     109.780 126.502 138.965  0.00  0.00    +0.000 C 
BRANCH  33  34
ATOM     34  C   UNL     1     109.897 126.892 139.682  0.00  0.00    +0.000 C 
BRANCH  34  37
ATOM     35  O   UNL     1     108.797 127.612 140.243  0.00  0.00    +0.000 OA
ATOM     36  O   UNL     1     109.843 128.315 139.568  0.00  0.00    +0.000 OA
ATOM     37  C   UNL     1     109.513 127.606 139.831  0.00  0.00    +0.000 C 
ENDBRANCH  34  37
ENDBRANCH  33  34
ENDBRANCH  31  33
ENDBRANCH  30  31
ENDBRANCH  27  30
ENDBRANCH  20  29
ENDBRANCH   4  20
BRANCH   5  38
ATOM     38  O   UNL     1     113.682 129.393 141.249  0.00  0.00    +0.000 OA
BRANCH  38  47
ATOM     39  O   UNL     1     112.479 129.091 141.959  0.00  0.00    +0.000 OA
ATOM     40  O   UNL     1     111.985 131.508 142.153  0.00  0.00    +0.000 OA
ATOM     41  O   UNL     1     110.948 130.400 142.799  0.00  0.00    +0.000 OA
ATOM     42  O   UNL     1     113.352 131.005 141.377  0.00  0.00    +0.000 OA
ATOM     43  C   UNL     1     112.150 130.702 142.088  0.00  0.00    +0.000 C 
ATOM     44  C   UNL     1     111.631 130.148 142.411  0.00  0.00    +0.000 C 
ATOM     45  C   UNL     1     112.833 130.451 141.701  0.00  0.00    +0.000 C 
ATOM     46  C   UNL     1     111.796 129.343 142.347  0.00  0.00    +0.000 C 
ATOM     47  C   UNL     1     112.998 129.645 141.636  0.00  0.00    +0.000 C 
BRANCH  46  49
ATOM     48  O   UNL     1     111.545 128.256 143.240  0.00  0.00    +0.000 OA
ATOM     49  C   UNL     1     111.277 128.789 142.670  0.00  0.00    +0.000 C 
ENDBRANCH  46  49
ENDBRANCH  38  47
ENDBRANCH   5  38
TORSDOF 11
ENDMDL
MODEL 8
REMARK VINA RESULT:      -9.2      1.616      5.970
REMARK  Name = 44258878
REMARK  11 active torsions:
REMARK  status: ('A' for Active; 'I' for Inactive)
REMARK    1  A    between atoms: O_3  and  C_26
REMARK    2  A    between atoms: O_3  and  C_32
REMARK    3  A    between atoms: O_7  and  C_29
REMARK    4  A    between atoms: O_7  and  C_33
REMARK    5  A    between atoms: O_11  and  C_30
REMARK    6  A    between atoms: O_11  and  C_41
REMARK    7  A    between atoms: C_22  and  C_30
REMARK    8  A    between atoms: C_28  and  C_31
REMARK    9  A    between atoms: C_36  and  C_42
REMARK   10  A    between atoms: C_41  and  C_43
REMARK   11  A    between atoms: C_43  and  C_48
REMARK                            x       y       z     vdW  Elec       q    Type
REMARK                         _______ _______ _______ _____ _____    ______ ____
ROOT
ATOM      1  O   UNL     1     112.444 128.531 138.372  0.00  0.00    +0.000 OA
ATOM      2  O   UNL     1     114.112 128.664 140.196  0.00  0.00    +0.000 OA
ATOM      3  O   UNL     1     114.037 127.239 140.408  0.00  0.00    +0.000 OA
ATOM      4  C   UNL     1     113.325 129.304 139.190  0.00  0.00    +0.000 A 
ATOM      5  C   UNL     1     112.566 126.377 138.953  0.00  0.00    +0.000 A 
ATOM      6  C   UNL     1     113.231 127.891 139.378  0.00  0.00    +0.000 A 
ATOM      7  C   UNL     1     113.556 128.620 139.588  0.00  0.00    +0.000 A 
ATOM      8  C   UNL     1     112.769 129.260 138.581  0.00  0.00    +0.000 A 
ATOM      9  C   UNL     1     112.675 127.847 138.770  0.00  0.00    +0.000 A 
ATOM     10  C   UNL     1     112.330 127.094 138.543  0.00  0.00    +0.000 A 
ATOM     11  C   UNL     1     113.146 126.423 139.587  0.00  0.00    +0.000 A 
ATOM     12  C   UNL     1     113.480 127.185 139.801  0.00  0.00    +0.000 A 
ENDROOT
BRANCH   8  14
ATOM     13  O   UNL     1     111.844 132.000 136.991  0.00  0.00    +0.000 OA
ATOM     14  C   UNL     1     112.538 129.945 138.184  0.00  0.00    +0.000 A 
ATOM     15  C   UNL     1     113.054 130.307 137.651  0.00  0.00    +0.000 A 
ATOM     16  C   UNL     1     111.790 130.268 138.319  0.00  0.00    +0.000 A 
ATOM     17  C   UNL     1     112.822 130.992 137.254  0.00  0.00    +0.000 A 
ATOM     18  C   UNL     1     111.560 130.952 137.921  0.00  0.00    +0.000 A 
ATOM     19  C   UNL     1     112.076 131.315 137.388  0.00  0.00    +0.000 A 
ENDBRANCH   8  14
BRANCH   4  20
ATOM     20  O   UNL     1     113.650 130.033 139.400  0.00  0.00    +0.000 OA
BRANCH  20  29
ATOM     21  O   UNL     1     112.850 130.174 140.575  0.00  0.00    +0.000 OA
ATOM     22  O   UNL     1     113.249 131.199 142.461  0.00  0.00    +0.000 OA
ATOM     23  O   UNL     1     114.648 131.500 141.640  0.00  0.00    +0.000 OA
ATOM     24  O   UNL     1     114.849 130.917 140.109  0.00  0.00    +0.000 OA
ATOM     25  C   UNL     1     113.349 130.907 141.695  0.00  0.00    +0.000 C 
ATOM     26  C   UNL     1     114.049 131.058 141.285  0.00  0.00    +0.000 C 
ATOM     27  C   UNL     1     112.750 130.465 141.340  0.00  0.00    +0.000 C 
ATOM     28  C   UNL     1     114.149 130.766 140.519  0.00  0.00    +0.000 C 
ATOM     29  C   UNL     1     113.550 130.324 140.164  0.00  0.00    +0.000 C 
BRANCH  27  30
ATOM     30  C   UNL     1     112.050 130.315 141.751  0.00  0.00    +0.000 C 
BRANCH  30  31
ATOM     31  O   UNL     1     111.809 129.538 141.886  0.00  0.00    +0.000 OA
BRANCH  31  33
ATOM     32  O   UNL     1     110.716 129.801 142.768  0.00  0.00    +0.000 OA
ATOM     33  C   UNL     1     111.038 129.382 142.134  0.00  0.00    +0.000 C 
BRANCH  33  34
ATOM     34  C   UNL     1     110.588 128.808 141.749  0.00  0.00    +0.000 C 
BRANCH  34  37
ATOM     35  O   UNL     1     110.890 127.466 142.137  0.00  0.00    +0.000 OA
ATOM     36  O   UNL     1     109.660 128.068 142.544  0.00  0.00    +0.000 OA
ATOM     37  C   UNL     1     110.380 128.115 142.143  0.00  0.00    +0.000 C 
ENDBRANCH  34  37
ENDBRANCH  33  34
ENDBRANCH  31  33
ENDBRANCH  30  31
ENDBRANCH  27  30
ENDBRANCH  20  29
ENDBRANCH   4  20
BRANCH   5  38
ATOM     38  O   UNL     1     112.239 125.650 138.741  0.00  0.00    +0.000 OA
BRANCH  38  47
ATOM     39  O   UNL     1     113.304 125.253 137.875  0.00  0.00    +0.000 OA
ATOM     40  O   UNL     1     111.676 124.122 136.393  0.00  0.00    +0.000 OA
ATOM     41  O   UNL     1     113.282 124.102 136.019  0.00  0.00    +0.000 OA
ATOM     42  O   UNL     1     111.154 124.896 137.754  0.00  0.00    +0.000 OA
ATOM     43  C   UNL     1     112.219 124.499 136.887  0.00  0.00    +0.000 C 
ATOM     44  C   UNL     1     113.022 124.489 136.700  0.00  0.00    +0.000 C 
ATOM     45  C   UNL     1     111.958 124.886 137.567  0.00  0.00    +0.000 C 
ATOM     46  C   UNL     1     113.564 124.866 137.194  0.00  0.00    +0.000 C 
ATOM     47  C   UNL     1     112.500 125.263 138.061  0.00  0.00    +0.000 C 
BRANCH  46  49
ATOM     48  O   UNL     1     114.917 124.587 137.561  0.00  0.00    +0.000 OA
ATOM     49  C   UNL     1     114.368 124.856 137.007  0.00  0.00    +0.000 C 
ENDBRANCH  46  49
ENDBRANCH  38  47
ENDBRANCH   5  38
TORSDOF 11
ENDMDL
MODEL 9
REMARK VINA RESULT:      -9.1      1.857      5.465
REMARK  Name = 44258878
REMARK  11 active torsions:
REMARK  status: ('A' for Active; 'I' for Inactive)
REMARK    1  A    between atoms: O_3  and  C_26
REMARK    2  A    between atoms: O_3  and  C_32
REMARK    3  A    between atoms: O_7  and  C_29
REMARK    4  A    between atoms: O_7  and  C_33
REMARK    5  A    between atoms: O_11  and  C_30
REMARK    6  A    between atoms: O_11  and  C_41
REMARK    7  A    between atoms: C_22  and  C_30
REMARK    8  A    between atoms: C_28  and  C_31
REMARK    9  A    between atoms: C_36  and  C_42
REMARK   10  A    between atoms: C_41  and  C_43
REMARK   11  A    between atoms: C_43  and  C_48
REMARK                            x       y       z     vdW  Elec       q    Type
REMARK                         _______ _______ _______ _____ _____    ______ ____
ROOT
ATOM      1  O   UNL     1     112.396 128.024 138.331  0.00  0.00    +0.000 OA
ATOM      2  O   UNL     1     112.682 129.809 136.639  0.00  0.00    +0.000 OA
ATOM      3  O   UNL     1     113.349 128.894 135.745  0.00  0.00    +0.000 OA
ATOM      4  C   UNL     1     112.211 129.380 137.918  0.00  0.00    +0.000 A 
ATOM      5  C   UNL     1     113.453 126.882 136.727  0.00  0.00    +0.000 A 
ATOM      6  C   UNL     1     112.868 128.453 137.052  0.00  0.00    +0.000 A 
ATOM      7  C   UNL     1     112.587 129.213 137.203  0.00  0.00    +0.000 A 
ATOM      8  C   UNL     1     112.115 128.785 138.482  0.00  0.00    +0.000 A 
ATOM      9  C   UNL     1     112.772 127.858 137.615  0.00  0.00    +0.000 A 
ATOM     10  C   UNL     1     113.060 127.062 137.469  0.00  0.00    +0.000 A 
ATOM     11  C   UNL     1     113.553 127.502 136.139  0.00  0.00    +0.000 A 
ATOM     12  C   UNL     1     113.258 128.292 136.303  0.00  0.00    +0.000 A 
ENDROOT
BRANCH   8  14
ATOM     13  O   UNL     1     110.607 129.450 141.341  0.00  0.00    +0.000 OA
ATOM     14  C   UNL     1     111.739 128.951 139.197  0.00  0.00    +0.000 A 
ATOM     15  C   UNL     1     112.131 129.385 139.779  0.00  0.00    +0.000 A 
ATOM     16  C   UNL     1     110.969 128.684 139.330  0.00  0.00    +0.000 A 
ATOM     17  C   UNL     1     111.753 129.551 140.494  0.00  0.00    +0.000 A 
ATOM     18  C   UNL     1     110.592 128.851 140.044  0.00  0.00    +0.000 A 
ATOM     19  C   UNL     1     110.985 129.284 140.627  0.00  0.00    +0.000 A 
ENDBRANCH   8  14
BRANCH   4  20
ATOM     20  O   UNL     1     111.930 130.141 138.070  0.00  0.00    +0.000 OA
BRANCH  20  29
ATOM     21  O   UNL     1     110.836 130.043 137.155  0.00  0.00    +0.000 OA
ATOM     22  O   UNL     1     109.823 131.570 135.970  0.00  0.00    +0.000 OA
ATOM     23  O   UNL     1     110.957 132.481 136.749  0.00  0.00    +0.000 OA
ATOM     24  O   UNL     1     112.010 131.767 137.799  0.00  0.00    +0.000 OA
ATOM     25  C   UNL     1     110.350 131.212 136.495  0.00  0.00    +0.000 C 
ATOM     26  C   UNL     1     110.917 131.668 136.884  0.00  0.00    +0.000 C 
ATOM     27  C   UNL     1     110.310 130.400 136.631  0.00  0.00    +0.000 C 
ATOM     28  C   UNL     1     111.444 131.311 137.410  0.00  0.00    +0.000 C 
ATOM     29  C   UNL     1     111.403 130.498 137.545  0.00  0.00    +0.000 C 
BRANCH  27  30
ATOM     30  C   UNL     1     109.743 129.945 136.241  0.00  0.00    +0.000 C 
BRANCH  30  31
ATOM     31  O   UNL     1     109.390 129.306 136.625  0.00  0.00    +0.000 OA
BRANCH  31  33
ATOM     32  O   UNL     1     108.178 129.040 135.916  0.00  0.00    +0.000 OA
ATOM     33  C   UNL     1     108.908 128.785 136.204  0.00  0.00    +0.000 C 
BRANCH  33  34
ATOM     34  C   UNL     1     109.156 128.010 136.070  0.00  0.00    +0.000 C 
BRANCH  34  37
ATOM     35  O   UNL     1     108.824 127.108 137.127  0.00  0.00    +0.000 OA
ATOM     36  O   UNL     1     108.147 127.019 135.873  0.00  0.00    +0.000 OA
ATOM     37  C   UNL     1     108.709 127.379 136.357  0.00  0.00    +0.000 C 
ENDBRANCH  34  37
ENDBRANCH  33  34
ENDBRANCH  31  33
ENDBRANCH  30  31
ENDBRANCH  27  30
ENDBRANCH  20  29
ENDBRANCH   4  20
BRANCH   5  38
ATOM     38  O   UNL     1     113.733 126.120 136.578  0.00  0.00    +0.000 OA
BRANCH  38  47
ATOM     39  O   UNL     1     112.471 125.563 136.206  0.00  0.00    +0.000 OA
ATOM     40  O   UNL     1     113.112 123.414 137.252  0.00  0.00    +0.000 OA
ATOM     41  O   UNL     1     111.636 123.572 136.532  0.00  0.00    +0.000 OA
ATOM     42  O   UNL     1     114.160 124.687 137.276  0.00  0.00    +0.000 OA
ATOM     43  C   UNL     1     112.898 124.130 136.904  0.00  0.00    +0.000 C 
ATOM     44  C   UNL     1     112.160 124.210 136.543  0.00  0.00    +0.000 C 
ATOM     45  C   UNL     1     113.422 124.767 136.915  0.00  0.00    +0.000 C 
ATOM     46  C   UNL     1     111.947 124.925 136.195  0.00  0.00    +0.000 C 
ATOM     47  C   UNL     1     113.209 125.484 136.567  0.00  0.00    +0.000 C 
BRANCH  46  49
ATOM     48  O   UNL     1     111.149 125.356 135.090  0.00  0.00    +0.000 OA
ATOM     49  C   UNL     1     111.209 125.005 135.834  0.00  0.00    +0.000 C 
ENDBRANCH  46  49
ENDBRANCH  38  47
ENDBRANCH   5  38
TORSDOF 11
ENDMDL
MODEL 10
REMARK VINA RESULT:      -9.1      2.765      3.991
REMARK  Name = 44258878
REMARK  11 active torsions:
REMARK  status: ('A' for Active; 'I' for Inactive)
REMARK    1  A    between atoms: O_3  and  C_26
REMARK    2  A    between atoms: O_3  and  C_32
REMARK    3  A    between atoms: O_7  and  C_29
REMARK    4  A    between atoms: O_7  and  C_33
REMARK    5  A    between atoms: O_11  and  C_30
REMARK    6  A    between atoms: O_11  and  C_41
REMARK    7  A    between atoms: C_22  and  C_30
REMARK    8  A    between atoms: C_28  and  C_31
REMARK    9  A    between atoms: C_36  and  C_42
REMARK   10  A    between atoms: C_41  and  C_43
REMARK   11  A    between atoms: C_43  and  C_48
REMARK                            x       y       z     vdW  Elec       q    Type
REMARK                         _______ _______ _______ _____ _____    ______ ____
ROOT
ATOM      1  O   UNL     1     111.299 129.918 139.162  0.00  0.00    +0.000 OA
ATOM      2  O   UNL     1     108.973 129.266 138.621  0.00  0.00    +0.000 OA
ATOM      3  O   UNL     1     108.477 129.965 139.782  0.00  0.00    +0.000 OA
ATOM      4  C   UNL     1     110.368 129.241 138.313  0.00  0.00    +0.000 A 
ATOM      5  C   UNL     1     110.213 130.892 140.854  0.00  0.00    +0.000 A 
ATOM      6  C   UNL     1     109.904 129.942 139.469  0.00  0.00    +0.000 A 
ATOM      7  C   UNL     1     109.749 129.483 138.802  0.00  0.00    +0.000 A 
ATOM      8  C   UNL     1     111.144 129.459 138.494  0.00  0.00    +0.000 A 
ATOM      9  C   UNL     1     110.679 130.159 139.649  0.00  0.00    +0.000 A 
ATOM     10  C   UNL     1     110.853 130.637 140.342  0.00  0.00    +0.000 A 
ATOM     11  C   UNL     1     109.404 130.665 140.666  0.00  0.00    +0.000 A 
ATOM     12  C   UNL     1     109.250 130.187 139.970  0.00  0.00    +0.000 A 
ENDROOT
BRANCH   8  14
ATOM     13  O   UNL     1     113.622 128.494 136.540  0.00  0.00    +0.000 OA
ATOM     14  C   UNL     1     111.763 129.217 138.006  0.00  0.00    +0.000 A 
ATOM     15  C   UNL     1     112.011 128.430 138.011  0.00  0.00    +0.000 A 
ATOM     16  C   UNL     1     112.136 129.764 137.511  0.00  0.00    +0.000 A 
ATOM     17  C   UNL     1     112.631 128.190 137.522  0.00  0.00    +0.000 A 
ATOM     18  C   UNL     1     112.755 129.522 137.023  0.00  0.00    +0.000 A 
ATOM     19  C   UNL     1     113.002 128.735 137.029  0.00  0.00    +0.000 A 
ENDBRANCH   8  14
BRANCH   4  20
ATOM     20  O   UNL     1     110.213 128.783 137.646  0.00  0.00    +0.000 OA
BRANCH  20  29
ATOM     21  O   UNL     1     109.673 129.858 136.876  0.00  0.00    +0.000 OA
ATOM     22  O   UNL     1     108.120 129.879 135.341  0.00  0.00    +0.000 OA
ATOM     23  O   UNL     1     108.155 128.275 135.729  0.00  0.00    +0.000 OA
ATOM     24  O   UNL     1     109.201 127.727 136.881  0.00  0.00    +0.000 OA
ATOM     25  C   UNL     1     108.644 129.605 135.918  0.00  0.00    +0.000 C 
ATOM     26  C   UNL     1     108.661 128.803 136.111  0.00  0.00    +0.000 C 
ATOM     27  C   UNL     1     109.150 130.132 136.300  0.00  0.00    +0.000 C 
ATOM     28  C   UNL     1     109.184 128.529 136.688  0.00  0.00    +0.000 C 
ATOM     29  C   UNL     1     109.690 129.057 137.070  0.00  0.00    +0.000 C 
BRANCH  27  30
ATOM     30  C   UNL     1     109.132 130.934 136.106  0.00  0.00    +0.000 C 
BRANCH  30  31
ATOM     31  O   UNL     1     109.735 131.435 136.362  0.00  0.00    +0.000 OA
BRANCH  31  33
ATOM     32  O   UNL     1     109.504 132.578 135.538  0.00  0.00    +0.000 OA
ATOM     33  C   UNL     1     109.657 132.252 136.280  0.00  0.00    +0.000 C 
BRANCH  33  34
ATOM     34  C   UNL     1     109.732 132.742 136.938  0.00  0.00    +0.000 C 
BRANCH  34  37
ATOM     35  O   UNL     1     110.605 133.813 136.573  0.00  0.00    +0.000 OA
ATOM     36  O   UNL     1     110.945 132.953 137.662  0.00  0.00    +0.000 OA
ATOM     37  C   UNL     1     110.427 133.170 137.057  0.00  0.00    +0.000 C 
ENDBRANCH  34  37
ENDBRANCH  33  34
ENDBRANCH  31  33
ENDBRANCH  30  31
ENDBRANCH  27  30
ENDBRANCH  20  29
ENDBRANCH   4  20
BRANCH   5  38
ATOM     38  O   UNL     1     110.371 131.350 141.521  0.00  0.00    +0.000 OA
BRANCH  38  47
ATOM     39  O   UNL     1     110.546 130.244 142.409  0.00  0.00    +0.000 OA
ATOM     40  O   UNL     1     112.237 131.530 143.678  0.00  0.00    +0.000 OA
ATOM     41  O   UNL     1     111.849 129.996 144.143  0.00  0.00    +0.000 OA
ATOM     42  O   UNL     1     111.499 132.208 142.367  0.00  0.00    +0.000 OA
ATOM     43  C   UNL     1     111.673 131.102 143.255  0.00  0.00    +0.000 C 
ATOM     44  C   UNL     1     111.479 130.334 143.487  0.00  0.00    +0.000 C 
ATOM     45  C   UNL     1     111.304 131.440 142.600  0.00  0.00    +0.000 C 
ATOM     46  C   UNL     1     110.916 129.906 143.065  0.00  0.00    +0.000 C 
ATOM     47  C   UNL     1     110.740 131.012 142.176  0.00  0.00    +0.000 C 
BRANCH  46  49
ATOM     48  O   UNL     1     109.940 128.949 143.482  0.00  0.00    +0.000 OA
ATOM     49  C   UNL     1     110.721 129.138 143.297  0.00  0.00    +0.000 C 
ENDBRANCH  46  49
ENDBRANCH  38  47
ENDBRANCH   5  38
TORSDOF 11
ENDMDL
