MODEL 1
REMARK VINA RESULT:      -9.6      0.000      0.000
REMARK  Name = 44258916
REMARK  4 active torsions:
REMARK  status: ('A' for Active; 'I' for Inactive)
REMARK    1  A    between atoms: O_2  and  C_16
REMARK    2  A    between atoms: O_2  and  C_18
REMARK    3  A    between atoms: C_15  and  C_17
REMARK    4  A    between atoms: C_26  and  C_27
REMARK                            x       y       z     vdW  Elec       q    Type
REMARK                         _______ _______ _______ _____ _____    ______ ____
ROOT
ATOM      1  O   UNL     1     105.142 123.809 139.650  0.00  0.00    +0.000 OA
ATOM      2  O   UNL     1     107.526 123.373 141.265  0.00  0.00    +0.000 OA
ATOM      3  O   UNL     1     105.134 126.203 140.278  0.00  0.00    +0.000 OA
ATOM      4  O   UNL     1     103.967 125.609 139.274  0.00  0.00    +0.000 OA
ATOM      5  C   UNL     1     106.325 125.225 140.884  0.00  0.00    +0.000 A 
ATOM      6  C   UNL     1     105.723 124.904 140.361  0.00  0.00    +0.000 A 
ATOM      7  C   UNL     1     106.938 124.708 141.191  0.00  0.00    +0.000 A 
ATOM      8  C   UNL     1     105.726 124.105 140.152  0.00  0.00    +0.000 A 
ATOM      9  C   UNL     1     105.137 125.405 140.069  0.00  0.00    +0.000 A 
ATOM     10  C   UNL     1     106.941 123.877 140.974  0.00  0.00    +0.000 A 
ATOM     11  C   UNL     1     106.331 123.574 140.451  0.00  0.00    +0.000 A 
ATOM     12  C   UNL     1     104.553 125.108 139.567  0.00  0.00    +0.000 A 
ATOM     13  C   UNL     1     104.556 124.310 139.358  0.00  0.00    +0.000 A 
ENDROOT
BRANCH  13  15
ATOM     14  O   UNL     1     102.222 123.124 137.348  0.00  0.00    +0.000 OA
ATOM     15  C   UNL     1     103.972 124.013 138.856  0.00  0.00    +0.000 A 
ATOM     16  C   UNL     1     104.141 123.884 138.058  0.00  0.00    +0.000 A 
ATOM     17  C   UNL     1     103.220 123.846 139.150  0.00  0.00    +0.000 A 
ATOM     18  C   UNL     1     103.558 123.588 137.556  0.00  0.00    +0.000 A 
ATOM     19  C   UNL     1     102.637 123.550 138.648  0.00  0.00    +0.000 A 
ATOM     20  C   UNL     1     102.805 123.420 137.850  0.00  0.00    +0.000 A 
ENDBRANCH  13  15
BRANCH   5  21
ATOM     21  O   UNL     1     106.315 126.025 141.087  0.00  0.00    +0.000 OA
BRANCH  21  30
ATOM     22  O   UNL     1     106.170 125.959 142.507  0.00  0.00    +0.000 OA
ATOM     23  O   UNL     1     108.025 127.576 142.772  0.00  0.00    +0.000 OA
ATOM     24  O   UNL     1     107.262 126.971 144.103  0.00  0.00    +0.000 OA
ATOM     25  O   UNL     1     107.552 127.103 141.263  0.00  0.00    +0.000 OA
ATOM     26  C   UNL     1     107.407 127.037 142.683  0.00  0.00    +0.000 C 
ATOM     27  C   UNL     1     107.025 126.734 143.349  0.00  0.00    +0.000 C 
ATOM     28  C   UNL     1     107.170 126.800 141.929  0.00  0.00    +0.000 C 
ATOM     29  C   UNL     1     106.406 126.195 143.261  0.00  0.00    +0.000 C 
ATOM     30  C   UNL     1     106.551 126.261 141.841  0.00  0.00    +0.000 C 
BRANCH  29  32
ATOM     31  O   UNL     1     105.201 125.853 143.948  0.00  0.00    +0.000 OA
ATOM     32  C   UNL     1     106.025 125.893 143.926  0.00  0.00    +0.000 C 
ENDBRANCH  29  32
ENDBRANCH  21  30
ENDBRANCH   5  21
TORSDOF 4
ENDMDL
MODEL 2
REMARK VINA RESULT:      -9.5      7.062      8.679
REMARK  Name = 44258916
REMARK  4 active torsions:
REMARK  status: ('A' for Active; 'I' for Inactive)
REMARK    1  A    between atoms: O_2  and  C_16
REMARK    2  A    between atoms: O_2  and  C_18
REMARK    3  A    between atoms: C_15  and  C_17
REMARK    4  A    between atoms: C_26  and  C_27
REMARK                            x       y       z     vdW  Elec       q    Type
REMARK                         _______ _______ _______ _____ _____    ______ ____
ROOT
ATOM      1  O   UNL     1     111.932 125.511 136.111  0.00  0.00    +0.000 OA
ATOM      2  O   UNL     1     109.434 125.555 134.615  0.00  0.00    +0.000 OA
ATOM      3  O   UNL     1     111.262 127.564 137.321  0.00  0.00    +0.000 OA
ATOM      4  O   UNL     1     112.713 126.850 137.647  0.00  0.00    +0.000 OA
ATOM      5  C   UNL     1     110.229 126.934 136.191  0.00  0.00    +0.000 A 
ATOM      6  C   UNL     1     110.983 126.552 136.351  0.00  0.00    +0.000 A 
ATOM      7  C   UNL     1     109.702 126.597 135.602  0.00  0.00    +0.000 A 
ATOM      8  C   UNL     1     111.205 125.868 135.948  0.00  0.00    +0.000 A 
ATOM      9  C   UNL     1     111.485 126.880 136.918  0.00  0.00    +0.000 A 
ATOM     10  C   UNL     1     109.934 125.885 135.182  0.00  0.00    +0.000 A 
ATOM     11  C   UNL     1     110.691 125.518 135.356  0.00  0.00    +0.000 A 
ATOM     12  C   UNL     1     112.211 126.523 137.081  0.00  0.00    +0.000 A 
ATOM     13  C   UNL     1     112.434 125.838 136.678  0.00  0.00    +0.000 A 
ENDROOT
BRANCH  13  15
ATOM     14  O   UNL     1     115.336 124.410 137.333  0.00  0.00    +0.000 OA
ATOM     15  C   UNL     1     113.160 125.482 136.841  0.00  0.00    +0.000 A 
ATOM     16  C   UNL     1     113.195 124.833 137.349  0.00  0.00    +0.000 A 
ATOM     17  C   UNL     1     113.850 125.773 136.497  0.00  0.00    +0.000 A 
ATOM     18  C   UNL     1     113.920 124.476 137.513  0.00  0.00    +0.000 A 
ATOM     19  C   UNL     1     114.575 125.416 136.661  0.00  0.00    +0.000 A 
ATOM     20  C   UNL     1     114.611 124.767 137.169  0.00  0.00    +0.000 A 
ENDBRANCH  13  15
BRANCH   5  21
ATOM     21  O   UNL     1     110.014 127.618 136.599  0.00  0.00    +0.000 OA
BRANCH  21  30
ATOM     22  O   UNL     1     110.223 128.631 135.613  0.00  0.00    +0.000 OA
ATOM     23  O   UNL     1     107.975 129.552 136.083  0.00  0.00    +0.000 OA
ATOM     24  O   UNL     1     108.932 130.257 134.941  0.00  0.00    +0.000 OA
ATOM     25  O   UNL     1     108.516 128.232 136.913  0.00  0.00    +0.000 OA
ATOM     26  C   UNL     1     108.724 129.245 135.926  0.00  0.00    +0.000 C 
ATOM     27  C   UNL     1     109.203 129.597 135.355  0.00  0.00    +0.000 C 
ATOM     28  C   UNL     1     108.995 128.584 136.341  0.00  0.00    +0.000 C 
ATOM     29  C   UNL     1     109.953 129.290 135.198  0.00  0.00    +0.000 C 
ATOM     30  C   UNL     1     109.744 128.277 136.184  0.00  0.00    +0.000 C 
BRANCH  29  32
ATOM     31  O   UNL     1     111.202 129.870 134.816  0.00  0.00    +0.000 OA
ATOM     32  C   UNL     1     110.431 129.643 134.627  0.00  0.00    +0.000 C 
ENDBRANCH  29  32
ENDBRANCH  21  30
ENDBRANCH   5  21
TORSDOF 4
ENDMDL
MODEL 3
REMARK VINA RESULT:      -9.4      5.855      7.664
REMARK  Name = 44258916
REMARK  4 active torsions:
REMARK  status: ('A' for Active; 'I' for Inactive)
REMARK    1  A    between atoms: O_2  and  C_16
REMARK    2  A    between atoms: O_2  and  C_18
REMARK    3  A    between atoms: C_15  and  C_17
REMARK    4  A    between atoms: C_26  and  C_27
REMARK                            x       y       z     vdW  Elec       q    Type
REMARK                         _______ _______ _______ _____ _____    ______ ____
ROOT
ATOM      1  O   UNL     1     113.605 126.419 138.858  0.00  0.00    +0.000 OA
ATOM      2  O   UNL     1     113.140 127.727 141.418  0.00  0.00    +0.000 OA
ATOM      3  O   UNL     1     111.307 125.502 138.889  0.00  0.00    +0.000 OA
ATOM      4  O   UNL     1     112.310 125.170 137.623  0.00  0.00    +0.000 OA
ATOM      5  C   UNL     1     111.805 126.445 140.156  0.00  0.00    +0.000 A 
ATOM      6  C   UNL     1     112.337 126.280 139.502  0.00  0.00    +0.000 A 
ATOM      7  C   UNL     1     112.075 126.936 140.807  0.00  0.00    +0.000 A 
ATOM      8  C   UNL     1     113.104 126.585 139.492  0.00  0.00    +0.000 A 
ATOM      9  C   UNL     1     112.073 125.808 138.879  0.00  0.00    +0.000 A 
ATOM     10  C   UNL     1     112.873 127.254 140.797  0.00  0.00    +0.000 A 
ATOM     11  C   UNL     1     113.390 127.078 140.134  0.00  0.00    +0.000 A 
ATOM     12  C   UNL     1     112.574 125.641 138.245  0.00  0.00    +0.000 A 
ATOM     13  C   UNL     1     113.341 125.947 138.235  0.00  0.00    +0.000 A 
ENDROOT
BRANCH  13  15
ATOM     14  O   UNL     1     115.347 125.279 135.702  0.00  0.00    +0.000 OA
ATOM     15  C   UNL     1     113.842 125.781 137.601  0.00  0.00    +0.000 A 
ATOM     16  C   UNL     1     114.339 125.122 137.631  0.00  0.00    +0.000 A 
ATOM     17  C   UNL     1     113.848 126.271 136.939  0.00  0.00    +0.000 A 
ATOM     18  C   UNL     1     114.840 124.955 136.998  0.00  0.00    +0.000 A 
ATOM     19  C   UNL     1     114.349 126.104 136.306  0.00  0.00    +0.000 A 
ATOM     20  C   UNL     1     114.846 125.446 136.335  0.00  0.00    +0.000 A 
ENDBRANCH  13  15
BRANCH   5  21
ATOM     21  O   UNL     1     111.040 126.135 140.158  0.00  0.00    +0.000 OA
BRANCH  21  30
ATOM     22  O   UNL     1     110.251 127.318 140.013  0.00  0.00    +0.000 OA
ATOM     23  O   UNL     1     108.811 126.587 141.888  0.00  0.00    +0.000 OA
ATOM     24  O   UNL     1     108.502 128.012 141.118  0.00  0.00    +0.000 OA
ATOM     25  O   UNL     1     110.080 125.648 141.409  0.00  0.00    +0.000 OA
ATOM     26  C   UNL     1     109.291 126.831 141.263  0.00  0.00    +0.000 C 
ATOM     27  C   UNL     1     109.137 127.543 140.877  0.00  0.00    +0.000 C 
ATOM     28  C   UNL     1     109.926 126.361 141.023  0.00  0.00    +0.000 C 
ATOM     29  C   UNL     1     109.617 127.787 140.252  0.00  0.00    +0.000 C 
ATOM     30  C   UNL     1     110.406 126.605 140.398  0.00  0.00    +0.000 C 
BRANCH  29  32
ATOM     31  O   UNL     1     109.420 128.523 139.043  0.00  0.00    +0.000 OA
ATOM     32  C   UNL     1     109.462 128.499 139.867  0.00  0.00    +0.000 C 
ENDBRANCH  29  32
ENDBRANCH  21  30
ENDBRANCH   5  21
TORSDOF 4
ENDMDL
MODEL 4
REMARK VINA RESULT:      -9.4      7.396      9.079
REMARK  Name = 44258916
REMARK  4 active torsions:
REMARK  status: ('A' for Active; 'I' for Inactive)
REMARK    1  A    between atoms: O_2  and  C_16
REMARK    2  A    between atoms: O_2  and  C_18
REMARK    3  A    between atoms: C_15  and  C_17
REMARK    4  A    between atoms: C_26  and  C_27
REMARK                            x       y       z     vdW  Elec       q    Type
REMARK                         _______ _______ _______ _____ _____    ______ ____
ROOT
ATOM      1  O   UNL     1     113.403 127.653 136.724  0.00  0.00    +0.000 OA
ATOM      2  O   UNL     1     113.004 130.514 136.354  0.00  0.00    +0.000 OA
ATOM      3  O   UNL     1     111.121 127.208 135.874  0.00  0.00    +0.000 OA
ATOM      4  O   UNL     1     112.086 125.955 136.342  0.00  0.00    +0.000 OA
ATOM      5  C   UNL     1     111.647 128.777 135.959  0.00  0.00    +0.000 A 
ATOM      6  C   UNL     1     112.160 128.132 136.206  0.00  0.00    +0.000 A 
ATOM      7  C   UNL     1     111.931 129.586 136.008  0.00  0.00    +0.000 A 
ATOM      8  C   UNL     1     112.920 128.281 136.490  0.00  0.00    +0.000 A 
ATOM      9  C   UNL     1     111.882 127.357 136.157  0.00  0.00    +0.000 A 
ATOM     10  C   UNL     1     112.723 129.740 136.303  0.00  0.00    +0.000 A 
ATOM     11  C   UNL     1     113.221 129.083 136.545  0.00  0.00    +0.000 A 
ATOM     12  C   UNL     1     112.364 126.730 136.391  0.00  0.00    +0.000 A 
ATOM     13  C   UNL     1     113.125 126.878 136.674  0.00  0.00    +0.000 A 
ENDROOT
BRANCH  13  15
ATOM     14  O   UNL     1     115.053 124.370 137.612  0.00  0.00    +0.000 OA
ATOM     15  C   UNL     1     113.607 126.251 136.908  0.00  0.00    +0.000 A 
ATOM     16  C   UNL     1     113.593 125.990 137.691  0.00  0.00    +0.000 A 
ATOM     17  C   UNL     1     114.103 125.885 136.361  0.00  0.00    +0.000 A 
ATOM     18  C   UNL     1     114.075 125.363 137.925  0.00  0.00    +0.000 A 
ATOM     19  C   UNL     1     114.584 125.258 136.595  0.00  0.00    +0.000 A 
ATOM     20  C   UNL     1     114.571 124.996 137.378  0.00  0.00    +0.000 A 
ENDBRANCH  13  15
BRANCH   5  21
ATOM     21  O   UNL     1     110.888 128.619 135.677  0.00  0.00    +0.000 OA
BRANCH  21  30
ATOM     22  O   UNL     1     110.111 129.118 136.768  0.00  0.00    +0.000 OA
ATOM     23  O   UNL     1     108.587 130.237 135.170  0.00  0.00    +0.000 OA
ATOM     24  O   UNL     1     108.319 130.363 136.792  0.00  0.00    +0.000 OA
ATOM     25  O   UNL     1     109.872 129.365 134.612  0.00  0.00    +0.000 OA
ATOM     26  C   UNL     1     109.095 129.864 135.703  0.00  0.00    +0.000 C 
ATOM     27  C   UNL     1     108.961 129.927 136.514  0.00  0.00    +0.000 C 
ATOM     28  C   UNL     1     109.738 129.427 135.424  0.00  0.00    +0.000 C 
ATOM     29  C   UNL     1     109.469 129.554 137.047  0.00  0.00    +0.000 C 
ATOM     30  C   UNL     1     110.246 129.054 135.956  0.00  0.00    +0.000 C 
BRANCH  29  32
ATOM     31  O   UNL     1     109.335 128.941 138.331  0.00  0.00    +0.000 OA
ATOM     32  C   UNL     1     109.334 129.617 137.857  0.00  0.00    +0.000 C 
ENDBRANCH  29  32
ENDBRANCH  21  30
ENDBRANCH   5  21
TORSDOF 4
ENDMDL
MODEL 5
REMARK VINA RESULT:      -9.3      3.894      6.833
REMARK  Name = 44258916
REMARK  4 active torsions:
REMARK  status: ('A' for Active; 'I' for Inactive)
REMARK    1  A    between atoms: O_2  and  C_16
REMARK    2  A    between atoms: O_2  and  C_18
REMARK    3  A    between atoms: C_15  and  C_17
REMARK    4  A    between atoms: C_26  and  C_27
REMARK                            x       y       z     vdW  Elec       q    Type
REMARK                         _______ _______ _______ _____ _____    ______ ____
ROOT
ATOM      1  O   UNL     1     106.315 126.593 146.903  0.00  0.00    +0.000 OA
ATOM      2  O   UNL     1     105.111 128.997 145.786  0.00  0.00    +0.000 OA
ATOM      3  O   UNL     1     106.504 125.614 144.638  0.00  0.00    +0.000 OA
ATOM      4  O   UNL     1     107.031 124.764 145.950  0.00  0.00    +0.000 OA
ATOM      5  C   UNL     1     105.843 127.124 144.800  0.00  0.00    +0.000 A 
ATOM      6  C   UNL     1     106.115 126.691 145.492  0.00  0.00    +0.000 A 
ATOM      7  C   UNL     1     105.503 127.907 144.897  0.00  0.00    +0.000 A 
ATOM      8  C   UNL     1     106.051 127.018 146.247  0.00  0.00    +0.000 A 
ATOM      9  C   UNL     1     106.441 125.941 145.393  0.00  0.00    +0.000 A 
ATOM     10  C   UNL     1     105.437 128.246 145.683  0.00  0.00    +0.000 A 
ATOM     11  C   UNL     1     105.713 127.799 146.363  0.00  0.00    +0.000 A 
ATOM     12  C   UNL     1     106.705 125.515 146.049  0.00  0.00    +0.000 A 
ATOM     13  C   UNL     1     106.642 125.842 146.804  0.00  0.00    +0.000 A 
ENDROOT
BRANCH  13  15
ATOM     14  O   UNL     1     107.694 124.140 149.428  0.00  0.00    +0.000 OA
ATOM     15  C   UNL     1     106.905 125.416 147.460  0.00  0.00    +0.000 A 
ATOM     16  C   UNL     1     106.366 124.998 147.924  0.00  0.00    +0.000 A 
ATOM     17  C   UNL     1     107.707 125.409 147.653  0.00  0.00    +0.000 A 
ATOM     18  C   UNL     1     106.629 124.573 148.580  0.00  0.00    +0.000 A 
ATOM     19  C   UNL     1     107.970 124.984 148.309  0.00  0.00    +0.000 A 
ATOM     20  C   UNL     1     107.431 124.565 148.772  0.00  0.00    +0.000 A 
ENDBRANCH  13  15
BRANCH   5  21
ATOM     21  O   UNL     1     105.910 126.790 144.049  0.00  0.00    +0.000 OA
BRANCH  21  30
ATOM     22  O   UNL     1     106.932 127.607 143.475  0.00  0.00    +0.000 OA
ATOM     23  O   UNL     1     105.571 127.869 141.424  0.00  0.00    +0.000 OA
ATOM     24  O   UNL     1     107.046 128.599 141.534  0.00  0.00    +0.000 OA
ATOM     25  O   UNL     1     105.003 126.965 142.682  0.00  0.00    +0.000 OA
ATOM     26  C   UNL     1     106.025 127.782 142.108  0.00  0.00    +0.000 C 
ATOM     27  C   UNL     1     106.763 128.147 142.163  0.00  0.00    +0.000 C 
ATOM     28  C   UNL     1     105.741 127.329 142.737  0.00  0.00    +0.000 C 
ATOM     29  C   UNL     1     107.216 128.059 142.847  0.00  0.00    +0.000 C 
ATOM     30  C   UNL     1     106.195 127.242 143.421  0.00  0.00    +0.000 C 
BRANCH  29  32
ATOM     31  O   UNL     1     108.587 128.027 143.250  0.00  0.00    +0.000 OA
ATOM     32  C   UNL     1     107.954 128.424 142.901  0.00  0.00    +0.000 C 
ENDBRANCH  29  32
ENDBRANCH  21  30
ENDBRANCH   5  21
TORSDOF 4
ENDMDL
MODEL 6
REMARK VINA RESULT:      -9.2      8.401      9.467
REMARK  Name = 44258916
REMARK  4 active torsions:
REMARK  status: ('A' for Active; 'I' for Inactive)
REMARK    1  A    between atoms: O_2  and  C_16
REMARK    2  A    between atoms: O_2  and  C_18
REMARK    3  A    between atoms: C_15  and  C_17
REMARK    4  A    between atoms: C_26  and  C_27
REMARK                            x       y       z     vdW  Elec       q    Type
REMARK                         _______ _______ _______ _____ _____    ______ ____
ROOT
ATOM      1  O   UNL     1     113.713 127.346 136.326  0.00  0.00    +0.000 OA
ATOM      2  O   UNL     1     114.234 129.906 135.039  0.00  0.00    +0.000 OA
ATOM      3  O   UNL     1     112.270 128.461 137.999  0.00  0.00    +0.000 OA
ATOM      4  O   UNL     1     112.501 126.829 138.066  0.00  0.00    +0.000 OA
ATOM      5  C   UNL     1     112.988 129.384 136.826  0.00  0.00    +0.000 A 
ATOM      6  C   UNL     1     113.117 128.534 136.850  0.00  0.00    +0.000 A 
ATOM      7  C   UNL     1     113.366 129.852 136.212  0.00  0.00    +0.000 A 
ATOM      8  C   UNL     1     113.598 128.162 136.292  0.00  0.00    +0.000 A 
ATOM      9  C   UNL     1     112.751 128.090 137.441  0.00  0.00    +0.000 A 
ATOM     10  C   UNL     1     113.867 129.464 135.632  0.00  0.00    +0.000 A 
ATOM     11  C   UNL     1     113.983 128.614 135.672  0.00  0.00    +0.000 A 
ATOM     12  C   UNL     1     112.866 127.273 137.475  0.00  0.00    +0.000 A 
ATOM     13  C   UNL     1     113.347 126.902 136.917  0.00  0.00    +0.000 A 
ENDROOT
BRANCH  13  15
ATOM     14  O   UNL     1     113.810 123.637 137.054  0.00  0.00    +0.000 OA
ATOM     15  C   UNL     1     113.462 126.085 136.951  0.00  0.00    +0.000 A 
ATOM     16  C   UNL     1     114.096 125.776 137.380  0.00  0.00    +0.000 A 
ATOM     17  C   UNL     1     112.945 125.579 136.557  0.00  0.00    +0.000 A 
ATOM     18  C   UNL     1     114.211 124.960 137.414  0.00  0.00    +0.000 A 
ATOM     19  C   UNL     1     113.061 124.763 136.591  0.00  0.00    +0.000 A 
ATOM     20  C   UNL     1     113.694 124.453 137.019  0.00  0.00    +0.000 A 
ENDBRANCH  13  15
BRANCH   5  21
ATOM     21  O   UNL     1     112.506 129.747 137.388  0.00  0.00    +0.000 OA
BRANCH  21  30
ATOM     22  O   UNL     1     111.378 130.082 136.577  0.00  0.00    +0.000 OA
ATOM     23  O   UNL     1     111.327 132.343 137.583  0.00  0.00    +0.000 OA
ATOM     24  O   UNL     1     110.217 131.925 136.437  0.00  0.00    +0.000 OA
ATOM     25  O   UNL     1     112.472 131.254 138.059  0.00  0.00    +0.000 OA
ATOM     26  C   UNL     1     111.344 131.590 137.248  0.00  0.00    +0.000 C 
ATOM     27  C   UNL     1     110.789 131.380 136.674  0.00  0.00    +0.000 C 
ATOM     28  C   UNL     1     111.917 131.045 137.486  0.00  0.00    +0.000 C 
ATOM     29  C   UNL     1     110.806 130.626 136.339  0.00  0.00    +0.000 C 
ATOM     30  C   UNL     1     111.934 130.291 137.150  0.00  0.00    +0.000 C 
BRANCH  29  32
ATOM     31  O   UNL     1     109.911 129.666 135.775  0.00  0.00    +0.000 OA
ATOM     32  C   UNL     1     110.251 130.418 135.766  0.00  0.00    +0.000 C 
ENDBRANCH  29  32
ENDBRANCH  21  30
ENDBRANCH   5  21
TORSDOF 4
ENDMDL
MODEL 7
REMARK VINA RESULT:      -9.0      8.159      9.615
REMARK  Name = 44258916
REMARK  4 active torsions:
REMARK  status: ('A' for Active; 'I' for Inactive)
REMARK    1  A    between atoms: O_2  and  C_16
REMARK    2  A    between atoms: O_2  and  C_18
REMARK    3  A    between atoms: C_15  and  C_17
REMARK    4  A    between atoms: C_26  and  C_27
REMARK                            x       y       z     vdW  Elec       q    Type
REMARK                         _______ _______ _______ _____ _____    ______ ____
ROOT
ATOM      1  O   UNL     1     111.817 126.398 136.150  0.00  0.00    +0.000 OA
ATOM      2  O   UNL     1     110.996 128.810 134.740  0.00  0.00    +0.000 OA
ATOM      3  O   UNL     1     113.514 127.689 137.406  0.00  0.00    +0.000 OA
ATOM      4  O   UNL     1     113.345 126.071 137.674  0.00  0.00    +0.000 OA
ATOM      5  C   UNL     1     112.565 128.482 136.304  0.00  0.00    +0.000 A 
ATOM      6  C   UNL     1     112.467 127.638 136.435  0.00  0.00    +0.000 A 
ATOM      7  C   UNL     1     112.067 128.882 135.730  0.00  0.00    +0.000 A 
ATOM      8  C   UNL     1     111.901 127.208 136.015  0.00  0.00    +0.000 A 
ATOM      9  C   UNL     1     112.948 127.259 136.987  0.00  0.00    +0.000 A 
ATOM     10  C   UNL     1     111.478 128.434 135.293  0.00  0.00    +0.000 A 
ATOM     11  C   UNL     1     111.395 127.591 135.437  0.00  0.00    +0.000 A 
ATOM     12  C   UNL     1     112.864 126.449 137.122  0.00  0.00    +0.000 A 
ATOM     13  C   UNL     1     112.298 126.019 136.703  0.00  0.00    +0.000 A 
ENDROOT
BRANCH  13  15
ATOM     14  O   UNL     1     111.963 122.780 137.238  0.00  0.00    +0.000 OA
ATOM     15  C   UNL     1     112.214 125.209 136.837  0.00  0.00    +0.000 A 
ATOM     16  C   UNL     1     112.675 124.671 136.414  0.00  0.00    +0.000 A 
ATOM     17  C   UNL     1     111.670 124.937 137.393  0.00  0.00    +0.000 A 
ATOM     18  C   UNL     1     112.591 123.862 136.548  0.00  0.00    +0.000 A 
ATOM     19  C   UNL     1     111.586 124.128 137.527  0.00  0.00    +0.000 A 
ATOM     20  C   UNL     1     112.046 123.589 137.104  0.00  0.00    +0.000 A 
ENDBRANCH  13  15
BRANCH   5  21
ATOM     21  O   UNL     1     113.133 128.905 136.728  0.00  0.00    +0.000 OA
BRANCH  21  30
ATOM     22  O   UNL     1     114.056 129.207 135.679  0.00  0.00    +0.000 OA
ATOM     23  O   UNL     1     114.213 131.540 136.489  0.00  0.00    +0.000 OA
ATOM     24  O   UNL     1     115.083 131.064 135.171  0.00  0.00    +0.000 OA
ATOM     25  O   UNL     1     113.238 130.460 137.268  0.00  0.00    +0.000 OA
ATOM     26  C   UNL     1     114.161 130.762 136.219  0.00  0.00    +0.000 C 
ATOM     27  C   UNL     1     114.596 130.524 135.560  0.00  0.00    +0.000 C 
ATOM     28  C   UNL     1     113.673 130.222 136.609  0.00  0.00    +0.000 C 
ATOM     29  C   UNL     1     114.543 129.746 135.290  0.00  0.00    +0.000 C 
ATOM     30  C   UNL     1     113.621 129.444 136.339  0.00  0.00    +0.000 C 
BRANCH  29  32
ATOM     31  O   UNL     1     115.327 128.761 134.614  0.00  0.00    +0.000 OA
ATOM     32  C   UNL     1     114.978 129.509 134.631  0.00  0.00    +0.000 C 
ENDBRANCH  29  32
ENDBRANCH  21  30
ENDBRANCH   5  21
TORSDOF 4
ENDMDL
MODEL 8
REMARK VINA RESULT:      -8.9      6.552      7.675
REMARK  Name = 44258916
REMARK  4 active torsions:
REMARK  status: ('A' for Active; 'I' for Inactive)
REMARK    1  A    between atoms: O_2  and  C_16
REMARK    2  A    between atoms: O_2  and  C_18
REMARK    3  A    between atoms: C_15  and  C_17
REMARK    4  A    between atoms: C_26  and  C_27
REMARK                            x       y       z     vdW  Elec       q    Type
REMARK                         _______ _______ _______ _____ _____    ______ ____
ROOT
ATOM      1  O   UNL     1     113.151 126.279 138.956  0.00  0.00    +0.000 OA
ATOM      2  O   UNL     1     114.960 127.099 141.086  0.00  0.00    +0.000 OA
ATOM      3  O   UNL     1     111.925 128.421 139.150  0.00  0.00    +0.000 OA
ATOM      4  O   UNL     1     111.451 127.297 138.039  0.00  0.00    +0.000 OA
ATOM      5  C   UNL     1     113.217 128.149 140.150  0.00  0.00    +0.000 A 
ATOM      6  C   UNL     1     112.979 127.555 139.576  0.00  0.00    +0.000 A 
ATOM      7  C   UNL     1     113.888 127.997 140.664  0.00  0.00    +0.000 A 
ATOM      8  C   UNL     1     113.388 126.842 139.511  0.00  0.00    +0.000 A 
ATOM      9  C   UNL     1     112.334 127.707 139.086  0.00  0.00    +0.000 A 
ATOM     10  C   UNL     1     114.314 127.254 140.597  0.00  0.00    +0.000 A 
ATOM     11  C   UNL     1     114.062 126.672 140.016  0.00  0.00    +0.000 A 
ATOM     12  C   UNL     1     112.096 127.145 138.530  0.00  0.00    +0.000 A 
ATOM     13  C   UNL     1     112.505 126.431 138.465  0.00  0.00    +0.000 A 
ENDROOT
BRANCH  13  15
ATOM     14  O   UNL     1     111.554 124.183 136.245  0.00  0.00    +0.000 OA
ATOM     15  C   UNL     1     112.268 125.869 137.909  0.00  0.00    +0.000 A 
ATOM     16  C   UNL     1     111.700 125.305 138.111  0.00  0.00    +0.000 A 
ATOM     17  C   UNL     1     112.597 125.871 137.154  0.00  0.00    +0.000 A 
ATOM     18  C   UNL     1     111.463 124.743 137.556  0.00  0.00    +0.000 A 
ATOM     19  C   UNL     1     112.359 125.309 136.599  0.00  0.00    +0.000 A 
ATOM     20  C   UNL     1     111.792 124.745 136.800  0.00  0.00    +0.000 A 
ENDBRANCH  13  15
BRANCH   5  21
ATOM     21  O   UNL     1     112.802 128.860 140.208  0.00  0.00    +0.000 OA
BRANCH  21  30
ATOM     22  O   UNL     1     112.233 128.717 141.511  0.00  0.00    +0.000 OA
ATOM     23  O   UNL     1     112.883 131.042 142.052  0.00  0.00    +0.000 OA
ATOM     24  O   UNL     1     112.098 130.123 143.174  0.00  0.00    +0.000 OA
ATOM     25  O   UNL     1     113.236 130.411 140.569  0.00  0.00    +0.000 OA
ATOM     26  C   UNL     1     112.666 130.267 141.872  0.00  0.00    +0.000 C 
ATOM     27  C   UNL     1     112.274 129.807 142.432  0.00  0.00    +0.000 C 
ATOM     28  C   UNL     1     112.843 129.951 141.130  0.00  0.00    +0.000 C 
ATOM     29  C   UNL     1     112.057 129.032 142.252  0.00  0.00    +0.000 C 
ATOM     30  C   UNL     1     112.626 129.176 140.949  0.00  0.00    +0.000 C 
BRANCH  29  32
ATOM     31  O   UNL     1     111.067 128.054 142.578  0.00  0.00    +0.000 OA
ATOM     32  C   UNL     1     111.664 128.573 142.813  0.00  0.00    +0.000 C 
ENDBRANCH  29  32
ENDBRANCH  21  30
ENDBRANCH   5  21
TORSDOF 4
ENDMDL
MODEL 9
REMARK VINA RESULT:      -8.9      7.294      9.758
REMARK  Name = 44258916
REMARK  4 active torsions:
REMARK  status: ('A' for Active; 'I' for Inactive)
REMARK    1  A    between atoms: O_2  and  C_16
REMARK    2  A    between atoms: O_2  and  C_18
REMARK    3  A    between atoms: C_15  and  C_17
REMARK    4  A    between atoms: C_26  and  C_27
REMARK                            x       y       z     vdW  Elec       q    Type
REMARK                         _______ _______ _______ _____ _____    ______ ____
ROOT
ATOM      1  O   UNL     1     113.215 129.191 138.906  0.00  0.00    +0.000 OA
ATOM      2  O   UNL     1     112.047 128.347 136.375  0.00  0.00    +0.000 OA
ATOM      3  O   UNL     1     112.977 126.896 139.801  0.00  0.00    +0.000 OA
ATOM      4  O   UNL     1     113.630 128.084 140.741  0.00  0.00    +0.000 OA
ATOM      5  C   UNL     1     112.471 127.204 138.255  0.00  0.00    +0.000 A 
ATOM      6  C   UNL     1     112.809 127.832 138.735  0.00  0.00    +0.000 A 
ATOM      7  C   UNL     1     112.211 127.376 137.454  0.00  0.00    +0.000 A 
ATOM      8  C   UNL     1     112.888 128.597 138.436  0.00  0.00    +0.000 A 
ATOM      9  C   UNL     1     113.056 127.661 139.502  0.00  0.00    +0.000 A 
ATOM     10  C   UNL     1     112.294 128.172 137.143  0.00  0.00    +0.000 A 
ATOM     11  C   UNL     1     112.634 128.787 137.638  0.00  0.00    +0.000 A 
ATOM     12  C   UNL     1     113.383 128.255 139.973  0.00  0.00    +0.000 A 
ATOM     13  C   UNL     1     113.462 129.020 139.674  0.00  0.00    +0.000 A 
ENDROOT
BRANCH  13  15
ATOM     14  O   UNL     1     114.770 131.396 141.554  0.00  0.00    +0.000 OA
ATOM     15  C   UNL     1     113.789 129.615 140.145  0.00  0.00    +0.000 A 
ATOM     16  C   UNL     1     114.583 129.819 140.057  0.00  0.00    +0.000 A 
ATOM     17  C   UNL     1     113.322 130.003 140.702  0.00  0.00    +0.000 A 
ATOM     18  C   UNL     1     114.910 130.413 140.527  0.00  0.00    +0.000 A 
ATOM     19  C   UNL     1     113.649 130.597 141.172  0.00  0.00    +0.000 A 
ATOM     20  C   UNL     1     114.444 130.802 141.084  0.00  0.00    +0.000 A 
ENDBRANCH  13  15
BRANCH   5  21
ATOM     21  O   UNL     1     112.395 126.441 138.562  0.00  0.00    +0.000 OA
BRANCH  21  30
ATOM     22  O   UNL     1     113.344 125.695 137.797  0.00  0.00    +0.000 OA
ATOM     23  O   UNL     1     111.603 124.014 137.277  0.00  0.00    +0.000 OA
ATOM     24  O   UNL     1     113.131 123.829 136.686  0.00  0.00    +0.000 OA
ATOM     25  O   UNL     1     111.235 125.321 138.215  0.00  0.00    +0.000 OA
ATOM     26  C   UNL     1     112.183 124.575 137.451  0.00  0.00    +0.000 C 
ATOM     27  C   UNL     1     112.948 124.482 137.155  0.00  0.00    +0.000 C 
ATOM     28  C   UNL     1     111.999 125.228 137.920  0.00  0.00    +0.000 C 
ATOM     29  C   UNL     1     113.528 125.042 137.328  0.00  0.00    +0.000 C 
ATOM     30  C   UNL     1     112.580 125.789 138.093  0.00  0.00    +0.000 C 
BRANCH  29  32
ATOM     31  O   UNL     1     114.943 125.047 137.531  0.00  0.00    +0.000 OA
ATOM     32  C   UNL     1     114.292 124.949 137.033  0.00  0.00    +0.000 C 
ENDBRANCH  29  32
ENDBRANCH  21  30
ENDBRANCH   5  21
TORSDOF 4
ENDMDL
MODEL 10
REMARK VINA RESULT:      -8.8      7.039      8.308
REMARK  Name = 44258916
REMARK  4 active torsions:
REMARK  status: ('A' for Active; 'I' for Inactive)
REMARK    1  A    between atoms: O_2  and  C_16
REMARK    2  A    between atoms: O_2  and  C_18
REMARK    3  A    between atoms: C_15  and  C_17
REMARK    4  A    between atoms: C_26  and  C_27
REMARK                            x       y       z     vdW  Elec       q    Type
REMARK                         _______ _______ _______ _____ _____    ______ ____
ROOT
ATOM      1  O   UNL     1     110.668 129.636 135.564  0.00  0.00    +0.000 OA
ATOM      2  O   UNL     1     113.188 128.203 135.840  0.00  0.00    +0.000 OA
ATOM      3  O   UNL     1     109.427 127.495 135.598  0.00  0.00    +0.000 OA
ATOM      4  O   UNL     1     108.609 128.920 135.451  0.00  0.00    +0.000 OA
ATOM      5  C   UNL     1     111.078 127.460 135.725  0.00  0.00    +0.000 A 
ATOM      6  C   UNL     1     110.663 128.210 135.649  0.00  0.00    +0.000 A 
ATOM      7  C   UNL     1     111.934 127.455 135.790  0.00  0.00    +0.000 A 
ATOM      8  C   UNL     1     111.077 128.923 135.638  0.00  0.00    +0.000 A 
ATOM      9  C   UNL     1     109.841 128.208 135.587  0.00  0.00    +0.000 A 
ATOM     10  C   UNL     1     112.365 128.198 135.778  0.00  0.00    +0.000 A 
ATOM     11  C   UNL     1     111.934 128.937 135.701  0.00  0.00    +0.000 A 
ATOM     12  C   UNL     1     109.431 128.921 135.513  0.00  0.00    +0.000 A 
ATOM     13  C   UNL     1     109.845 129.635 135.502  0.00  0.00    +0.000 A 
ENDROOT
BRANCH  13  15
ATOM     14  O   UNL     1     108.207 132.485 135.210  0.00  0.00    +0.000 OA
ATOM     15  C   UNL     1     109.436 130.348 135.428  0.00  0.00    +0.000 A 
ATOM     16  C   UNL     1     109.120 130.712 136.098  0.00  0.00    +0.000 A 
ATOM     17  C   UNL     1     109.342 130.695 134.687  0.00  0.00    +0.000 A 
ATOM     18  C   UNL     1     108.710 131.424 136.025  0.00  0.00    +0.000 A 
ATOM     19  C   UNL     1     108.933 131.407 134.614  0.00  0.00    +0.000 A 
ATOM     20  C   UNL     1     108.617 131.772 135.283  0.00  0.00    +0.000 A 
ENDBRANCH  13  15
BRANCH   5  21
ATOM     21  O   UNL     1     110.656 126.751 135.736  0.00  0.00    +0.000 OA
BRANCH  21  30
ATOM     22  O   UNL     1     110.870 126.303 137.076  0.00  0.00    +0.000 OA
ATOM     23  O   UNL     1     111.491 124.063 136.227  0.00  0.00    +0.000 OA
ATOM     24  O   UNL     1     111.498 124.362 137.849  0.00  0.00    +0.000 OA
ATOM     25  O   UNL     1     111.070 125.258 135.170  0.00  0.00    +0.000 OA
ATOM     26  C   UNL     1     111.284 124.810 136.510  0.00  0.00    +0.000 C 
ATOM     27  C   UNL     1     111.287 124.959 137.321  0.00  0.00    +0.000 C 
ATOM     28  C   UNL     1     111.073 125.408 135.981  0.00  0.00    +0.000 C 
ATOM     29  C   UNL     1     111.080 125.706 137.604  0.00  0.00    +0.000 C 
ATOM     30  C   UNL     1     110.866 126.154 136.264  0.00  0.00    +0.000 C 
BRANCH  29  32
ATOM     31  O   UNL     1     110.468 126.284 138.759  0.00  0.00    +0.000 OA
ATOM     32  C   UNL     1     111.083 125.855 138.415  0.00  0.00    +0.000 C 
ENDBRANCH  29  32
ENDBRANCH  21  30
ENDBRANCH   5  21
TORSDOF 4
ENDMDL
