MODEL 1
REMARK VINA RESULT:      -8.2      0.000      0.000
REMARK  Name = 44258655
REMARK  4 active torsions:
REMARK  status: ('A' for Active; 'I' for Inactive)
REMARK    1  A    between atoms: O_2  and  C_13
REMARK    2  A    between atoms: O_3  and  C_18
REMARK    3  A    between atoms: O_7  and  C_22
REMARK    4  A    between atoms: C_12  and  C_15
REMARK                            x       y       z     vdW  Elec       q    Type
REMARK                         _______ _______ _______ _____ _____    ______ ____
ROOT
ATOM      1  O   UNL     1     104.204 124.947 147.381  0.00  0.00    +0.000 OA
ATOM      2  O   UNL     1     102.200 123.514 145.864  0.00  0.00    +0.000 OA
ATOM      3  O   UNL     1     101.425 125.074 148.129  0.00  0.00    +0.000 OA
ATOM      4  O   UNL     1     103.581 123.424 145.456  0.00  0.00    +0.000 OA
ATOM      5  C   UNL     1     103.188 124.222 146.614  0.00  0.00    +0.000 A 
ATOM      6  C   UNL     1     103.388 124.719 147.242  0.00  0.00    +0.000 A 
ATOM      7  C   UNL     1     104.821 124.654 146.859  0.00  0.00    +0.000 A 
ATOM      8  C   UNL     1     102.800 125.003 147.748  0.00  0.00    +0.000 A 
ATOM      9  C   UNL     1     102.400 124.010 146.492  0.00  0.00    +0.000 A 
ATOM     10  C   UNL     1     103.790 123.920 146.082  0.00  0.00    +0.000 A 
ATOM     11  C   UNL     1     104.613 124.138 146.205  0.00  0.00    +0.000 A 
ATOM     12  C   UNL     1     101.813 124.294 146.996  0.00  0.00    +0.000 A 
ATOM     13  C   UNL     1     102.013 124.790 147.624  0.00  0.00    +0.000 A 
ENDROOT
BRANCH   7  16
ATOM     14  O   UNL     1     107.199 125.975 145.980  0.00  0.00    +0.000 OA
ATOM     15  O   UNL     1     107.967 125.511 147.365  0.00  0.00    +0.000 OA
ATOM     16  C   UNL     1     105.608 124.869 146.985  0.00  0.00    +0.000 A 
ATOM     17  C   UNL     1     105.992 124.637 147.677  0.00  0.00    +0.000 A 
ATOM     18  C   UNL     1     106.011 125.315 146.419  0.00  0.00    +0.000 A 
ATOM     19  C   UNL     1     106.779 124.851 147.804  0.00  0.00    +0.000 A 
ATOM     20  C   UNL     1     106.797 125.529 146.546  0.00  0.00    +0.000 A 
ATOM     21  C   UNL     1     107.181 125.297 147.239  0.00  0.00    +0.000 A 
BRANCH  19  22
ATOM     22  O   UNL     1     107.163 124.619 148.497  0.00  0.00    +0.000 OA
ATOM     23  C   UNL     1     106.742 124.234 149.093  0.00  0.00    +0.000 C 
ENDBRANCH  19  22
ENDBRANCH   7  16
BRANCH   8  24
ATOM     24  O   UNL     1     103.000 125.499 148.376  0.00  0.00    +0.000 OA
ATOM     25  C   UNL     1     102.704 126.268 148.404  0.00  0.00    +0.000 C 
ENDBRANCH   8  24
BRANCH  12  26
ATOM     26  O   UNL     1     101.025 124.082 146.873  0.00  0.00    +0.000 OA
ATOM     27  C   UNL     1     100.711 123.420 147.252  0.00  0.00    +0.000 C 
ENDBRANCH  12  26
TORSDOF 4
ENDMDL
MODEL 2
REMARK VINA RESULT:      -8.1      6.954      8.962
REMARK  Name = 44258655
REMARK  4 active torsions:
REMARK  status: ('A' for Active; 'I' for Inactive)
REMARK    1  A    between atoms: O_2  and  C_13
REMARK    2  A    between atoms: O_3  and  C_18
REMARK    3  A    between atoms: O_7  and  C_22
REMARK    4  A    between atoms: C_12  and  C_15
REMARK                            x       y       z     vdW  Elec       q    Type
REMARK                         _______ _______ _______ _____ _____    ______ ____
ROOT
ATOM      1  O   UNL     1     104.633 123.908 139.483  0.00  0.00    +0.000 OA
ATOM      2  O   UNL     1     105.427 126.328 140.856  0.00  0.00    +0.000 OA
ATOM      3  O   UNL     1     106.654 123.838 141.535  0.00  0.00    +0.000 OA
ATOM      4  O   UNL     1     104.410 126.405 139.834  0.00  0.00    +0.000 OA
ATOM      5  C   UNL     1     105.036 125.132 140.179  0.00  0.00    +0.000 A 
ATOM      6  C   UNL     1     105.111 124.318 140.067  0.00  0.00    +0.000 A 
ATOM      7  C   UNL     1     104.069 124.351 139.009  0.00  0.00    +0.000 A 
ATOM      8  C   UNL     1     105.650 123.886 140.519  0.00  0.00    +0.000 A 
ATOM      9  C   UNL     1     105.501 125.514 140.744  0.00  0.00    +0.000 A 
ATOM     10  C   UNL     1     104.479 125.592 139.715  0.00  0.00    +0.000 A 
ATOM     11  C   UNL     1     103.991 125.198 139.126  0.00  0.00    +0.000 A 
ATOM     12  C   UNL     1     106.040 125.084 141.195  0.00  0.00    +0.000 A 
ATOM     13  C   UNL     1     106.115 124.270 141.083  0.00  0.00    +0.000 A 
ENDROOT
BRANCH   7  16
ATOM     14  O   UNL     1     101.504 123.518 138.062  0.00  0.00    +0.000 OA
ATOM     15  O   UNL     1     102.219 122.806 136.756  0.00  0.00    +0.000 OA
ATOM     16  C   UNL     1     103.606 123.965 138.446  0.00  0.00    +0.000 A 
ATOM     17  C   UNL     1     103.963 123.608 137.793  0.00  0.00    +0.000 A 
ATOM     18  C   UNL     1     102.786 123.934 138.535  0.00  0.00    +0.000 A 
ATOM     19  C   UNL     1     103.501 123.222 137.230  0.00  0.00    +0.000 A 
ATOM     20  C   UNL     1     102.324 123.549 137.973  0.00  0.00    +0.000 A 
ATOM     21  C   UNL     1     102.681 123.192 137.319  0.00  0.00    +0.000 A 
BRANCH  19  22
ATOM     22  O   UNL     1     103.858 122.866 136.577  0.00  0.00    +0.000 OA
ATOM     23  C   UNL     1     104.373 123.300 136.100  0.00  0.00    +0.000 C 
ENDBRANCH  19  22
ENDBRANCH   7  16
BRANCH   8  24
ATOM     24  O   UNL     1     105.725 123.072 140.407  0.00  0.00    +0.000 OA
ATOM     25  C   UNL     1     106.464 122.745 140.246  0.00  0.00    +0.000 C 
ENDBRANCH   8  24
BRANCH  12  26
ATOM     26  O   UNL     1     106.505 125.466 141.760  0.00  0.00    +0.000 OA
ATOM     27  C   UNL     1     106.224 125.566 142.528  0.00  0.00    +0.000 C 
ENDBRANCH  12  26
TORSDOF 4
ENDMDL
MODEL 3
REMARK VINA RESULT:      -8.0     11.491     13.051
REMARK  Name = 44258655
REMARK  4 active torsions:
REMARK  status: ('A' for Active; 'I' for Inactive)
REMARK    1  A    between atoms: O_2  and  C_13
REMARK    2  A    between atoms: O_3  and  C_18
REMARK    3  A    between atoms: O_7  and  C_22
REMARK    4  A    between atoms: C_12  and  C_15
REMARK                            x       y       z     vdW  Elec       q    Type
REMARK                         _______ _______ _______ _____ _____    ______ ____
ROOT
ATOM      1  O   UNL     1     110.584 127.389 136.125  0.00  0.00    +0.000 OA
ATOM      2  O   UNL     1     108.031 128.679 135.689  0.00  0.00    +0.000 OA
ATOM      3  O   UNL     1     110.452 130.091 135.134  0.00  0.00    +0.000 OA
ATOM      4  O   UNL     1     108.054 127.324 136.186  0.00  0.00    +0.000 OA
ATOM      5  C   UNL     1     109.293 128.044 135.904  0.00  0.00    +0.000 A 
ATOM      6  C   UNL     1     110.117 128.068 135.883  0.00  0.00    +0.000 A 
ATOM      7  C   UNL     1     110.187 126.675 136.393  0.00  0.00    +0.000 A 
ATOM      8  C   UNL     1     110.504 128.751 135.626  0.00  0.00    +0.000 A 
ATOM      9  C   UNL     1     108.855 128.703 135.668  0.00  0.00    +0.000 A 
ATOM     10  C   UNL     1     108.878 127.339 136.168  0.00  0.00    +0.000 A 
ATOM     11  C   UNL     1     109.329 126.650 136.415  0.00  0.00    +0.000 A 
ATOM     12  C   UNL     1     109.241 129.385 135.412  0.00  0.00    +0.000 A 
ATOM     13  C   UNL     1     110.065 129.409 135.391  0.00  0.00    +0.000 A 
ENDROOT
BRANCH   7  16
ATOM     14  O   UNL     1     111.495 124.215 135.756  0.00  0.00    +0.000 OA
ATOM     15  O   UNL     1     111.952 124.050 137.333  0.00  0.00    +0.000 OA
ATOM     16  C   UNL     1     110.629 126.018 136.628  0.00  0.00    +0.000 A 
ATOM     17  C   UNL     1     110.857 125.936 137.416  0.00  0.00    +0.000 A 
ATOM     18  C   UNL     1     110.842 125.444 136.074  0.00  0.00    +0.000 A 
ATOM     19  C   UNL     1     111.298 125.279 137.651  0.00  0.00    +0.000 A 
ATOM     20  C   UNL     1     111.283 124.789 136.309  0.00  0.00    +0.000 A 
ATOM     21  C   UNL     1     111.511 124.706 137.098  0.00  0.00    +0.000 A 
BRANCH  19  22
ATOM     22  O   UNL     1     111.527 125.197 138.440  0.00  0.00    +0.000 OA
ATOM     23  C   UNL     1     111.729 125.863 138.883  0.00  0.00    +0.000 C 
ENDBRANCH  19  22
ENDBRANCH   7  16
BRANCH   8  24
ATOM     24  O   UNL     1     111.328 128.775 135.605  0.00  0.00    +0.000 OA
ATOM     25  C   UNL     1     111.719 128.896 134.889  0.00  0.00    +0.000 C 
ENDBRANCH   8  24
BRANCH  12  26
ATOM     26  O   UNL     1     108.803 130.043 135.177  0.00  0.00    +0.000 OA
ATOM     27  C   UNL     1     108.625 130.637 135.721  0.00  0.00    +0.000 C 
ENDBRANCH  12  26
TORSDOF 4
ENDMDL
MODEL 4
REMARK VINA RESULT:      -8.0      2.840      4.108
REMARK  Name = 44258655
REMARK  4 active torsions:
REMARK  status: ('A' for Active; 'I' for Inactive)
REMARK    1  A    between atoms: O_2  and  C_13
REMARK    2  A    between atoms: O_3  and  C_18
REMARK    3  A    between atoms: O_7  and  C_22
REMARK    4  A    between atoms: C_12  and  C_15
REMARK                            x       y       z     vdW  Elec       q    Type
REMARK                         _______ _______ _______ _____ _____    ______ ____
ROOT
ATOM      1  O   UNL     1     106.497 125.250 146.179  0.00  0.00    +0.000 OA
ATOM      2  O   UNL     1     106.082 127.696 144.689  0.00  0.00    +0.000 OA
ATOM      3  O   UNL     1     105.485 125.174 143.483  0.00  0.00    +0.000 OA
ATOM      4  O   UNL     1     106.591 127.777 146.037  0.00  0.00    +0.000 OA
ATOM      5  C   UNL     1     106.286 126.487 145.423  0.00  0.00    +0.000 A 
ATOM      6  C   UNL     1     106.254 125.664 145.467  0.00  0.00    +0.000 A 
ATOM      7  C   UNL     1     106.776 125.701 146.857  0.00  0.00    +0.000 A 
ATOM      8  C   UNL     1     105.987 125.226 144.820  0.00  0.00    +0.000 A 
ATOM      9  C   UNL     1     106.051 126.872 144.732  0.00  0.00    +0.000 A 
ATOM     10  C   UNL     1     106.562 126.954 146.089  0.00  0.00    +0.000 A 
ATOM     11  C   UNL     1     106.809 126.558 146.811  0.00  0.00    +0.000 A 
ATOM     12  C   UNL     1     105.784 126.436 144.086  0.00  0.00    +0.000 A 
ATOM     13  C   UNL     1     105.752 125.612 144.130  0.00  0.00    +0.000 A 
ENDROOT
BRANCH   7  16
ATOM     14  O   UNL     1     108.844 124.632 148.515  0.00  0.00    +0.000 OA
ATOM     15  O   UNL     1     107.712 124.144 149.611  0.00  0.00    +0.000 OA
ATOM     16  C   UNL     1     107.010 125.311 147.546  0.00  0.00    +0.000 A 
ATOM     17  C   UNL     1     106.444 125.067 148.094  0.00  0.00    +0.000 A 
ATOM     18  C   UNL     1     107.810 125.166 147.686  0.00  0.00    +0.000 A 
ATOM     19  C   UNL     1     106.678 124.678 148.783  0.00  0.00    +0.000 A 
ATOM     20  C   UNL     1     108.044 124.777 148.374  0.00  0.00    +0.000 A 
ATOM     21  C   UNL     1     107.478 124.533 148.923  0.00  0.00    +0.000 A 
BRANCH  19  22
ATOM     22  O   UNL     1     106.112 124.434 149.331  0.00  0.00    +0.000 OA
ATOM     23  C   UNL     1     105.352 124.755 149.310  0.00  0.00    +0.000 C 
ENDBRANCH  19  22
ENDBRANCH   7  16
BRANCH   8  24
ATOM     24  O   UNL     1     105.956 124.403 144.863  0.00  0.00    +0.000 OA
ATOM     25  C   UNL     1     105.235 124.013 144.772  0.00  0.00    +0.000 C 
ENDBRANCH   8  24
BRANCH  12  26
ATOM     26  O   UNL     1     105.548 126.821 143.395  0.00  0.00    +0.000 OA
ATOM     27  C   UNL     1     106.088 126.938 142.783  0.00  0.00    +0.000 C 
ENDBRANCH  12  26
TORSDOF 4
ENDMDL
MODEL 5
REMARK VINA RESULT:      -7.9     12.987     14.238
REMARK  Name = 44258655
REMARK  4 active torsions:
REMARK  status: ('A' for Active; 'I' for Inactive)
REMARK    1  A    between atoms: O_2  and  C_13
REMARK    2  A    between atoms: O_3  and  C_18
REMARK    3  A    between atoms: O_7  and  C_22
REMARK    4  A    between atoms: C_12  and  C_15
REMARK                            x       y       z     vdW  Elec       q    Type
REMARK                         _______ _______ _______ _____ _____    ______ ____
ROOT
ATOM      1  O   UNL     1     112.683 126.882 136.261  0.00  0.00    +0.000 OA
ATOM      2  O   UNL     1     113.709 124.242 136.856  0.00  0.00    +0.000 OA
ATOM      3  O   UNL     1     110.989 124.563 136.039  0.00  0.00    +0.000 OA
ATOM      4  O   UNL     1     114.590 125.379 136.979  0.00  0.00    +0.000 OA
ATOM      5  C   UNL     1     113.200 125.545 136.562  0.00  0.00    +0.000 A 
ATOM      6  C   UNL     1     112.578 126.033 136.327  0.00  0.00    +0.000 A 
ATOM      7  C   UNL     1     113.449 127.230 136.441  0.00  0.00    +0.000 A 
ATOM      8  C   UNL     1     111.840 125.705 136.153  0.00  0.00    +0.000 A 
ATOM      9  C   UNL     1     113.086 124.730 136.622  0.00  0.00    +0.000 A 
ATOM     10  C   UNL     1     113.972 125.874 136.746  0.00  0.00    +0.000 A 
ATOM     11  C   UNL     1     114.098 126.722 136.685  0.00  0.00    +0.000 A 
ATOM     12  C   UNL     1     112.349 124.403 136.448  0.00  0.00    +0.000 A 
ATOM     13  C   UNL     1     111.726 124.890 136.213  0.00  0.00    +0.000 A 
ENDROOT
BRANCH   7  16
ATOM     14  O   UNL     1     114.283 129.509 134.931  0.00  0.00    +0.000 OA
ATOM     15  O   UNL     1     113.890 130.490 136.198  0.00  0.00    +0.000 OA
ATOM     16  C   UNL     1     113.560 128.045 136.380  0.00  0.00    +0.000 A 
ATOM     17  C   UNL     1     113.363 128.536 137.013  0.00  0.00    +0.000 A 
ATOM     18  C   UNL     1     113.866 128.370 135.686  0.00  0.00    +0.000 A 
ATOM     19  C   UNL     1     113.473 129.352 136.952  0.00  0.00    +0.000 A 
ATOM     20  C   UNL     1     113.977 129.184 135.625  0.00  0.00    +0.000 A 
ATOM     21  C   UNL     1     113.780 129.676 136.259  0.00  0.00    +0.000 A 
BRANCH  19  22
ATOM     22  O   UNL     1     113.277 129.843 137.586  0.00  0.00    +0.000 OA
ATOM     23  C   UNL     1     112.609 129.680 138.042  0.00  0.00    +0.000 C 
ENDBRANCH  19  22
ENDBRANCH   7  16
BRANCH   8  24
ATOM     24  O   UNL     1     111.217 126.193 135.918  0.00  0.00    +0.000 OA
ATOM     25  C   UNL     1     110.854 126.075 135.187  0.00  0.00    +0.000 C 
ENDBRANCH   8  24
BRANCH  12  26
ATOM     26  O   UNL     1     112.235 123.588 136.507  0.00  0.00    +0.000 OA
ATOM     27  C   UNL     1     111.943 123.262 137.206  0.00  0.00    +0.000 C 
ENDBRANCH  12  26
TORSDOF 4
ENDMDL
MODEL 6
REMARK VINA RESULT:      -7.9     10.952     13.112
REMARK  Name = 44258655
REMARK  4 active torsions:
REMARK  status: ('A' for Active; 'I' for Inactive)
REMARK    1  A    between atoms: O_2  and  C_13
REMARK    2  A    between atoms: O_3  and  C_18
REMARK    3  A    between atoms: O_7  and  C_22
REMARK    4  A    between atoms: C_12  and  C_15
REMARK                            x       y       z     vdW  Elec       q    Type
REMARK                         _______ _______ _______ _____ _____    ______ ____
ROOT
ATOM      1  O   UNL     1     110.378 127.010 136.742  0.00  0.00    +0.000 OA
ATOM      2  O   UNL     1     111.204 124.495 135.573  0.00  0.00    +0.000 OA
ATOM      3  O   UNL     1     111.453 124.905 138.390  0.00  0.00    +0.000 OA
ATOM      4  O   UNL     1     110.671 125.524 134.713  0.00  0.00    +0.000 OA
ATOM      5  C   UNL     1     110.797 125.736 136.152  0.00  0.00    +0.000 A 
ATOM      6  C   UNL     1     110.703 126.218 136.815  0.00  0.00    +0.000 A 
ATOM      7  C   UNL     1     110.148 127.304 135.967  0.00  0.00    +0.000 A 
ATOM      8  C   UNL     1     110.921 125.941 137.561  0.00  0.00    +0.000 A 
ATOM      9  C   UNL     1     111.110 124.977 136.236  0.00  0.00    +0.000 A 
ATOM     10  C   UNL     1     110.573 126.012 135.370  0.00  0.00    +0.000 A 
ATOM     11  C   UNL     1     110.246 126.802 135.277  0.00  0.00    +0.000 A 
ATOM     12  C   UNL     1     111.329 124.700 136.981  0.00  0.00    +0.000 A 
ATOM     13  C   UNL     1     111.234 125.182 137.644  0.00  0.00    +0.000 A 
ENDROOT
BRANCH   7  16
ATOM     14  O   UNL     1     107.889 129.049 135.824  0.00  0.00    +0.000 OA
ATOM     15  O   UNL     1     108.900 130.342 135.650  0.00  0.00    +0.000 OA
ATOM     16  C   UNL     1     109.836 128.064 135.888  0.00  0.00    +0.000 A 
ATOM     17  C   UNL     1     110.341 128.710 135.801  0.00  0.00    +0.000 A 
ATOM     18  C   UNL     1     109.018 128.177 135.896  0.00  0.00    +0.000 A 
ATOM     19  C   UNL     1     110.029 129.470 135.722  0.00  0.00    +0.000 A 
ATOM     20  C   UNL     1     108.706 128.936 135.816  0.00  0.00    +0.000 A 
ATOM     21  C   UNL     1     109.212 129.583 135.729  0.00  0.00    +0.000 A 
BRANCH  19  22
ATOM     22  O   UNL     1     110.534 130.116 135.635  0.00  0.00    +0.000 OA
ATOM     23  C   UNL     1     111.246 130.142 136.051  0.00  0.00    +0.000 C 
ENDBRANCH  19  22
ENDBRANCH   7  16
BRANCH   8  24
ATOM     24  O   UNL     1     110.827 126.423 138.224  0.00  0.00    +0.000 OA
ATOM     25  C   UNL     1     110.336 126.184 138.841  0.00  0.00    +0.000 C 
ENDBRANCH   8  24
BRANCH  12  26
ATOM     26  O   UNL     1     111.642 123.941 137.064  0.00  0.00    +0.000 OA
ATOM     27  C   UNL     1     112.454 123.819 136.993  0.00  0.00    +0.000 C 
ENDBRANCH  12  26
TORSDOF 4
ENDMDL
MODEL 7
REMARK VINA RESULT:      -7.9      8.884      9.771
REMARK  Name = 44258655
REMARK  4 active torsions:
REMARK  status: ('A' for Active; 'I' for Inactive)
REMARK    1  A    between atoms: O_2  and  C_13
REMARK    2  A    between atoms: O_3  and  C_18
REMARK    3  A    between atoms: O_7  and  C_22
REMARK    4  A    between atoms: C_12  and  C_15
REMARK                            x       y       z     vdW  Elec       q    Type
REMARK                         _______ _______ _______ _____ _____    ______ ____
ROOT
ATOM      1  O   UNL     1     102.882 131.709 141.079  0.00  0.00    +0.000 OA
ATOM      2  O   UNL     1     100.876 133.343 142.375  0.00  0.00    +0.000 OA
ATOM      3  O   UNL     1     103.139 134.578 141.141  0.00  0.00    +0.000 OA
ATOM      4  O   UNL     1     100.710 131.910 142.365  0.00  0.00    +0.000 OA
ATOM      5  C   UNL     1     101.867 132.538 141.734  0.00  0.00    +0.000 A 
ATOM      6  C   UNL     1     102.575 132.476 141.315  0.00  0.00    +0.000 A 
ATOM      7  C   UNL     1     102.445 130.997 141.281  0.00  0.00    +0.000 A 
ATOM      8  C   UNL     1     102.999 133.156 141.117  0.00  0.00    +0.000 A 
ATOM      9  C   UNL     1     101.584 133.281 141.956  0.00  0.00    +0.000 A 
ATOM     10  C   UNL     1     101.417 131.838 141.946  0.00  0.00    +0.000 A 
ATOM     11  C   UNL     1     101.708 131.062 141.718  0.00  0.00    +0.000 A 
ATOM     12  C   UNL     1     102.007 133.960 141.758  0.00  0.00    +0.000 A 
ATOM     13  C   UNL     1     102.715 133.898 141.339  0.00  0.00    +0.000 A 
ENDROOT
BRANCH   7  16
ATOM     14  O   UNL     1     102.558 128.850 139.398  0.00  0.00    +0.000 OA
ATOM     15  O   UNL     1     103.594 128.035 140.390  0.00  0.00    +0.000 OA
ATOM     16  C   UNL     1     102.732 130.256 141.058  0.00  0.00    +0.000 A 
ATOM     17  C   UNL     1     103.250 129.849 141.554  0.00  0.00    +0.000 A 
ATOM     18  C   UNL     1     102.502 129.923 140.339  0.00  0.00    +0.000 A 
ATOM     19  C   UNL     1     103.538 129.108 141.332  0.00  0.00    +0.000 A 
ATOM     20  C   UNL     1     102.789 129.183 140.116  0.00  0.00    +0.000 A 
ATOM     21  C   UNL     1     103.307 128.775 140.613  0.00  0.00    +0.000 A 
BRANCH  19  22
ATOM     22  O   UNL     1     104.056 128.701 141.828  0.00  0.00    +0.000 OA
ATOM     23  C   UNL     1     104.636 129.112 142.246  0.00  0.00    +0.000 C 
ENDBRANCH  19  22
ENDBRANCH   7  16
BRANCH   8  24
ATOM     24  O   UNL     1     103.707 133.094 140.698  0.00  0.00    +0.000 OA
ATOM     25  C   UNL     1     103.788 133.467 139.967  0.00  0.00    +0.000 C 
ENDBRANCH   8  24
BRANCH  12  26
ATOM     26  O   UNL     1     101.723 134.703 141.980  0.00  0.00    +0.000 OA
ATOM     27  C   UNL     1     101.985 135.054 142.678  0.00  0.00    +0.000 C 
ENDBRANCH  12  26
TORSDOF 4
ENDMDL
MODEL 8
REMARK VINA RESULT:      -7.9     13.017     14.351
REMARK  Name = 44258655
REMARK  4 active torsions:
REMARK  status: ('A' for Active; 'I' for Inactive)
REMARK    1  A    between atoms: O_2  and  C_13
REMARK    2  A    between atoms: O_3  and  C_18
REMARK    3  A    between atoms: O_7  and  C_22
REMARK    4  A    between atoms: C_12  and  C_15
REMARK                            x       y       z     vdW  Elec       q    Type
REMARK                         _______ _______ _______ _____ _____    ______ ____
ROOT
ATOM      1  O   UNL     1     113.364 126.783 136.632  0.00  0.00    +0.000 OA
ATOM      2  O   UNL     1     111.198 124.968 136.011  0.00  0.00    +0.000 OA
ATOM      3  O   UNL     1     113.672 123.944 137.010  0.00  0.00    +0.000 OA
ATOM      4  O   UNL     1     111.004 126.384 135.808  0.00  0.00    +0.000 OA
ATOM      5  C   UNL     1     112.269 125.863 136.318  0.00  0.00    +0.000 A 
ATOM      6  C   UNL     1     113.038 125.990 136.587  0.00  0.00    +0.000 A 
ATOM      7  C   UNL     1     112.882 127.454 136.394  0.00  0.00    +0.000 A 
ATOM      8  C   UNL     1     113.506 125.350 136.818  0.00  0.00    +0.000 A 
ATOM      9  C   UNL     1     111.967 125.095 136.280  0.00  0.00    +0.000 A 
ATOM     10  C   UNL     1     111.772 126.520 136.076  0.00  0.00    +0.000 A 
ATOM     11  C   UNL     1     112.081 127.322 136.113  0.00  0.00    +0.000 A 
ATOM     12  C   UNL     1     112.434 124.456 136.510  0.00  0.00    +0.000 A 
ATOM     13  C   UNL     1     113.204 124.584 136.779  0.00  0.00    +0.000 A 
ENDROOT
BRANCH   7  16
ATOM     14  O   UNL     1     113.338 129.865 137.860  0.00  0.00    +0.000 OA
ATOM     15  O   UNL     1     114.103 130.515 136.551  0.00  0.00    +0.000 OA
ATOM     16  C   UNL     1     113.187 128.220 136.433  0.00  0.00    +0.000 A 
ATOM     17  C   UNL     1     113.570 128.545 135.779  0.00  0.00    +0.000 A 
ATOM     18  C   UNL     1     113.110 128.660 137.127  0.00  0.00    +0.000 A 
ATOM     19  C   UNL     1     113.876 129.311 135.818  0.00  0.00    +0.000 A 
ATOM     20  C   UNL     1     113.415 129.425 137.166  0.00  0.00    +0.000 A 
ATOM     21  C   UNL     1     113.798 129.751 136.512  0.00  0.00    +0.000 A 
BRANCH  19  22
ATOM     22  O   UNL     1     114.259 129.636 135.163  0.00  0.00    +0.000 OA
ATOM     23  C   UNL     1     114.801 129.185 134.736  0.00  0.00    +0.000 C 
ENDBRANCH  19  22
ENDBRANCH   7  16
BRANCH   8  24
ATOM     24  O   UNL     1     114.276 125.477 137.087  0.00  0.00    +0.000 OA
ATOM     25  C   UNL     1     114.914 125.154 136.678  0.00  0.00    +0.000 C 
ENDBRANCH   8  24
BRANCH  12  26
ATOM     26  O   UNL     1     112.133 123.689 136.472  0.00  0.00    +0.000 OA
ATOM     27  C   UNL     1     111.847 123.323 137.153  0.00  0.00    +0.000 C 
ENDBRANCH  12  26
TORSDOF 4
ENDMDL
MODEL 9
REMARK VINA RESULT:      -7.8     12.477     14.197
REMARK  Name = 44258655
REMARK  4 active torsions:
REMARK  status: ('A' for Active; 'I' for Inactive)
REMARK    1  A    between atoms: O_2  and  C_13
REMARK    2  A    between atoms: O_3  and  C_18
REMARK    3  A    between atoms: O_7  and  C_22
REMARK    4  A    between atoms: C_12  and  C_15
REMARK                            x       y       z     vdW  Elec       q    Type
REMARK                         _______ _______ _______ _____ _____    ______ ____
ROOT
ATOM      1  O   UNL     1     113.122 127.484 137.439  0.00  0.00    +0.000 OA
ATOM      2  O   UNL     1     113.751 129.958 136.076  0.00  0.00    +0.000 OA
ATOM      3  O   UNL     1     112.546 130.026 138.666  0.00  0.00    +0.000 OA
ATOM      4  O   UNL     1     114.056 128.706 135.427  0.00  0.00    +0.000 OA
ATOM      5  C   UNL     1     113.440 128.738 136.751  0.00  0.00    +0.000 A 
ATOM      6  C   UNL     1     113.135 128.342 137.407  0.00  0.00    +0.000 A 
ATOM      7  C   UNL     1     113.431 127.031 136.777  0.00  0.00    +0.000 A 
ATOM      8  C   UNL     1     112.836 128.772 138.046  0.00  0.00    +0.000 A 
ATOM      9  C   UNL     1     113.446 129.563 136.733  0.00  0.00    +0.000 A 
ATOM     10  C   UNL     1     113.753 128.302 136.080  0.00  0.00    +0.000 A 
ATOM     11  C   UNL     1     113.748 127.443 136.093  0.00  0.00    +0.000 A 
ATOM     12  C   UNL     1     113.149 129.992 137.371  0.00  0.00    +0.000 A 
ATOM     13  C   UNL     1     112.844 129.597 138.027  0.00  0.00    +0.000 A 
ENDROOT
BRANCH   7  16
ATOM     14  O   UNL     1     114.715 124.557 137.409  0.00  0.00    +0.000 OA
ATOM     15  O   UNL     1     113.394 123.733 136.863  0.00  0.00    +0.000 OA
ATOM     16  C   UNL     1     113.422 126.206 136.798  0.00  0.00    +0.000 A 
ATOM     17  C   UNL     1     112.762 125.794 136.525  0.00  0.00    +0.000 A 
ATOM     18  C   UNL     1     114.073 125.793 137.093  0.00  0.00    +0.000 A 
ATOM     19  C   UNL     1     112.752 124.969 136.547  0.00  0.00    +0.000 A 
ATOM     20  C   UNL     1     114.064 124.970 137.115  0.00  0.00    +0.000 A 
ATOM     21  C   UNL     1     113.403 124.557 136.841  0.00  0.00    +0.000 A 
BRANCH  19  22
ATOM     22  O   UNL     1     112.092 124.557 136.274  0.00  0.00    +0.000 OA
ATOM     23  C   UNL     1     111.341 124.895 136.332  0.00  0.00    +0.000 C 
ENDBRANCH  19  22
ENDBRANCH   7  16
BRANCH   8  24
ATOM     24  O   UNL     1     112.531 128.377 138.703  0.00  0.00    +0.000 OA
ATOM     25  C   UNL     1     112.880 128.478 139.443  0.00  0.00    +0.000 C 
ENDBRANCH   8  24
BRANCH  12  26
ATOM     26  O   UNL     1     113.156 130.817 137.353  0.00  0.00    +0.000 OA
ATOM     27  C   UNL     1     112.491 131.230 137.093  0.00  0.00    +0.000 C 
ENDBRANCH  12  26
TORSDOF 4
ENDMDL
MODEL 10
REMARK VINA RESULT:      -7.6     12.905     14.430
REMARK  Name = 44258655
REMARK  4 active torsions:
REMARK  status: ('A' for Active; 'I' for Inactive)
REMARK    1  A    between atoms: O_2  and  C_13
REMARK    2  A    between atoms: O_3  and  C_18
REMARK    3  A    between atoms: O_7  and  C_22
REMARK    4  A    between atoms: C_12  and  C_15
REMARK                            x       y       z     vdW  Elec       q    Type
REMARK                         _______ _______ _______ _____ _____    ______ ____
ROOT
ATOM      1  O   UNL     1     113.451 127.584 136.629  0.00  0.00    +0.000 OA
ATOM      2  O   UNL     1     112.886 129.778 138.429  0.00  0.00    +0.000 OA
ATOM      3  O   UNL     1     113.774 130.313 135.766  0.00  0.00    +0.000 OA
ATOM      4  O   UNL     1     112.711 128.425 138.900  0.00  0.00    +0.000 OA
ATOM      5  C   UNL     1     113.166 128.696 137.539  0.00  0.00    +0.000 A 
ATOM      6  C   UNL     1     113.407 128.424 136.798  0.00  0.00    +0.000 A 
ATOM      7  C   UNL     1     113.241 127.017 137.241  0.00  0.00    +0.000 A 
ATOM      8  C   UNL     1     113.610 128.964 136.207  0.00  0.00    +0.000 A 
ATOM      9  C   UNL     1     113.127 129.506 137.688  0.00  0.00    +0.000 A 
ATOM     10  C   UNL     1     112.952 128.145 138.162  0.00  0.00    +0.000 A 
ATOM     11  C   UNL     1     112.990 127.299 138.012  0.00  0.00    +0.000 A 
ATOM     12  C   UNL     1     113.330 130.045 137.098  0.00  0.00    +0.000 A 
ATOM     13  C   UNL     1     113.571 129.774 136.357  0.00  0.00    +0.000 A 
ENDROOT
BRANCH   7  16
ATOM     14  O   UNL     1     114.666 124.541 137.358  0.00  0.00    +0.000 OA
ATOM     15  O   UNL     1     113.399 123.779 136.625  0.00  0.00    +0.000 OA
ATOM     16  C   UNL     1     113.281 126.207 137.087  0.00  0.00    +0.000 A 
ATOM     17  C   UNL     1     112.648 125.825 136.721  0.00  0.00    +0.000 A 
ATOM     18  C   UNL     1     113.954 125.778 137.299  0.00  0.00    +0.000 A 
ATOM     19  C   UNL     1     112.687 125.016 136.567  0.00  0.00    +0.000 A 
ATOM     20  C   UNL     1     113.993 124.970 137.146  0.00  0.00    +0.000 A 
ATOM     21  C   UNL     1     113.359 124.587 136.779  0.00  0.00    +0.000 A 
BRANCH  19  22
ATOM     22  O   UNL     1     112.054 124.634 136.200  0.00  0.00    +0.000 OA
ATOM     23  C   UNL     1     111.313 124.997 136.173  0.00  0.00    +0.000 C 
ENDBRANCH  19  22
ENDBRANCH   7  16
BRANCH   8  24
ATOM     24  O   UNL     1     113.852 128.693 135.466  0.00  0.00    +0.000 OA
ATOM     25  C   UNL     1     114.595 128.898 135.174  0.00  0.00    +0.000 C 
ENDBRANCH   8  24
BRANCH  12  26
ATOM     26  O   UNL     1     113.291 130.856 137.248  0.00  0.00    +0.000 OA
ATOM     27  C   UNL     1     112.606 131.277 137.066  0.00  0.00    +0.000 C 
ENDBRANCH  12  26
TORSDOF 4
ENDMDL
