MODEL 1
REMARK VINA RESULT:     -10.4      0.000      0.000
REMARK  Name = 131835978
REMARK  12 active torsions:
REMARK  status: ('A' for Active; 'I' for Inactive)
REMARK    1  A    between atoms: O_2  and  C_18
REMARK    2  A    between atoms: O_2  and  C_20
REMARK    3  A    between atoms: C_17  and  C_19
REMARK    4  A    between atoms: C_23  and  C_24
REMARK    5  A    between atoms: C_25  and  C_29
REMARK    6  A    between atoms: C_29  and  C_34
REMARK    7  A    between atoms: C_33  and  C_38
REMARK    8  A    between atoms: C_36  and  C_39
REMARK    9  A    between atoms: C_36  and  C_41
REMARK   10  A    between atoms: C_38  and  C_42
REMARK   11  A    between atoms: C_39  and  C_40
REMARK   12  A    between atoms: C_40  and  C_43
REMARK                            x       y       z     vdW  Elec       q    Type
REMARK                         _______ _______ _______ _____ _____    ______ ____
ROOT
ATOM      1  O   UNL     1     105.840 125.510 142.524  0.00  0.00    +0.000 OA
ATOM      2  O   UNL     1     105.037 126.942 140.671  0.00  0.00    +0.000 OA
ATOM      3  O   UNL     1     104.865 125.791 139.819  0.00  0.00    +0.000 OA
ATOM      4  O   UNL     1     105.517 123.142 140.860  0.00  0.00    +0.000 OA
ATOM      5  C   UNL     1     105.787 126.327 142.627  0.00  0.00    +0.000 A 
ATOM      6  C   UNL     1     105.520 126.804 142.010  0.00  0.00    +0.000 A 
ATOM      7  C   UNL     1     105.358 125.648 141.186  0.00  0.00    +0.000 A 
ATOM      8  C   UNL     1     105.305 126.465 141.289  0.00  0.00    +0.000 A 
ATOM      9  C   UNL     1     105.626 125.170 141.804  0.00  0.00    +0.000 A 
ATOM     10  C   UNL     1     105.131 125.306 140.431  0.00  0.00    +0.000 A 
ATOM     11  C   UNL     1     105.184 124.456 140.317  0.00  0.00    +0.000 A 
ATOM     12  C   UNL     1     105.685 124.318 141.709  0.00  0.00    +0.000 A 
ATOM     13  C   UNL     1     105.463 123.959 140.960  0.00  0.00    +0.000 A 
ENDROOT
BRANCH   5  18
ATOM     14  O   UNL     1     107.379 126.580 142.978  0.00  0.00    +0.000 OA
ATOM     15  C   UNL     1     106.431 127.346 144.788  0.00  0.00    +0.000 A 
ATOM     16  C   UNL     1     107.012 127.133 144.244  0.00  0.00    +0.000 A 
ATOM     17  C   UNL     1     105.635 127.220 144.613  0.00  0.00    +0.000 A 
ATOM     18  C   UNL     1     106.002 126.667 143.347  0.00  0.00    +0.000 A 
ATOM     19  C   UNL     1     106.798 126.793 143.523  0.00  0.00    +0.000 A 
ATOM     20  C   UNL     1     105.420 126.880 143.893  0.00  0.00    +0.000 A 
BRANCH  15  21
ATOM     21  O   UNL     1     106.646 127.686 145.509  0.00  0.00    +0.000 OA
BRANCH  21  30
ATOM     22  O   UNL     1     106.907 126.484 146.238  0.00  0.00    +0.000 OA
ATOM     23  O   UNL     1     105.796 127.450 148.228  0.00  0.00    +0.000 OA
ATOM     24  O   UNL     1     106.428 125.927 148.293  0.00  0.00    +0.000 OA
ATOM     25  O   UNL     1     105.905 128.329 146.836  0.00  0.00    +0.000 OA
ATOM     26  C   UNL     1     106.167 127.128 147.564  0.00  0.00    +0.000 C 
ATOM     27  C   UNL     1     106.482 126.367 147.597  0.00  0.00    +0.000 C 
ATOM     28  C   UNL     1     106.221 127.568 146.868  0.00  0.00    +0.000 C 
ATOM     29  C   UNL     1     106.853 126.045 146.934  0.00  0.00    +0.000 C 
ATOM     30  C   UNL     1     106.591 127.246 146.205  0.00  0.00    +0.000 C 
BRANCH  29  33
ATOM     31  O   UNL     1     106.680 124.629 146.847  0.00  0.00    +0.000 OA
ATOM     32  O   UNL     1     107.973 125.176 147.118  0.00  0.00    +0.000 OA
ATOM     33  C   UNL     1     107.169 125.283 146.966  0.00  0.00    +0.000 C 
ENDBRANCH  29  33
ENDBRANCH  21  30
ENDBRANCH  15  21
ENDBRANCH   5  18
BRANCH   6  34
ATOM     34  C   UNL     1     105.467 127.621 142.112  0.00  0.00    +0.000 C 
BRANCH  34  35
ATOM     35  C   UNL     1     104.812 128.032 141.825  0.00  0.00    +0.000 C 
ATOM     36  C   UNL     1     104.846 128.851 141.732  0.00  0.00    +0.000 C 
BRANCH  36  38
ATOM     37  O   UNL     1     105.931 129.701 141.354  0.00  0.00    +0.000 OA
ATOM     38  C   UNL     1     105.536 129.259 141.927  0.00  0.00    +0.000 C 
ENDBRANCH  36  38
BRANCH  36  39
ATOM     39  C   UNL     1     104.192 129.262 141.444  0.00  0.00    +0.000 C 
BRANCH  39  40
ATOM     40  C   UNL     1     103.700 129.672 141.964  0.00  0.00    +0.000 C 
BRANCH  40  41
ATOM     41  C   UNL     1     103.034 130.066 141.679  0.00  0.00    +0.000 C 
ATOM     42  C   UNL     1     102.623 130.589 142.167  0.00  0.00    +0.000 C 
ATOM     43  C   UNL     1     101.957 130.983 141.881  0.00  0.00    +0.000 C 
ATOM     44  C   UNL     1     102.878 130.718 142.940  0.00  0.00    +0.000 C 
ENDBRANCH  40  41
ENDBRANCH  39  40
ENDBRANCH  36  39
ENDBRANCH  34  35
ENDBRANCH   6  34
BRANCH  11  45
ATOM     45  C   UNL     1     104.969 124.119 139.596  0.00  0.00    +0.000 C 
BRANCH  45  46
ATOM     46  C   UNL     1     104.177 123.948 139.439  0.00  0.00    +0.000 C 
ATOM     47  C   UNL     1     103.956 123.656 138.700  0.00  0.00    +0.000 C 
ATOM     48  C   UNL     1     103.164 123.485 138.545  0.00  0.00    +0.000 C 
ATOM     49  C   UNL     1     104.527 123.534 138.118  0.00  0.00    +0.000 C 
ENDBRANCH  45  46
ENDBRANCH  11  45
TORSDOF 12
ENDMDL
MODEL 2
REMARK VINA RESULT:      -9.8      7.006      7.870
REMARK  Name = 131835978
REMARK  12 active torsions:
REMARK  status: ('A' for Active; 'I' for Inactive)
REMARK    1  A    between atoms: O_2  and  C_18
REMARK    2  A    between atoms: O_2  and  C_20
REMARK    3  A    between atoms: C_17  and  C_19
REMARK    4  A    between atoms: C_23  and  C_24
REMARK    5  A    between atoms: C_25  and  C_29
REMARK    6  A    between atoms: C_29  and  C_34
REMARK    7  A    between atoms: C_33  and  C_38
REMARK    8  A    between atoms: C_36  and  C_39
REMARK    9  A    between atoms: C_36  and  C_41
REMARK   10  A    between atoms: C_38  and  C_42
REMARK   11  A    between atoms: C_39  and  C_40
REMARK   12  A    between atoms: C_40  and  C_43
REMARK                            x       y       z     vdW  Elec       q    Type
REMARK                         _______ _______ _______ _____ _____    ______ ____
ROOT
ATOM      1  O   UNL     1     111.871 127.938 139.864  0.00  0.00    +0.000 OA
ATOM      2  O   UNL     1     112.435 128.491 137.517  0.00  0.00    +0.000 OA
ATOM      3  O   UNL     1     112.087 127.157 137.090  0.00  0.00    +0.000 OA
ATOM      4  O   UNL     1     111.151 125.229 139.072  0.00  0.00    +0.000 OA
ATOM      5  C   UNL     1     112.141 128.694 139.671  0.00  0.00    +0.000 A 
ATOM      6  C   UNL     1     112.329 128.878 138.889  0.00  0.00    +0.000 A 
ATOM      7  C   UNL     1     111.977 127.551 138.492  0.00  0.00    +0.000 A 
ATOM      8  C   UNL     1     112.247 128.306 138.300  0.00  0.00    +0.000 A 
ATOM      9  C   UNL     1     111.789 127.367 139.274  0.00  0.00    +0.000 A 
ATOM     10  C   UNL     1     111.896 126.964 137.869  0.00  0.00    +0.000 A 
ATOM     11  C   UNL     1     111.616 126.176 138.063  0.00  0.00    +0.000 A 
ATOM     12  C   UNL     1     111.508 126.583 139.488  0.00  0.00    +0.000 A 
ATOM     13  C   UNL     1     111.420 125.984 138.877  0.00  0.00    +0.000 A 
ENDROOT
BRANCH   5  18
ATOM     14  O   UNL     1     113.497 128.722 140.609  0.00  0.00    +0.000 OA
ATOM     15  C   UNL     1     112.386 130.408 141.439  0.00  0.00    +0.000 A 
ATOM     16  C   UNL     1     112.982 129.851 141.319  0.00  0.00    +0.000 A 
ATOM     17  C   UNL     1     111.707 130.394 140.970  0.00  0.00    +0.000 A 
ATOM     18  C   UNL     1     112.222 129.265 140.260  0.00  0.00    +0.000 A 
ATOM     19  C   UNL     1     112.900 129.280 140.730  0.00  0.00    +0.000 A 
ATOM     20  C   UNL     1     111.625 129.822 140.380  0.00  0.00    +0.000 A 
BRANCH  15  21
ATOM     21  O   UNL     1     112.468 130.979 142.028  0.00  0.00    +0.000 OA
BRANCH  21  30
ATOM     22  O   UNL     1     111.952 130.204 143.113  0.00  0.00    +0.000 OA
ATOM     23  O   UNL     1     110.811 132.212 144.005  0.00  0.00    +0.000 OA
ATOM     24  O   UNL     1     110.676 130.768 144.792  0.00  0.00    +0.000 OA
ATOM     25  O   UNL     1     111.707 132.317 142.623  0.00  0.00    +0.000 OA
ATOM     26  C   UNL     1     111.192 131.542 143.707  0.00  0.00    +0.000 C 
ATOM     27  C   UNL     1     111.124 130.821 144.101  0.00  0.00    +0.000 C 
ATOM     28  C   UNL     1     111.639 131.596 143.016  0.00  0.00    +0.000 C 
ATOM     29  C   UNL     1     111.504 130.152 143.804  0.00  0.00    +0.000 C 
ATOM     30  C   UNL     1     112.020 130.927 142.719  0.00  0.00    +0.000 C 
BRANCH  29  33
ATOM     31  O   UNL     1     110.838 128.901 143.989  0.00  0.00    +0.000 OA
ATOM     32  O   UNL     1     111.967 129.236 144.799  0.00  0.00    +0.000 OA
ATOM     33  C   UNL     1     111.436 129.429 144.197  0.00  0.00    +0.000 C 
ENDBRANCH  29  33
ENDBRANCH  21  30
ENDBRANCH  15  21
ENDBRANCH   5  18
BRANCH   6  34
ATOM     34  C   UNL     1     112.598 129.633 138.696  0.00  0.00    +0.000 C 
BRANCH  34  35
ATOM     35  C   UNL     1     112.209 130.076 138.120  0.00  0.00    +0.000 C 
ATOM     36  C   UNL     1     112.589 130.717 137.765  0.00  0.00    +0.000 C 
BRANCH  36  38
ATOM     37  O   UNL     1     113.912 131.127 137.414  0.00  0.00    +0.000 OA
ATOM     38  C   UNL     1     113.358 130.915 137.987  0.00  0.00    +0.000 C 
ENDBRANCH  36  38
BRANCH  36  39
ATOM     39  C   UNL     1     112.199 131.160 137.188  0.00  0.00    +0.000 C 
BRANCH  39  40
ATOM     40  C   UNL     1     111.606 131.690 137.405  0.00  0.00    +0.000 C 
BRANCH  40  41
ATOM     41  C   UNL     1     111.299 132.216 136.850  0.00  0.00    +0.000 C 
ATOM     42  C   UNL     1     110.672 132.713 137.053  0.00  0.00    +0.000 C 
ATOM     43  C   UNL     1     110.366 133.240 136.497  0.00  0.00    +0.000 C 
ATOM     44  C   UNL     1     110.353 132.683 137.813  0.00  0.00    +0.000 C 
ENDBRANCH  40  41
ENDBRANCH  39  40
ENDBRANCH  36  39
ENDBRANCH  34  35
ENDBRANCH   6  34
BRANCH  11  45
ATOM     45  C   UNL     1     111.535 125.606 137.472  0.00  0.00    +0.000 C 
BRANCH  45  46
ATOM     46  C   UNL     1     112.129 125.045 137.355  0.00  0.00    +0.000 C 
ATOM     47  C   UNL     1     112.069 124.505 136.734  0.00  0.00    +0.000 C 
ATOM     48  C   UNL     1     112.663 123.944 136.618  0.00  0.00    +0.000 C 
ATOM     49  C   UNL     1     111.417 124.526 136.230  0.00  0.00    +0.000 C 
ENDBRANCH  45  46
ENDBRANCH  11  45
TORSDOF 12
ENDMDL
MODEL 3
REMARK VINA RESULT:      -9.7      1.287      4.341
REMARK  Name = 131835978
REMARK  12 active torsions:
REMARK  status: ('A' for Active; 'I' for Inactive)
REMARK    1  A    between atoms: O_2  and  C_18
REMARK    2  A    between atoms: O_2  and  C_20
REMARK    3  A    between atoms: C_17  and  C_19
REMARK    4  A    between atoms: C_23  and  C_24
REMARK    5  A    between atoms: C_25  and  C_29
REMARK    6  A    between atoms: C_29  and  C_34
REMARK    7  A    between atoms: C_33  and  C_38
REMARK    8  A    between atoms: C_36  and  C_39
REMARK    9  A    between atoms: C_36  and  C_41
REMARK   10  A    between atoms: C_38  and  C_42
REMARK   11  A    between atoms: C_39  and  C_40
REMARK   12  A    between atoms: C_40  and  C_43
REMARK                            x       y       z     vdW  Elec       q    Type
REMARK                         _______ _______ _______ _____ _____    ______ ____
ROOT
ATOM      1  O   UNL     1     105.060 127.998 143.952  0.00  0.00    +0.000 OA
ATOM      2  O   UNL     1     105.435 127.706 141.522  0.00  0.00    +0.000 OA
ATOM      3  O   UNL     1     104.641 128.875 141.230  0.00  0.00    +0.000 OA
ATOM      4  O   UNL     1     103.446 130.368 143.437  0.00  0.00    +0.000 OA
ATOM      5  C   UNL     1     105.517 127.368 143.677  0.00  0.00    +0.000 A 
ATOM      6  C   UNL     1     105.642 127.271 142.868  0.00  0.00    +0.000 A 
ATOM      7  C   UNL     1     104.852 128.433 142.605  0.00  0.00    +0.000 A 
ATOM      8  C   UNL     1     105.310 127.803 142.332  0.00  0.00    +0.000 A 
ATOM      9  C   UNL     1     104.727 128.530 143.416  0.00  0.00    +0.000 A 
ATOM     10  C   UNL     1     104.511 128.980 142.038  0.00  0.00    +0.000 A 
ATOM     11  C   UNL     1     104.034 129.638 142.317  0.00  0.00    +0.000 A 
ATOM     12  C   UNL     1     104.252 129.182 143.714  0.00  0.00    +0.000 A 
ATOM     13  C   UNL     1     103.903 129.739 143.160  0.00  0.00    +0.000 A 
ENDROOT
BRANCH   5  18
ATOM     14  O   UNL     1     106.850 127.800 144.549  0.00  0.00    +0.000 OA
ATOM     15  C   UNL     1     106.514 125.772 145.284  0.00  0.00    +0.000 A 
ATOM     16  C   UNL     1     106.848 126.520 145.185  0.00  0.00    +0.000 A 
ATOM     17  C   UNL     1     105.848 125.556 144.848  0.00  0.00    +0.000 A 
ATOM     18  C   UNL     1     105.849 126.836 144.213  0.00  0.00    +0.000 A 
ATOM     19  C   UNL     1     106.516 127.052 144.649  0.00  0.00    +0.000 A 
ATOM     20  C   UNL     1     105.516 126.088 144.312  0.00  0.00    +0.000 A 
BRANCH  15  21
ATOM     21  O   UNL     1     106.847 125.240 145.820  0.00  0.00    +0.000 OA
BRANCH  21  30
ATOM     22  O   UNL     1     105.822 125.286 146.814  0.00  0.00    +0.000 OA
ATOM     23  O   UNL     1     107.545 125.258 148.591  0.00  0.00    +0.000 OA
ATOM     24  O   UNL     1     105.945 125.313 148.994  0.00  0.00    +0.000 OA
ATOM     25  O   UNL     1     107.995 125.222 147.004  0.00  0.00    +0.000 OA
ATOM     26  C   UNL     1     106.970 125.267 147.999  0.00  0.00    +0.000 C 
ATOM     27  C   UNL     1     106.172 125.295 148.200  0.00  0.00    +0.000 C 
ATOM     28  C   UNL     1     107.197 125.249 147.205  0.00  0.00    +0.000 C 
ATOM     29  C   UNL     1     105.597 125.304 147.608  0.00  0.00    +0.000 C 
ATOM     30  C   UNL     1     106.622 125.258 146.613  0.00  0.00    +0.000 C 
BRANCH  29  33
ATOM     31  O   UNL     1     104.363 124.632 147.869  0.00  0.00    +0.000 OA
ATOM     32  O   UNL     1     104.431 126.057 147.950  0.00  0.00    +0.000 OA
ATOM     33  C   UNL     1     104.797 125.331 147.809  0.00  0.00    +0.000 C 
ENDBRANCH  29  33
ENDBRANCH  21  30
ENDBRANCH  15  21
ENDBRANCH   5  18
BRANCH   6  34
ATOM     34  C   UNL     1     106.099 126.641 142.593  0.00  0.00    +0.000 C 
BRANCH  34  35
ATOM     35  C   UNL     1     105.904 126.267 141.885  0.00  0.00    +0.000 C 
ATOM     36  C   UNL     1     106.440 125.749 141.530  0.00  0.00    +0.000 C 
BRANCH  36  38
ATOM     37  O   UNL     1     107.855 125.579 141.424  0.00  0.00    +0.000 OA
ATOM     38  C   UNL     1     107.171 125.606 141.884  0.00  0.00    +0.000 C 
ENDBRANCH  36  38
BRANCH  36  39
ATOM     39  C   UNL     1     106.245 125.375 140.822  0.00  0.00    +0.000 C 
BRANCH  39  40
ATOM     40  C   UNL     1     105.744 124.719 140.825  0.00  0.00    +0.000 C 
BRANCH  40  41
ATOM     41  C   UNL     1     105.386 124.469 140.126  0.00  0.00    +0.000 C 
ATOM     42  C   UNL     1     104.957 123.765 140.110  0.00  0.00    +0.000 C 
ATOM     43  C   UNL     1     104.600 123.515 139.410  0.00  0.00    +0.000 C 
ATOM     44  C   UNL     1     104.886 123.310 140.794  0.00  0.00    +0.000 C 
ENDBRANCH  40  41
ENDBRANCH  39  40
ENDBRANCH  36  39
ENDBRANCH  34  35
ENDBRANCH   6  34
BRANCH  11  45
ATOM     45  C   UNL     1     103.703 130.168 141.779  0.00  0.00    +0.000 C 
BRANCH  45  46
ATOM     46  C   UNL     1     102.937 130.045 141.495  0.00  0.00    +0.000 C 
ATOM     47  C   UNL     1     102.604 130.581 140.964  0.00  0.00    +0.000 C 
ATOM     48  C   UNL     1     101.839 130.457 140.680  0.00  0.00    +0.000 C 
ATOM     49  C   UNL     1     103.035 131.239 140.716  0.00  0.00    +0.000 C 
ENDBRANCH  45  46
ENDBRANCH  11  45
TORSDOF 12
ENDMDL
MODEL 4
REMARK VINA RESULT:      -9.4      1.380      2.029
REMARK  Name = 131835978
REMARK  12 active torsions:
REMARK  status: ('A' for Active; 'I' for Inactive)
REMARK    1  A    between atoms: O_2  and  C_18
REMARK    2  A    between atoms: O_2  and  C_20
REMARK    3  A    between atoms: C_17  and  C_19
REMARK    4  A    between atoms: C_23  and  C_24
REMARK    5  A    between atoms: C_25  and  C_29
REMARK    6  A    between atoms: C_29  and  C_34
REMARK    7  A    between atoms: C_33  and  C_38
REMARK    8  A    between atoms: C_36  and  C_39
REMARK    9  A    between atoms: C_36  and  C_41
REMARK   10  A    between atoms: C_38  and  C_42
REMARK   11  A    between atoms: C_39  and  C_40
REMARK   12  A    between atoms: C_40  and  C_43
REMARK                            x       y       z     vdW  Elec       q    Type
REMARK                         _______ _______ _______ _____ _____    ______ ____
ROOT
ATOM      1  O   UNL     1     106.017 125.331 142.205  0.00  0.00    +0.000 OA
ATOM      2  O   UNL     1     104.917 126.841 140.580  0.00  0.00    +0.000 OA
ATOM      3  O   UNL     1     104.665 125.739 139.684  0.00  0.00    +0.000 OA
ATOM      4  O   UNL     1     105.541 123.060 140.444  0.00  0.00    +0.000 OA
ATOM      5  C   UNL     1     105.952 126.137 142.369  0.00  0.00    +0.000 A 
ATOM      6  C   UNL     1     105.586 126.640 141.828  0.00  0.00    +0.000 A 
ATOM      7  C   UNL     1     105.348 125.532 140.957  0.00  0.00    +0.000 A 
ATOM      8  C   UNL     1     105.284 126.338 141.122  0.00  0.00    +0.000 A 
ATOM      9  C   UNL     1     105.715 125.029 141.499  0.00  0.00    +0.000 A 
ATOM     10  C   UNL     1     105.030 125.229 140.219  0.00  0.00    +0.000 A 
ATOM     11  C   UNL     1     105.094 124.390 140.043  0.00  0.00    +0.000 A 
ATOM     12  C   UNL     1     105.788 124.187 141.340  0.00  0.00    +0.000 A 
ATOM     13  C   UNL     1     105.476 123.866 140.606  0.00  0.00    +0.000 A 
ENDROOT
BRANCH   5  18
ATOM     14  O   UNL     1     105.240 125.747 143.805  0.00  0.00    +0.000 OA
ATOM     15  C   UNL     1     106.858 127.045 144.485  0.00  0.00    +0.000 A 
ATOM     16  C   UNL     1     106.201 126.548 144.498  0.00  0.00    +0.000 A 
ATOM     17  C   UNL     1     107.214 127.241 143.767  0.00  0.00    +0.000 A 
ATOM     18  C   UNL     1     106.254 126.440 143.074  0.00  0.00    +0.000 A 
ATOM     19  C   UNL     1     105.899 126.245 143.793  0.00  0.00    +0.000 A 
ATOM     20  C   UNL     1     106.912 126.938 143.062  0.00  0.00    +0.000 A 
BRANCH  15  21
ATOM     21  O   UNL     1     107.160 127.348 145.191  0.00  0.00    +0.000 OA
BRANCH  21  30
ATOM     22  O   UNL     1     106.113 128.244 145.571  0.00  0.00    +0.000 OA
ATOM     23  O   UNL     1     107.791 130.001 146.045  0.00  0.00    +0.000 OA
ATOM     24  O   UNL     1     106.185 130.312 146.267  0.00  0.00    +0.000 OA
ATOM     25  O   UNL     1     108.278 128.519 145.507  0.00  0.00    +0.000 OA
ATOM     26  C   UNL     1     107.231 129.416 145.887  0.00  0.00    +0.000 C 
ATOM     27  C   UNL     1     106.429 129.571 145.998  0.00  0.00    +0.000 C 
ATOM     28  C   UNL     1     107.476 128.675 145.618  0.00  0.00    +0.000 C 
ATOM     29  C   UNL     1     105.870 128.985 145.840  0.00  0.00    +0.000 C 
ATOM     30  C   UNL     1     106.917 128.089 145.460  0.00  0.00    +0.000 C 
BRANCH  29  33
ATOM     31  O   UNL     1     104.639 129.534 145.366  0.00  0.00    +0.000 OA
ATOM     32  O   UNL     1     104.693 128.901 146.646  0.00  0.00    +0.000 OA
ATOM     33  C   UNL     1     105.067 129.140 145.951  0.00  0.00    +0.000 C 
ENDBRANCH  29  33
ENDBRANCH  21  30
ENDBRANCH  15  21
ENDBRANCH   5  18
BRANCH   6  34
ATOM     34  C   UNL     1     105.521 127.447 141.991  0.00  0.00    +0.000 C 
BRANCH  34  35
ATOM     35  C   UNL     1     104.780 127.808 142.000  0.00  0.00    +0.000 C 
ATOM     36  C   UNL     1     104.721 128.630 141.956  0.00  0.00    +0.000 C 
BRANCH  36  38
ATOM     37  O   UNL     1     105.477 129.773 142.360  0.00  0.00    +0.000 OA
ATOM     38  C   UNL     1     105.403 129.090 141.904  0.00  0.00    +0.000 C 
ENDBRANCH  36  38
BRANCH  36  39
ATOM     39  C   UNL     1     103.980 128.991 141.965  0.00  0.00    +0.000 C 
BRANCH  39  40
ATOM     40  C   UNL     1     103.585 129.142 141.256  0.00  0.00    +0.000 C 
BRANCH  40  41
ATOM     41  C   UNL     1     102.941 129.657 141.243  0.00  0.00    +0.000 C 
ATOM     42  C   UNL     1     102.443 129.679 140.586  0.00  0.00    +0.000 C 
ATOM     43  C   UNL     1     101.799 130.194 140.573  0.00  0.00    +0.000 C 
ATOM     44  C   UNL     1     102.590 129.186 139.941  0.00  0.00    +0.000 C 
ENDBRANCH  40  41
ENDBRANCH  39  40
ENDBRANCH  36  39
ENDBRANCH  34  35
ENDBRANCH   6  34
BRANCH  11  45
ATOM     45  C   UNL     1     104.791 124.091 139.336  0.00  0.00    +0.000 C 
BRANCH  45  46
ATOM     46  C   UNL     1     103.988 123.911 139.274  0.00  0.00    +0.000 C 
ATOM     47  C   UNL     1     103.680 123.642 138.558  0.00  0.00    +0.000 C 
ATOM     48  C   UNL     1     102.877 123.463 138.496  0.00  0.00    +0.000 C 
ATOM     49  C   UNL     1     104.174 123.553 137.904  0.00  0.00    +0.000 C 
ENDBRANCH  45  46
ENDBRANCH  11  45
TORSDOF 12
ENDMDL
MODEL 5
REMARK VINA RESULT:      -9.3      2.285      4.052
REMARK  Name = 131835978
REMARK  12 active torsions:
REMARK  status: ('A' for Active; 'I' for Inactive)
REMARK    1  A    between atoms: O_2  and  C_18
REMARK    2  A    between atoms: O_2  and  C_20
REMARK    3  A    between atoms: C_17  and  C_19
REMARK    4  A    between atoms: C_23  and  C_24
REMARK    5  A    between atoms: C_25  and  C_29
REMARK    6  A    between atoms: C_29  and  C_34
REMARK    7  A    between atoms: C_33  and  C_38
REMARK    8  A    between atoms: C_36  and  C_39
REMARK    9  A    between atoms: C_36  and  C_41
REMARK   10  A    between atoms: C_38  and  C_42
REMARK   11  A    between atoms: C_39  and  C_40
REMARK   12  A    between atoms: C_40  and  C_43
REMARK                            x       y       z     vdW  Elec       q    Type
REMARK                         _______ _______ _______ _____ _____    ______ ____
ROOT
ATOM      1  O   UNL     1     107.680 128.127 143.129  0.00  0.00    +0.000 OA
ATOM      2  O   UNL     1     106.659 129.152 141.121  0.00  0.00    +0.000 OA
ATOM      3  O   UNL     1     107.915 129.761 140.758  0.00  0.00    +0.000 OA
ATOM      4  O   UNL     1     110.249 129.326 142.458  0.00  0.00    +0.000 OA
ATOM      5  C   UNL     1     106.882 128.002 142.963  0.00  0.00    +0.000 A 
ATOM      6  C   UNL     1     106.542 128.344 142.294  0.00  0.00    +0.000 A 
ATOM      7  C   UNL     1     107.798 128.936 141.956  0.00  0.00    +0.000 A 
ATOM      8  C   UNL     1     106.999 128.810 141.791  0.00  0.00    +0.000 A 
ATOM      9  C   UNL     1     108.138 128.594 142.626  0.00  0.00    +0.000 A 
ATOM     10  C   UNL     1     108.264 129.424 141.425  0.00  0.00    +0.000 A 
ATOM     11  C   UNL     1     109.096 129.558 141.593  0.00  0.00    +0.000 A 
ATOM     12  C   UNL     1     108.969 128.717 142.810  0.00  0.00    +0.000 A 
ATOM     13  C   UNL     1     109.451 129.203 142.289  0.00  0.00    +0.000 A 
ENDROOT
BRANCH   5  18
ATOM     14  O   UNL     1     106.929 126.358 142.833  0.00  0.00    +0.000 OA
ATOM     15  C   UNL     1     105.509 126.602 144.472  0.00  0.00    +0.000 A 
ATOM     16  C   UNL     1     105.990 126.247 143.905  0.00  0.00    +0.000 A 
ATOM     17  C   UNL     1     105.484 127.424 144.537  0.00  0.00    +0.000 A 
ATOM     18  C   UNL     1     106.424 127.536 143.466  0.00  0.00    +0.000 A 
ATOM     19  C   UNL     1     106.447 126.714 143.401  0.00  0.00    +0.000 A 
ATOM     20  C   UNL     1     105.942 127.891 144.034  0.00  0.00    +0.000 A 
BRANCH  15  21
ATOM     21  O   UNL     1     105.051 126.135 144.975  0.00  0.00    +0.000 OA
BRANCH  21  30
ATOM     22  O   UNL     1     106.009 126.104 146.034  0.00  0.00    +0.000 OA
ATOM     23  O   UNL     1     105.256 123.827 146.648  0.00  0.00    +0.000 OA
ATOM     24  O   UNL     1     106.466 124.554 147.503  0.00  0.00    +0.000 OA
ATOM     25  O   UNL     1     104.549 124.618 145.384  0.00  0.00    +0.000 OA
ATOM     26  C   UNL     1     105.507 124.586 146.443  0.00  0.00    +0.000 C 
ATOM     27  C   UNL     1     106.112 124.949 146.870  0.00  0.00    +0.000 C 
ATOM     28  C   UNL     1     105.153 124.981 145.811  0.00  0.00    +0.000 C 
ATOM     29  C   UNL     1     106.363 125.708 146.666  0.00  0.00    +0.000 C 
ATOM     30  C   UNL     1     105.404 125.740 145.607  0.00  0.00    +0.000 C 
BRANCH  29  33
ATOM     31  O   UNL     1     106.784 126.587 147.711  0.00  0.00    +0.000 OA
ATOM     32  O   UNL     1     107.757 125.921 146.903  0.00  0.00    +0.000 OA
ATOM     33  C   UNL     1     106.968 126.072 147.093  0.00  0.00    +0.000 C 
ENDBRANCH  29  33
ENDBRANCH  21  30
ENDBRANCH  15  21
ENDBRANCH   5  18
BRANCH   6  34
ATOM     34  C   UNL     1     105.743 128.219 142.127  0.00  0.00    +0.000 C 
BRANCH  34  35
ATOM     35  C   UNL     1     105.246 128.860 141.983  0.00  0.00    +0.000 C 
ATOM     36  C   UNL     1     104.524 128.746 141.601  0.00  0.00    +0.000 C 
BRANCH  36  38
ATOM     37  O   UNL     1     103.989 127.869 140.607  0.00  0.00    +0.000 OA
ATOM     38  C   UNL     1     104.299 127.989 141.362  0.00  0.00    +0.000 C 
ENDBRANCH  36  38
BRANCH  36  39
ATOM     39  C   UNL     1     104.026 129.388 141.458  0.00  0.00    +0.000 C 
BRANCH  39  40
ATOM     40  C   UNL     1     103.600 129.727 142.077  0.00  0.00    +0.000 C 
BRANCH  40  41
ATOM     41  C   UNL     1     103.005 130.275 141.918  0.00  0.00    +0.000 C 
ATOM     42  C   UNL     1     102.725 130.767 142.518  0.00  0.00    +0.000 C 
ATOM     43  C   UNL     1     102.129 131.314 142.359  0.00  0.00    +0.000 C 
ATOM     44  C   UNL     1     103.040 130.711 143.278  0.00  0.00    +0.000 C 
ENDBRANCH  40  41
ENDBRANCH  39  40
ENDBRANCH  36  39
ENDBRANCH  34  35
ENDBRANCH   6  34
BRANCH  11  45
ATOM     45  C   UNL     1     109.551 130.025 141.088  0.00  0.00    +0.000 C 
BRANCH  45  46
ATOM     46  C   UNL     1     110.001 129.673 140.492  0.00  0.00    +0.000 C 
ATOM     47  C   UNL     1     110.436 130.142 139.971  0.00  0.00    +0.000 C 
ATOM     48  C   UNL     1     110.884 129.790 139.376  0.00  0.00    +0.000 C 
ATOM     49  C   UNL     1     110.422 130.964 140.047  0.00  0.00    +0.000 C 
ENDBRANCH  45  46
ENDBRANCH  11  45
TORSDOF 12
ENDMDL
MODEL 6
REMARK VINA RESULT:      -9.2      1.911      6.065
REMARK  Name = 131835978
REMARK  12 active torsions:
REMARK  status: ('A' for Active; 'I' for Inactive)
REMARK    1  A    between atoms: O_2  and  C_18
REMARK    2  A    between atoms: O_2  and  C_20
REMARK    3  A    between atoms: C_17  and  C_19
REMARK    4  A    between atoms: C_23  and  C_24
REMARK    5  A    between atoms: C_25  and  C_29
REMARK    6  A    between atoms: C_29  and  C_34
REMARK    7  A    between atoms: C_33  and  C_38
REMARK    8  A    between atoms: C_36  and  C_39
REMARK    9  A    between atoms: C_36  and  C_41
REMARK   10  A    between atoms: C_38  and  C_42
REMARK   11  A    between atoms: C_39  and  C_40
REMARK   12  A    between atoms: C_40  and  C_43
REMARK                            x       y       z     vdW  Elec       q    Type
REMARK                         _______ _______ _______ _____ _____    ______ ____
ROOT
ATOM      1  O   UNL     1     104.040 128.810 141.661  0.00  0.00    +0.000 OA
ATOM      2  O   UNL     1     104.135 130.134 143.751  0.00  0.00    +0.000 OA
ATOM      3  O   UNL     1     103.037 130.960 143.310  0.00  0.00    +0.000 OA
ATOM      4  O   UNL     1     101.821 130.439 140.707  0.00  0.00    +0.000 OA
ATOM      5  C   UNL     1     104.600 128.629 142.239  0.00  0.00    +0.000 A 
ATOM      6  C   UNL     1     104.631 129.070 142.935  0.00  0.00    +0.000 A 
ATOM      7  C   UNL     1     103.543 129.874 142.476  0.00  0.00    +0.000 A 
ATOM      8  C   UNL     1     104.103 129.692 143.054  0.00  0.00    +0.000 A 
ATOM      9  C   UNL     1     103.512 129.433 141.779  0.00  0.00    +0.000 A 
ATOM     10  C   UNL     1     102.999 130.525 142.611  0.00  0.00    +0.000 A 
ATOM     11  C   UNL     1     102.413 130.718 142.012  0.00  0.00    +0.000 A 
ATOM     12  C   UNL     1     102.934 129.612 141.169  0.00  0.00    +0.000 A 
ATOM     13  C   UNL     1     102.380 130.260 141.287  0.00  0.00    +0.000 A 
ENDROOT
BRANCH   5  18
ATOM     14  O   UNL     1     105.926 128.843 141.281  0.00  0.00    +0.000 OA
ATOM     15  C   UNL     1     106.185 126.762 141.884  0.00  0.00    +0.000 A 
ATOM     16  C   UNL     1     106.319 127.491 141.524  0.00  0.00    +0.000 A 
ATOM     17  C   UNL     1     105.522 126.654 142.364  0.00  0.00    +0.000 A 
ATOM     18  C   UNL     1     105.128 128.007 142.121  0.00  0.00    +0.000 A 
ATOM     19  C   UNL     1     105.791 128.113 141.642  0.00  0.00    +0.000 A 
ATOM     20  C   UNL     1     104.994 127.276 142.482  0.00  0.00    +0.000 A 
BRANCH  15  21
ATOM     21  O   UNL     1     106.713 126.139 141.766  0.00  0.00    +0.000 OA
BRANCH  21  30
ATOM     22  O   UNL     1     105.998 125.605 140.650  0.00  0.00    +0.000 OA
ATOM     23  O   UNL     1     106.825 123.339 141.206  0.00  0.00    +0.000 OA
ATOM     24  O   UNL     1     105.834 123.560 139.905  0.00  0.00    +0.000 OA
ATOM     25  O   UNL     1     107.264 124.629 142.136  0.00  0.00    +0.000 OA
ATOM     26  C   UNL     1     106.549 124.094 141.021  0.00  0.00    +0.000 C 
ATOM     27  C   UNL     1     106.054 124.204 140.371  0.00  0.00    +0.000 C 
ATOM     28  C   UNL     1     106.769 124.739 141.486  0.00  0.00    +0.000 C 
ATOM     29  C   UNL     1     105.779 124.960 140.185  0.00  0.00    +0.000 C 
ATOM     30  C   UNL     1     106.494 125.494 141.301  0.00  0.00    +0.000 C 
BRANCH  29  33
ATOM     31  O   UNL     1     105.605 125.263 138.800  0.00  0.00    +0.000 OA
ATOM     32  O   UNL     1     104.466 124.988 139.619  0.00  0.00    +0.000 OA
ATOM     33  C   UNL     1     105.283 125.070 139.534  0.00  0.00    +0.000 C 
ENDBRANCH  29  33
ENDBRANCH  21  30
ENDBRANCH  15  21
ENDBRANCH   5  18
BRANCH   6  34
ATOM     34  C   UNL     1     105.191 128.889 143.514  0.00  0.00    +0.000 C 
BRANCH  34  35
ATOM     35  C   UNL     1     104.986 128.923 144.312  0.00  0.00    +0.000 C 
ATOM     36  C   UNL     1     105.575 128.921 144.890  0.00  0.00    +0.000 C 
BRANCH  36  38
ATOM     37  O   UNL     1     106.906 129.433 144.971  0.00  0.00    +0.000 OA
ATOM     38  C   UNL     1     106.369 128.885 144.670  0.00  0.00    +0.000 C 
ENDBRANCH  36  38
BRANCH  36  39
ATOM     39  C   UNL     1     105.370 128.955 145.688  0.00  0.00    +0.000 C 
BRANCH  39  40
ATOM     40  C   UNL     1     105.275 128.259 146.121  0.00  0.00    +0.000 C 
BRANCH  40  41
ATOM     41  C   UNL     1     104.926 128.280 146.867  0.00  0.00    +0.000 C 
ATOM     42  C   UNL     1     104.915 127.603 147.338  0.00  0.00    +0.000 C 
ATOM     43  C   UNL     1     104.566 127.625 148.085  0.00  0.00    +0.000 C 
ATOM     44  C   UNL     1     105.253 126.903 147.062  0.00  0.00    +0.000 C 
ENDBRANCH  40  41
ENDBRANCH  39  40
ENDBRANCH  36  39
ENDBRANCH  34  35
ENDBRANCH   6  34
BRANCH  11  45
ATOM     45  C   UNL     1     101.886 131.341 142.133  0.00  0.00    +0.000 C 
BRANCH  45  46
ATOM     46  C   UNL     1     102.057 132.091 141.833  0.00  0.00    +0.000 C 
ATOM     47  C   UNL     1     101.531 132.715 141.959  0.00  0.00    +0.000 C 
ATOM     48  C   UNL     1     101.703 133.464 141.659  0.00  0.00    +0.000 C 
ATOM     49  C   UNL     1     100.836 132.589 142.384  0.00  0.00    +0.000 C 
ENDBRANCH  45  46
ENDBRANCH  11  45
TORSDOF 12
ENDMDL
MODEL 7
REMARK VINA RESULT:      -9.1      2.642      5.237
REMARK  Name = 131835978
REMARK  12 active torsions:
REMARK  status: ('A' for Active; 'I' for Inactive)
REMARK    1  A    between atoms: O_2  and  C_18
REMARK    2  A    between atoms: O_2  and  C_20
REMARK    3  A    between atoms: C_17  and  C_19
REMARK    4  A    between atoms: C_23  and  C_24
REMARK    5  A    between atoms: C_25  and  C_29
REMARK    6  A    between atoms: C_29  and  C_34
REMARK    7  A    between atoms: C_33  and  C_38
REMARK    8  A    between atoms: C_36  and  C_39
REMARK    9  A    between atoms: C_36  and  C_41
REMARK   10  A    between atoms: C_38  and  C_42
REMARK   11  A    between atoms: C_39  and  C_40
REMARK   12  A    between atoms: C_40  and  C_43
REMARK                            x       y       z     vdW  Elec       q    Type
REMARK                         _______ _______ _______ _____ _____    ______ ____
ROOT
ATOM      1  O   UNL     1     105.825 127.442 146.675  0.00  0.00    +0.000 OA
ATOM      2  O   UNL     1     105.152 126.149 144.674  0.00  0.00    +0.000 OA
ATOM      3  O   UNL     1     104.419 125.212 145.492  0.00  0.00    +0.000 OA
ATOM      4  O   UNL     1     104.366 125.591 148.386  0.00  0.00    +0.000 OA
ATOM      5  C   UNL     1     106.072 127.683 145.925  0.00  0.00    +0.000 A 
ATOM      6  C   UNL     1     105.848 127.252 145.259  0.00  0.00    +0.000 A 
ATOM      7  C   UNL     1     105.129 126.339 146.091  0.00  0.00    +0.000 A 
ATOM      8  C   UNL     1     105.376 126.580 145.342  0.00  0.00    +0.000 A 
ATOM      9  C   UNL     1     105.354 126.770 146.758  0.00  0.00    +0.000 A 
ATOM     10  C   UNL     1     104.639 125.637 146.164  0.00  0.00    +0.000 A 
ATOM     11  C   UNL     1     104.378 125.381 146.942  0.00  0.00    +0.000 A 
ATOM     12  C   UNL     1     105.103 126.529 147.544  0.00  0.00    +0.000 A 
ATOM     13  C   UNL     1     104.612 125.830 147.636  0.00  0.00    +0.000 A 
ENDROOT
BRANCH   5  18
ATOM     14  O   UNL     1     107.709 127.568 146.094  0.00  0.00    +0.000 OA
ATOM     15  C   UNL     1     107.485 129.699 145.677  0.00  0.00    +0.000 A 
ATOM     16  C   UNL     1     107.833 128.970 145.844  0.00  0.00    +0.000 A 
ATOM     17  C   UNL     1     106.667 129.757 145.593  0.00  0.00    +0.000 A 
ATOM     18  C   UNL     1     106.543 128.355 145.843  0.00  0.00    +0.000 A 
ATOM     19  C   UNL     1     107.361 128.298 145.927  0.00  0.00    +0.000 A 
ATOM     20  C   UNL     1     106.195 129.085 145.676  0.00  0.00    +0.000 A 
BRANCH  15  21
ATOM     21  O   UNL     1     107.957 130.371 145.595  0.00  0.00    +0.000 OA
BRANCH  21  30
ATOM     22  O   UNL     1     107.778 130.692 144.214  0.00  0.00    +0.000 OA
ATOM     23  O   UNL     1     110.231 130.883 143.942  0.00  0.00    +0.000 OA
ATOM     24  O   UNL     1     109.235 131.139 142.651  0.00  0.00    +0.000 OA
ATOM     25  O   UNL     1     109.592 130.498 145.413  0.00  0.00    +0.000 OA
ATOM     26  C   UNL     1     109.413 130.819 144.032  0.00  0.00    +0.000 C 
ATOM     27  C   UNL     1     108.916 130.947 143.387  0.00  0.00    +0.000 C 
ATOM     28  C   UNL     1     109.094 130.627 144.769  0.00  0.00    +0.000 C 
ATOM     29  C   UNL     1     108.099 130.884 143.478  0.00  0.00    +0.000 C 
ATOM     30  C   UNL     1     108.277 130.563 144.859  0.00  0.00    +0.000 C 
BRANCH  29  33
ATOM     31  O   UNL     1     107.189 131.724 142.765  0.00  0.00    +0.000 OA
ATOM     32  O   UNL     1     107.514 130.429 142.255  0.00  0.00    +0.000 OA
ATOM     33  C   UNL     1     107.600 131.012 142.833  0.00  0.00    +0.000 C 
ENDBRANCH  29  33
ENDBRANCH  21  30
ENDBRANCH  15  21
ENDBRANCH   5  18
BRANCH   6  34
ATOM     34  C   UNL     1     106.094 127.493 144.509  0.00  0.00    +0.000 C 
BRANCH  34  35
ATOM     35  C   UNL     1     105.545 127.574 143.900  0.00  0.00    +0.000 C 
ATOM     36  C   UNL     1     105.797 127.582 143.114  0.00  0.00    +0.000 C 
BRANCH  36  38
ATOM     37  O   UNL     1     106.837 127.130 142.245  0.00  0.00    +0.000 OA
ATOM     38  C   UNL     1     106.599 127.508 142.938  0.00  0.00    +0.000 C 
ENDBRANCH  36  38
BRANCH  36  39
ATOM     39  C   UNL     1     105.247 127.663 142.505  0.00  0.00    +0.000 C 
BRANCH  39  40
ATOM     40  C   UNL     1     104.835 128.371 142.412  0.00  0.00    +0.000 C 
BRANCH  40  41
ATOM     41  C   UNL     1     104.299 128.459 141.792  0.00  0.00    +0.000 C 
ATOM     42  C   UNL     1     103.841 129.143 141.735  0.00  0.00    +0.000 C 
ATOM     43  C   UNL     1     103.305 129.231 141.115  0.00  0.00    +0.000 C 
ATOM     44  C   UNL     1     103.920 129.740 142.300  0.00  0.00    +0.000 C 
ENDBRANCH  40  41
ENDBRANCH  39  40
ENDBRANCH  36  39
ENDBRANCH  34  35
ENDBRANCH   6  34
BRANCH  11  45
ATOM     45  C   UNL     1     103.907 124.709 147.021  0.00  0.00    +0.000 C 
BRANCH  45  46
ATOM     46  C   UNL     1     103.085 124.781 147.053  0.00  0.00    +0.000 C 
ATOM     47  C   UNL     1     102.612 124.106 147.055  0.00  0.00    +0.000 C 
ATOM     48  C   UNL     1     101.791 124.179 147.087  0.00  0.00    +0.000 C 
ATOM     49  C   UNL     1     102.959 123.358 147.024  0.00  0.00    +0.000 C 
ENDBRANCH  45  46
ENDBRANCH  11  45
TORSDOF 12
ENDMDL
MODEL 8
REMARK VINA RESULT:      -9.1      6.449      9.133
REMARK  Name = 131835978
REMARK  12 active torsions:
REMARK  status: ('A' for Active; 'I' for Inactive)
REMARK    1  A    between atoms: O_2  and  C_18
REMARK    2  A    between atoms: O_2  and  C_20
REMARK    3  A    between atoms: C_17  and  C_19
REMARK    4  A    between atoms: C_23  and  C_24
REMARK    5  A    between atoms: C_25  and  C_29
REMARK    6  A    between atoms: C_29  and  C_34
REMARK    7  A    between atoms: C_33  and  C_38
REMARK    8  A    between atoms: C_36  and  C_39
REMARK    9  A    between atoms: C_36  and  C_41
REMARK   10  A    between atoms: C_38  and  C_42
REMARK   11  A    between atoms: C_39  and  C_40
REMARK   12  A    between atoms: C_40  and  C_43
REMARK                            x       y       z     vdW  Elec       q    Type
REMARK                         _______ _______ _______ _____ _____    ______ ____
ROOT
ATOM      1  O   UNL     1     111.074 130.230 142.724  0.00  0.00    +0.000 OA
ATOM      2  O   UNL     1     113.297 131.176 142.182  0.00  0.00    +0.000 OA
ATOM      3  O   UNL     1     113.090 132.264 143.106  0.00  0.00    +0.000 OA
ATOM      4  O   UNL     1     110.589 132.399 144.607  0.00  0.00    +0.000 OA
ATOM      5  C   UNL     1     111.560 129.854 142.172  0.00  0.00    +0.000 A 
ATOM      6  C   UNL     1     112.300 130.169 141.992  0.00  0.00    +0.000 A 
ATOM      7  C   UNL     1     112.071 131.237 142.914  0.00  0.00    +0.000 A 
ATOM      8  C   UNL     1     112.555 130.861 142.362  0.00  0.00    +0.000 A 
ATOM      9  C   UNL     1     111.330 130.921 143.094  0.00  0.00    +0.000 A 
ATOM     10  C   UNL     1     112.348 131.956 143.293  0.00  0.00    +0.000 A 
ATOM     11  C   UNL     1     111.847 132.352 143.868  0.00  0.00    +0.000 A 
ATOM     12  C   UNL     1     110.815 131.304 143.667  0.00  0.00    +0.000 A 
ATOM     13  C   UNL     1     111.076 132.025 144.056  0.00  0.00    +0.000 A 
ENDROOT
BRANCH   5  18
ATOM     14  O   UNL     1     111.773 128.395 142.911  0.00  0.00    +0.000 OA
ATOM     15  C   UNL     1     110.793 127.780 141.060  0.00  0.00    +0.000 A 
ATOM     16  C   UNL     1     111.155 127.742 141.800  0.00  0.00    +0.000 A 
ATOM     17  C   UNL     1     110.686 128.510 140.690  0.00  0.00    +0.000 A 
ATOM     18  C   UNL     1     111.304 129.163 141.802  0.00  0.00    +0.000 A 
ATOM     19  C   UNL     1     111.411 128.433 142.171  0.00  0.00    +0.000 A 
ATOM     20  C   UNL     1     110.942 129.201 141.061  0.00  0.00    +0.000 A 
BRANCH  15  21
ATOM     21  O   UNL     1     110.538 127.089 140.690  0.00  0.00    +0.000 OA
BRANCH  21  30
ATOM     22  O   UNL     1     109.234 127.173 141.269  0.00  0.00    +0.000 OA
ATOM     23  O   UNL     1     108.956 124.728 140.999  0.00  0.00    +0.000 OA
ATOM     24  O   UNL     1     107.745 125.627 141.669  0.00  0.00    +0.000 OA
ATOM     25  O   UNL     1     110.352 125.459 140.509  0.00  0.00    +0.000 OA
ATOM     26  C   UNL     1     109.049 125.543 141.089  0.00  0.00    +0.000 C 
ATOM     27  C   UNL     1     108.444 125.992 141.424  0.00  0.00    +0.000 C 
ATOM     28  C   UNL     1     109.747 125.908 140.844  0.00  0.00    +0.000 C 
ATOM     29  C   UNL     1     108.536 126.807 141.514  0.00  0.00    +0.000 C 
ATOM     30  C   UNL     1     109.840 126.723 140.934  0.00  0.00    +0.000 C 
BRANCH  29  33
ATOM     31  O   UNL     1     107.885 127.340 142.668  0.00  0.00    +0.000 OA
ATOM     32  O   UNL     1     107.372 127.622 141.365  0.00  0.00    +0.000 OA
ATOM     33  C   UNL     1     107.931 127.257 141.849  0.00  0.00    +0.000 C 
ENDBRANCH  29  33
ENDBRANCH  21  30
ENDBRANCH  15  21
ENDBRANCH   5  18
BRANCH   6  34
ATOM     34  C   UNL     1     112.786 129.794 141.440  0.00  0.00    +0.000 C 
BRANCH  34  35
ATOM     35  C   UNL     1     113.104 130.221 140.812  0.00  0.00    +0.000 C 
ATOM     36  C   UNL     1     113.732 129.910 140.376  0.00  0.00    +0.000 C 
BRANCH  36  38
ATOM     37  O   UNL     1     114.857 129.071 140.648  0.00  0.00    +0.000 OA
ATOM     38  C   UNL     1     114.042 129.170 140.571  0.00  0.00    +0.000 C 
ENDBRANCH  36  38
BRANCH  36  39
ATOM     39  C   UNL     1     114.050 130.337 139.747  0.00  0.00    +0.000 C 
BRANCH  39  40
ATOM     40  C   UNL     1     113.721 130.271 138.993  0.00  0.00    +0.000 C 
BRANCH  40  41
ATOM     41  C   UNL     1     114.018 130.724 138.372  0.00  0.00    +0.000 C 
ATOM     42  C   UNL     1     113.695 130.650 137.616  0.00  0.00    +0.000 C 
ATOM     43  C   UNL     1     113.991 131.103 136.994  0.00  0.00    +0.000 C 
ATOM     44  C   UNL     1     113.075 130.122 137.483  0.00  0.00    +0.000 C 
ENDBRANCH  40  41
ENDBRANCH  39  40
ENDBRANCH  36  39
ENDBRANCH  34  35
ENDBRANCH   6  34
BRANCH  11  45
ATOM     45  C   UNL     1     112.105 133.044 144.237  0.00  0.00    +0.000 C 
BRANCH  45  46
ATOM     46  C   UNL     1     111.845 133.779 143.967  0.00  0.00    +0.000 C 
ATOM     47  C   UNL     1     112.104 134.469 144.336  0.00  0.00    +0.000 C 
ATOM     48  C   UNL     1     111.843 135.204 144.065  0.00  0.00    +0.000 C 
ATOM     49  C   UNL     1     112.624 134.426 144.975  0.00  0.00    +0.000 C 
ENDBRANCH  45  46
ENDBRANCH  11  45
TORSDOF 12
ENDMDL
MODEL 9
REMARK VINA RESULT:      -9.1      7.048      9.525
REMARK  Name = 131835978
REMARK  12 active torsions:
REMARK  status: ('A' for Active; 'I' for Inactive)
REMARK    1  A    between atoms: O_2  and  C_18
REMARK    2  A    between atoms: O_2  and  C_20
REMARK    3  A    between atoms: C_17  and  C_19
REMARK    4  A    between atoms: C_23  and  C_24
REMARK    5  A    between atoms: C_25  and  C_29
REMARK    6  A    between atoms: C_29  and  C_34
REMARK    7  A    between atoms: C_33  and  C_38
REMARK    8  A    between atoms: C_36  and  C_39
REMARK    9  A    between atoms: C_36  and  C_41
REMARK   10  A    between atoms: C_38  and  C_42
REMARK   11  A    between atoms: C_39  and  C_40
REMARK   12  A    between atoms: C_40  and  C_43
REMARK                            x       y       z     vdW  Elec       q    Type
REMARK                         _______ _______ _______ _____ _____    ______ ____
ROOT
ATOM      1  O   UNL     1     110.545 127.892 137.472  0.00  0.00    +0.000 OA
ATOM      2  O   UNL     1     111.757 126.928 139.404  0.00  0.00    +0.000 OA
ATOM      3  O   UNL     1     111.823 125.641 138.756  0.00  0.00    +0.000 OA
ATOM      4  O   UNL     1     110.641 125.321 136.105  0.00  0.00    +0.000 OA
ATOM      5  C   UNL     1     110.721 128.363 138.126  0.00  0.00    +0.000 A 
ATOM      6  C   UNL     1     111.125 128.042 138.769  0.00  0.00    +0.000 A 
ATOM      7  C   UNL     1     111.177 126.777 138.106  0.00  0.00    +0.000 A 
ATOM      8  C   UNL     1     111.353 127.249 138.759  0.00  0.00    +0.000 A 
ATOM      9  C   UNL     1     110.773 127.099 137.462  0.00  0.00    +0.000 A 
ATOM     10  C   UNL     1     111.420 125.953 138.108  0.00  0.00    +0.000 A 
ATOM     11  C   UNL     1     111.239 125.457 137.430  0.00  0.00    +0.000 A 
ATOM     12  C   UNL     1     110.584 126.618 136.775  0.00  0.00    +0.000 A 
ATOM     13  C   UNL     1     110.819 125.791 136.760  0.00  0.00    +0.000 A 
ENDROOT
BRANCH   5  18
ATOM     14  O   UNL     1     109.173 128.771 138.525  0.00  0.00    +0.000 OA
ATOM     15  C   UNL     1     110.038 130.741 138.156  0.00  0.00    +0.000 A 
ATOM     16  C   UNL     1     109.492 130.153 138.345  0.00  0.00    +0.000 A 
ATOM     17  C   UNL     1     110.812 130.538 137.956  0.00  0.00    +0.000 A 
ATOM     18  C   UNL     1     110.493 129.156 138.136  0.00  0.00    +0.000 A 
ATOM     19  C   UNL     1     109.720 129.360 138.336  0.00  0.00    +0.000 A 
ATOM     20  C   UNL     1     111.040 129.745 137.946  0.00  0.00    +0.000 A 
BRANCH  15  21
ATOM     21  O   UNL     1     109.810 131.534 138.166  0.00  0.00    +0.000 OA
BRANCH  21  30
ATOM     22  O   UNL     1     109.298 131.660 136.837  0.00  0.00    +0.000 OA
ATOM     23  O   UNL     1     110.491 133.814 136.583  0.00  0.00    +0.000 OA
ATOM     24  O   UNL     1     109.582 133.222 135.339  0.00  0.00    +0.000 OA
ATOM     25  O   UNL     1     110.604 132.970 137.996  0.00  0.00    +0.000 OA
ATOM     26  C   UNL     1     110.093 133.096 136.668  0.00  0.00    +0.000 C 
ATOM     27  C   UNL     1     109.639 132.800 136.046  0.00  0.00    +0.000 C 
ATOM     28  C   UNL     1     110.151 132.674 137.375  0.00  0.00    +0.000 C 
ATOM     29  C   UNL     1     109.242 132.082 136.131  0.00  0.00    +0.000 C 
ATOM     30  C   UNL     1     109.753 131.956 137.460  0.00  0.00    +0.000 C 
BRANCH  29  33
ATOM     31  O   UNL     1     107.980 131.953 135.473  0.00  0.00    +0.000 OA
ATOM     32  O   UNL     1     109.140 131.323 134.924  0.00  0.00    +0.000 OA
ATOM     33  C   UNL     1     108.787 131.786 135.509  0.00  0.00    +0.000 C 
ENDBRANCH  29  33
ENDBRANCH  21  30
ENDBRANCH  15  21
ENDBRANCH   5  18
BRANCH   6  34
ATOM     34  C   UNL     1     111.302 128.513 139.423  0.00  0.00    +0.000 C 
BRANCH  34  35
ATOM     35  C   UNL     1     112.078 128.568 139.695  0.00  0.00    +0.000 C 
ATOM     36  C   UNL     1     112.231 128.868 140.449  0.00  0.00    +0.000 C 
BRANCH  36  38
ATOM     37  O   UNL     1     111.648 129.003 141.746  0.00  0.00    +0.000 OA
ATOM     38  C   UNL     1     111.608 129.113 140.930  0.00  0.00    +0.000 C 
ENDBRANCH  36  38
BRANCH  36  39
ATOM     39  C   UNL     1     113.008 128.923 140.721  0.00  0.00    +0.000 C 
BRANCH  39  40
ATOM     40  C   UNL     1     113.503 129.520 140.439  0.00  0.00    +0.000 C 
BRANCH  40  41
ATOM     41  C   UNL     1     114.295 129.541 140.667  0.00  0.00    +0.000 C 
ATOM     42  C   UNL     1     114.789 130.142 140.391  0.00  0.00    +0.000 C 
ATOM     43  C   UNL     1     115.581 130.164 140.620  0.00  0.00    +0.000 C 
ATOM     44  C   UNL     1     114.489 130.722 139.887  0.00  0.00    +0.000 C 
ENDBRANCH  40  41
ENDBRANCH  39  40
ENDBRANCH  36  39
ENDBRANCH  34  35
ENDBRANCH   6  34
BRANCH  11  45
ATOM     45  C   UNL     1     111.468 124.664 137.423  0.00  0.00    +0.000 C 
BRANCH  45  46
ATOM     46  C   UNL     1     112.209 124.451 137.128  0.00  0.00    +0.000 C 
ATOM     47  C   UNL     1     112.429 123.656 137.101  0.00  0.00    +0.000 C 
ATOM     48  C   UNL     1     113.170 123.444 136.807  0.00  0.00    +0.000 C 
ATOM     49  C   UNL     1     111.909 123.075 137.369  0.00  0.00    +0.000 C 
ENDBRANCH  45  46
ENDBRANCH  11  45
TORSDOF 12
ENDMDL
MODEL 10
REMARK VINA RESULT:      -9.0      1.950      5.805
REMARK  Name = 131835978
REMARK  12 active torsions:
REMARK  status: ('A' for Active; 'I' for Inactive)
REMARK    1  A    between atoms: O_2  and  C_18
REMARK    2  A    between atoms: O_2  and  C_20
REMARK    3  A    between atoms: C_17  and  C_19
REMARK    4  A    between atoms: C_23  and  C_24
REMARK    5  A    between atoms: C_25  and  C_29
REMARK    6  A    between atoms: C_29  and  C_34
REMARK    7  A    between atoms: C_33  and  C_38
REMARK    8  A    between atoms: C_36  and  C_39
REMARK    9  A    between atoms: C_36  and  C_41
REMARK   10  A    between atoms: C_38  and  C_42
REMARK   11  A    between atoms: C_39  and  C_40
REMARK   12  A    between atoms: C_40  and  C_43
REMARK                            x       y       z     vdW  Elec       q    Type
REMARK                         _______ _______ _______ _____ _____    ______ ____
ROOT
ATOM      1  O   UNL     1     105.780 126.780 144.338  0.00  0.00    +0.000 OA
ATOM      2  O   UNL     1     105.765 124.349 143.872  0.00  0.00    +0.000 OA
ATOM      3  O   UNL     1     105.182 124.076 145.163  0.00  0.00    +0.000 OA
ATOM      4  O   UNL     1     104.604 126.304 146.960  0.00  0.00    +0.000 OA
ATOM      5  C   UNL     1     106.066 126.496 143.618  0.00  0.00    +0.000 A 
ATOM      6  C   UNL     1     106.061 125.686 143.463  0.00  0.00    +0.000 A 
ATOM      7  C   UNL     1     105.484 125.443 144.747  0.00  0.00    +0.000 A 
ATOM      8  C   UNL     1     105.770 125.159 144.027  0.00  0.00    +0.000 A 
ATOM      9  C   UNL     1     105.489 126.253 144.903  0.00  0.00    +0.000 A 
ATOM     10  C   UNL     1     105.183 124.884 145.327  0.00  0.00    +0.000 A 
ATOM     11  C   UNL     1     104.884 125.174 146.079  0.00  0.00    +0.000 A 
ATOM     12  C   UNL     1     105.194 126.562 145.649  0.00  0.00    +0.000 A 
ATOM     13  C   UNL     1     104.889 126.017 146.241  0.00  0.00    +0.000 A 
ENDROOT
BRANCH   5  18
ATOM     14  O   UNL     1     107.606 127.074 143.747  0.00  0.00    +0.000 OA
ATOM     15  C   UNL     1     106.939 128.075 141.925  0.00  0.00    +0.000 A 
ATOM     16  C   UNL     1     107.418 127.838 142.553  0.00  0.00    +0.000 A 
ATOM     17  C   UNL     1     106.169 127.786 141.860  0.00  0.00    +0.000 A 
ATOM     18  C   UNL     1     106.357 127.022 143.054  0.00  0.00    +0.000 A 
ATOM     19  C   UNL     1     107.127 127.312 143.117  0.00  0.00    +0.000 A 
ATOM     20  C   UNL     1     105.878 127.259 142.425  0.00  0.00    +0.000 A 
BRANCH  15  21
ATOM     21  O   UNL     1     107.231 128.601 141.360  0.00  0.00    +0.000 OA
BRANCH  21  30
ATOM     22  O   UNL     1     106.451 129.754 141.684  0.00  0.00    +0.000 OA
ATOM     23  O   UNL     1     108.466 131.176 141.478  0.00  0.00    +0.000 OA
ATOM     24  O   UNL     1     107.015 131.855 141.870  0.00  0.00    +0.000 OA
ATOM     25  O   UNL     1     108.574 129.549 141.223  0.00  0.00    +0.000 OA
ATOM     26  C   UNL     1     107.795 130.702 141.547  0.00  0.00    +0.000 C 
ATOM     27  C   UNL     1     107.069 131.041 141.743  0.00  0.00    +0.000 C 
ATOM     28  C   UNL     1     107.849 129.888 141.419  0.00  0.00    +0.000 C 
ATOM     29  C   UNL     1     106.397 130.568 141.811  0.00  0.00    +0.000 C 
ATOM     30  C   UNL     1     107.177 129.415 141.488  0.00  0.00    +0.000 C 
BRANCH  29  33
ATOM     31  O   UNL     1     105.472 131.026 142.799  0.00  0.00    +0.000 OA
ATOM     32  O   UNL     1     105.144 131.127 141.412  0.00  0.00    +0.000 OA
ATOM     33  C   UNL     1     105.671 130.907 142.007  0.00  0.00    +0.000 C 
ENDBRANCH  29  33
ENDBRANCH  21  30
ENDBRANCH  15  21
ENDBRANCH   5  18
BRANCH   6  34
ATOM     34  C   UNL     1     106.347 125.402 142.743  0.00  0.00    +0.000 C 
BRANCH  34  35
ATOM     35  C   UNL     1     105.891 124.882 142.294  0.00  0.00    +0.000 C 
ATOM     36  C   UNL     1     106.230 124.476 141.660  0.00  0.00    +0.000 C 
BRANCH  36  38
ATOM     37  O   UNL     1     107.529 123.941 141.400  0.00  0.00    +0.000 OA
ATOM     38  C   UNL     1     107.026 124.590 141.477  0.00  0.00    +0.000 C 
ENDBRANCH  36  38
BRANCH  36  39
ATOM     39  C   UNL     1     105.774 123.957 141.211  0.00  0.00    +0.000 C 
BRANCH  39  40
ATOM     40  C   UNL     1     105.374 124.230 140.543  0.00  0.00    +0.000 C 
BRANCH  40  41
ATOM     41  C   UNL     1     104.805 123.757 140.180  0.00  0.00    +0.000 C 
ATOM     42  C   UNL     1     104.426 124.018 139.495  0.00  0.00    +0.000 C 
ATOM     43  C   UNL     1     103.856 123.545 139.132  0.00  0.00    +0.000 C 
ATOM     44  C   UNL     1     104.617 124.753 139.173  0.00  0.00    +0.000 C 
ENDBRANCH  40  41
ENDBRANCH  39  40
ENDBRANCH  36  39
ENDBRANCH  34  35
ENDBRANCH   6  34
BRANCH  11  45
ATOM     45  C   UNL     1     104.593 124.645 146.641  0.00  0.00    +0.000 C 
BRANCH  45  46
ATOM     46  C   UNL     1     103.796 124.433 146.636  0.00  0.00    +0.000 C 
ATOM     47  C   UNL     1     103.485 123.981 147.253  0.00  0.00    +0.000 C 
ATOM     48  C   UNL     1     102.688 123.770 147.247  0.00  0.00    +0.000 C 
ATOM     49  C   UNL     1     103.972 123.740 147.873  0.00  0.00    +0.000 C 
ENDBRANCH  45  46
ENDBRANCH  11  45
TORSDOF 12
ENDMDL
