MODEL 1
REMARK VINA RESULT:      -9.8      0.000      0.000
REMARK  Name = 73813320
REMARK  7 active torsions:
REMARK  status: ('A' for Active; 'I' for Inactive)
REMARK    1  A    between atoms: O_3  and  C_25
REMARK    2  A    between atoms: O_3  and  C_30
REMARK    3  A    between atoms: O_4  and  C_26
REMARK    4  A    between atoms: O_4  and  C_32
REMARK    5  A    between atoms: C_23  and  C_28
REMARK    6  A    between atoms: C_24  and  C_29
REMARK    7  A    between atoms: C_27  and  C_33
REMARK                            x       y       z     vdW  Elec       q    Type
REMARK                         _______ _______ _______ _____ _____    ______ ____
ROOT
ATOM      1  C   UNL     1     106.530 126.366 145.761  0.00  0.00    +0.000 A 
ATOM      2  C   UNL     1     106.182 126.323 145.014  0.00  0.00    +0.000 A 
ATOM      3  C   UNL     1     105.873 127.613 145.995  0.00  0.00    +0.000 A 
ATOM      4  C   UNL     1     106.376 127.012 146.251  0.00  0.00    +0.000 A 
ATOM      5  C   UNL     1     105.679 126.925 144.758  0.00  0.00    +0.000 A 
ATOM      6  C   UNL     1     105.524 127.570 145.249  0.00  0.00    +0.000 A 
ENDROOT
BRANCH   3  11
ATOM      7  O   UNL     1     105.153 128.195 147.085  0.00  0.00    +0.000 OA
ATOM      8  O   UNL     1     106.693 129.029 145.782  0.00  0.00    +0.000 OA
ATOM      9  O   UNL     1     105.672 130.929 147.860  0.00  0.00    +0.000 OA
ATOM     10  O   UNL     1     103.677 129.362 149.307  0.00  0.00    +0.000 OA
ATOM     11  C   UNL     1     105.719 128.258 146.486  0.00  0.00    +0.000 C 
ATOM     12  C   UNL     1     106.128 128.966 146.380  0.00  0.00    +0.000 C 
ATOM     13  C   UNL     1     105.974 129.611 146.871  0.00  0.00    +0.000 C 
ATOM     14  C   UNL     1     105.409 129.547 147.470  0.00  0.00    +0.000 A 
ATOM     15  C   UNL     1     104.999 128.839 147.576  0.00  0.00    +0.000 A 
ATOM     16  C   UNL     1     105.257 130.225 147.974  0.00  0.00    +0.000 A 
ATOM     17  C   UNL     1     104.408 128.761 148.195  0.00  0.00    +0.000 A 
ATOM     18  C   UNL     1     104.670 130.166 148.599  0.00  0.00    +0.000 A 
ATOM     19  C   UNL     1     104.242 129.429 148.710  0.00  0.00    +0.000 A 
ENDBRANCH   3  11
BRANCH   1  20
ATOM     20  O   UNL     1     107.033 125.765 146.017  0.00  0.00    +0.000 OA
BRANCH  20  29
ATOM     21  O   UNL     1     106.146 125.067 146.893  0.00  0.00    +0.000 OA
ATOM     22  O   UNL     1     107.951 124.885 148.576  0.00  0.00    +0.000 OA
ATOM     23  O   UNL     1     106.462 124.248 148.891  0.00  0.00    +0.000 OA
ATOM     24  O   UNL     1     108.236 125.644 147.139  0.00  0.00    +0.000 OA
ATOM     25  C   UNL     1     107.349 124.946 148.015  0.00  0.00    +0.000 C 
ATOM     26  C   UNL     1     106.606 124.627 148.172  0.00  0.00    +0.000 C 
ATOM     27  C   UNL     1     107.493 125.326 147.296  0.00  0.00    +0.000 C 
ATOM     28  C   UNL     1     106.004 124.688 147.611  0.00  0.00    +0.000 C 
ATOM     29  C   UNL     1     106.891 125.386 146.735  0.00  0.00    +0.000 C 
BRANCH  28  31
ATOM     30  O   UNL     1     104.851 123.964 147.177  0.00  0.00    +0.000 OA
ATOM     31  C   UNL     1     105.259 124.369 147.769  0.00  0.00    +0.000 C 
ENDBRANCH  28  31
ENDBRANCH  20  29
ENDBRANCH   1  20
BRANCH   2  32
ATOM     32  O   UNL     1     106.336 125.678 144.524  0.00  0.00    +0.000 OA
BRANCH  32  41
ATOM     33  O   UNL     1     106.957 126.328 143.412  0.00  0.00    +0.000 OA
ATOM     34  O   UNL     1     105.529 125.034 141.859  0.00  0.00    +0.000 OA
ATOM     35  O   UNL     1     106.625 126.115 141.266  0.00  0.00    +0.000 OA
ATOM     36  O   UNL     1     105.385 124.816 143.488  0.00  0.00    +0.000 OA
ATOM     37  C   UNL     1     106.005 125.466 142.377  0.00  0.00    +0.000 C 
ATOM     38  C   UNL     1     106.553 126.006 142.080  0.00  0.00    +0.000 C 
ATOM     39  C   UNL     1     105.932 125.356 143.191  0.00  0.00    +0.000 C 
ATOM     40  C   UNL     1     107.029 126.437 142.598  0.00  0.00    +0.000 C 
ATOM     41  C   UNL     1     106.409 125.788 143.709  0.00  0.00    +0.000 C 
BRANCH  40  43
ATOM     42  O   UNL     1     108.359 126.958 142.562  0.00  0.00    +0.000 OA
ATOM     43  C   UNL     1     107.578 126.978 142.301  0.00  0.00    +0.000 C 
ENDBRANCH  40  43
ENDBRANCH  32  41
ENDBRANCH   2  32
TORSDOF 7
ENDMDL
MODEL 2
REMARK VINA RESULT:      -9.8      2.309      5.165
REMARK  Name = 73813320
REMARK  7 active torsions:
REMARK  status: ('A' for Active; 'I' for Inactive)
REMARK    1  A    between atoms: O_3  and  C_25
REMARK    2  A    between atoms: O_3  and  C_30
REMARK    3  A    between atoms: O_4  and  C_26
REMARK    4  A    between atoms: O_4  and  C_32
REMARK    5  A    between atoms: C_23  and  C_28
REMARK    6  A    between atoms: C_24  and  C_29
REMARK    7  A    between atoms: C_27  and  C_33
REMARK                            x       y       z     vdW  Elec       q    Type
REMARK                         _______ _______ _______ _____ _____    ______ ____
ROOT
ATOM      1  C   UNL     1     106.520 126.715 143.526  0.00  0.00    +0.000 A 
ATOM      2  C   UNL     1     106.213 126.406 144.227  0.00  0.00    +0.000 A 
ATOM      3  C   UNL     1     105.426 127.632 143.452  0.00  0.00    +0.000 A 
ATOM      4  C   UNL     1     106.126 127.328 143.139  0.00  0.00    +0.000 A 
ATOM      5  C   UNL     1     105.513 126.709 144.540  0.00  0.00    +0.000 A 
ATOM      6  C   UNL     1     105.120 127.322 144.152  0.00  0.00    +0.000 A 
ENDROOT
BRANCH   3  11
ATOM      7  O   UNL     1     104.605 128.089 142.375  0.00  0.00    +0.000 OA
ATOM      8  O   UNL     1     105.492 129.167 144.054  0.00  0.00    +0.000 OA
ATOM      9  O   UNL     1     103.878 130.880 142.200  0.00  0.00    +0.000 OA
ATOM     10  O   UNL     1     102.933 129.003 140.172  0.00  0.00    +0.000 OA
ATOM     11  C   UNL     1     105.032 128.245 143.064  0.00  0.00    +0.000 C 
ATOM     12  C   UNL     1     105.065 129.012 143.365  0.00  0.00    +0.000 C 
ATOM     13  C   UNL     1     104.672 129.625 142.977  0.00  0.00    +0.000 C 
ATOM     14  C   UNL     1     104.245 129.469 142.287  0.00  0.00    +0.000 A 
ATOM     15  C   UNL     1     104.212 128.701 141.987  0.00  0.00    +0.000 A 
ATOM     16  C   UNL     1     103.839 130.115 141.892  0.00  0.00    +0.000 A 
ATOM     17  C   UNL     1     103.771 128.527 141.270  0.00  0.00    +0.000 A 
ATOM     18  C   UNL     1     103.394 129.960 141.174  0.00  0.00    +0.000 A 
ATOM     19  C   UNL     1     103.359 129.161 140.861  0.00  0.00    +0.000 A 
ENDBRANCH   3  11
BRANCH   1  20
ATOM     20  O   UNL     1     107.220 126.412 143.213  0.00  0.00    +0.000 OA
BRANCH  20  29
ATOM     21  O   UNL     1     106.679 125.643 142.137  0.00  0.00    +0.000 OA
ATOM     22  O   UNL     1     108.466 126.479 140.641  0.00  0.00    +0.000 OA
ATOM     23  O   UNL     1     107.330 125.430 140.064  0.00  0.00    +0.000 OA
ATOM     24  O   UNL     1     108.410 126.970 142.216  0.00  0.00    +0.000 OA
ATOM     25  C   UNL     1     107.870 126.200 141.140  0.00  0.00    +0.000 C 
ATOM     26  C   UNL     1     107.303 125.676 140.851  0.00  0.00    +0.000 C 
ATOM     27  C   UNL     1     107.843 126.446 141.927  0.00  0.00    +0.000 C 
ATOM     28  C   UNL     1     106.707 125.398 141.350  0.00  0.00    +0.000 C 
ATOM     29  C   UNL     1     107.248 126.167 142.425  0.00  0.00    +0.000 C 
BRANCH  28  31
ATOM     30  O   UNL     1     105.896 124.234 141.522  0.00  0.00    +0.000 OA
ATOM     31  C   UNL     1     106.139 124.873 141.061  0.00  0.00    +0.000 C 
ENDBRANCH  28  31
ENDBRANCH  20  29
ENDBRANCH   1  20
BRANCH   2  32
ATOM     32  O   UNL     1     106.608 125.793 144.614  0.00  0.00    +0.000 OA
BRANCH  32  41
ATOM     33  O   UNL     1     106.974 126.476 145.815  0.00  0.00    +0.000 OA
ATOM     34  O   UNL     1     106.313 124.495 147.143  0.00  0.00    +0.000 OA
ATOM     35  O   UNL     1     106.900 125.838 147.900  0.00  0.00    +0.000 OA
ATOM     36  O   UNL     1     106.167 124.473 145.500  0.00  0.00    +0.000 OA
ATOM     37  C   UNL     1     106.534 125.156 146.700  0.00  0.00    +0.000 C 
ATOM     38  C   UNL     1     106.827 125.827 147.078  0.00  0.00    +0.000 C 
ATOM     39  C   UNL     1     106.460 125.144 145.878  0.00  0.00    +0.000 C 
ATOM     40  C   UNL     1     107.047 126.487 146.636  0.00  0.00    +0.000 C 
ATOM     41  C   UNL     1     106.681 125.805 145.436  0.00  0.00    +0.000 C 
BRANCH  40  43
ATOM     42  O   UNL     1     107.938 127.605 146.661  0.00  0.00    +0.000 OA
ATOM     43  C   UNL     1     107.341 127.159 147.015  0.00  0.00    +0.000 C 
ENDBRANCH  40  43
ENDBRANCH  32  41
ENDBRANCH   2  32
TORSDOF 7
ENDMDL
MODEL 3
REMARK VINA RESULT:      -9.8      3.831      5.572
REMARK  Name = 73813320
REMARK  7 active torsions:
REMARK  status: ('A' for Active; 'I' for Inactive)
REMARK    1  A    between atoms: O_3  and  C_25
REMARK    2  A    between atoms: O_3  and  C_30
REMARK    3  A    between atoms: O_4  and  C_26
REMARK    4  A    between atoms: O_4  and  C_32
REMARK    5  A    between atoms: C_23  and  C_28
REMARK    6  A    between atoms: C_24  and  C_29
REMARK    7  A    between atoms: C_27  and  C_33
REMARK                            x       y       z     vdW  Elec       q    Type
REMARK                         _______ _______ _______ _____ _____    ______ ____
ROOT
ATOM      1  C   UNL     1     105.950 128.565 141.850  0.00  0.00    +0.000 A 
ATOM      2  C   UNL     1     105.809 127.797 142.119  0.00  0.00    +0.000 A 
ATOM      3  C   UNL     1     104.580 128.897 142.085  0.00  0.00    +0.000 A 
ATOM      4  C   UNL     1     105.335 129.114 141.834  0.00  0.00    +0.000 A 
ATOM      5  C   UNL     1     105.054 127.579 142.370  0.00  0.00    +0.000 A 
ATOM      6  C   UNL     1     104.440 128.130 142.353  0.00  0.00    +0.000 A 
ENDROOT
BRANCH   3  11
ATOM      7  O   UNL     1     103.830 129.935 142.721  0.00  0.00    +0.000 OA
ATOM      8  O   UNL     1     103.623 129.026 140.747  0.00  0.00    +0.000 OA
ATOM      9  O   UNL     1     101.621 131.176 141.332  0.00  0.00    +0.000 OA
ATOM     10  O   UNL     1     102.313 132.046 144.033  0.00  0.00    +0.000 OA
ATOM     11  C   UNL     1     103.965 129.448 142.067  0.00  0.00    +0.000 C 
ATOM     12  C   UNL     1     103.487 129.512 141.399  0.00  0.00    +0.000 C 
ATOM     13  C   UNL     1     102.873 130.063 141.382  0.00  0.00    +0.000 C 
ATOM     14  C   UNL     1     102.737 130.550 142.035  0.00  0.00    +0.000 A 
ATOM     15  C   UNL     1     103.216 130.485 142.704  0.00  0.00    +0.000 A 
ATOM     16  C   UNL     1     102.095 131.119 142.006  0.00  0.00    +0.000 A 
ATOM     17  C   UNL     1     103.084 130.985 143.389  0.00  0.00    +0.000 A 
ATOM     18  C   UNL     1     101.948 131.628 142.682  0.00  0.00    +0.000 A 
ATOM     19  C   UNL     1     102.446 131.561 143.379  0.00  0.00    +0.000 A 
ENDBRANCH   3  11
BRANCH   1  20
ATOM     20  O   UNL     1     106.704 128.782 141.600  0.00  0.00    +0.000 OA
BRANCH  20  29
ATOM     21  O   UNL     1     107.114 129.517 142.755  0.00  0.00    +0.000 OA
ATOM     22  O   UNL     1     108.126 131.243 141.298  0.00  0.00    +0.000 OA
ATOM     23  O   UNL     1     108.198 131.402 142.939  0.00  0.00    +0.000 OA
ATOM     24  O   UNL     1     107.379 129.933 140.629  0.00  0.00    +0.000 OA
ATOM     25  C   UNL     1     107.789 130.668 141.784  0.00  0.00    +0.000 C 
ATOM     26  C   UNL     1     107.825 130.747 142.604  0.00  0.00    +0.000 C 
ATOM     27  C   UNL     1     107.415 130.013 141.448  0.00  0.00    +0.000 C 
ATOM     28  C   UNL     1     107.488 130.172 143.089  0.00  0.00    +0.000 C 
ATOM     29  C   UNL     1     107.078 129.437 141.934  0.00  0.00    +0.000 C 
BRANCH  28  31
ATOM     30  O   UNL     1     107.715 129.600 144.379  0.00  0.00    +0.000 OA
ATOM     31  C   UNL     1     107.524 130.251 143.910  0.00  0.00    +0.000 C 
ENDBRANCH  28  31
ENDBRANCH  20  29
ENDBRANCH   1  20
BRANCH   2  32
ATOM     32  O   UNL     1     106.424 127.248 142.136  0.00  0.00    +0.000 OA
BRANCH  32  41
ATOM     33  O   UNL     1     105.916 126.233 141.265  0.00  0.00    +0.000 OA
ATOM     34  O   UNL     1     106.518 124.504 142.930  0.00  0.00    +0.000 OA
ATOM     35  O   UNL     1     105.810 124.067 141.505  0.00  0.00    +0.000 OA
ATOM     36  O   UNL     1     106.824 126.094 143.245  0.00  0.00    +0.000 OA
ATOM     37  C   UNL     1     106.317 125.081 142.375  0.00  0.00    +0.000 C 
ATOM     38  C   UNL     1     105.963 124.862 141.662  0.00  0.00    +0.000 C 
ATOM     39  C   UNL     1     106.471 125.876 142.533  0.00  0.00    +0.000 C 
ATOM     40  C   UNL     1     105.763 125.439 141.108  0.00  0.00    +0.000 C 
ATOM     41  C   UNL     1     106.270 126.452 141.978  0.00  0.00    +0.000 C 
BRANCH  40  43
ATOM     42  O   UNL     1     105.724 125.484 139.680  0.00  0.00    +0.000 OA
ATOM     43  C   UNL     1     105.408 125.220 140.395  0.00  0.00    +0.000 C 
ENDBRANCH  40  43
ENDBRANCH  32  41
ENDBRANCH   2  32
TORSDOF 7
ENDMDL
MODEL 4
REMARK VINA RESULT:      -9.7      8.937     11.499
REMARK  Name = 73813320
REMARK  7 active torsions:
REMARK  status: ('A' for Active; 'I' for Inactive)
REMARK    1  A    between atoms: O_3  and  C_25
REMARK    2  A    between atoms: O_3  and  C_30
REMARK    3  A    between atoms: O_4  and  C_26
REMARK    4  A    between atoms: O_4  and  C_32
REMARK    5  A    between atoms: C_23  and  C_28
REMARK    6  A    between atoms: C_24  and  C_29
REMARK    7  A    between atoms: C_27  and  C_33
REMARK                            x       y       z     vdW  Elec       q    Type
REMARK                         _______ _______ _______ _____ _____    ______ ____
ROOT
ATOM      1  C   UNL     1     111.664 128.786 137.683  0.00  0.00    +0.000 A 
ATOM      2  C   UNL     1     111.447 129.220 137.015  0.00  0.00    +0.000 A 
ATOM      3  C   UNL     1     112.330 127.837 136.847  0.00  0.00    +0.000 A 
ATOM      4  C   UNL     1     112.105 128.094 137.598  0.00  0.00    +0.000 A 
ATOM      5  C   UNL     1     111.672 128.963 136.264  0.00  0.00    +0.000 A 
ATOM      6  C   UNL     1     112.113 128.271 136.181  0.00  0.00    +0.000 A 
ENDROOT
BRANCH   3  11
ATOM      7  O   UNL     1     112.414 126.410 136.882  0.00  0.00    +0.000 OA
ATOM      8  O   UNL     1     113.928 127.920 136.444  0.00  0.00    +0.000 OA
ATOM      9  O   UNL     1     114.922 125.098 136.307  0.00  0.00    +0.000 OA
ATOM     10  O   UNL     1     112.564 123.503 136.959  0.00  0.00    +0.000 OA
ATOM     11  C   UNL     1     112.772 127.145 136.764  0.00  0.00    +0.000 C 
ATOM     12  C   UNL     1     113.570 127.186 136.563  0.00  0.00    +0.000 C 
ATOM     13  C   UNL     1     114.012 126.494 136.479  0.00  0.00    +0.000 C 
ATOM     14  C   UNL     1     113.654 125.760 136.598  0.00  0.00    +0.000 A 
ATOM     15  C   UNL     1     112.855 125.719 136.799  0.00  0.00    +0.000 A 
ATOM     16  C   UNL     1     114.123 125.046 136.508  0.00  0.00    +0.000 A 
ATOM     17  C   UNL     1     112.471 124.960 136.925  0.00  0.00    +0.000 A 
ATOM     18  C   UNL     1     113.757 124.279 136.630  0.00  0.00    +0.000 A 
ATOM     19  C   UNL     1     112.925 124.235 136.840  0.00  0.00    +0.000 A 
ENDBRANCH   3  11
BRANCH   1  20
ATOM     20  O   UNL     1     111.439 129.043 138.433  0.00  0.00    +0.000 OA
BRANCH  20  29
ATOM     21  O   UNL     1     112.670 129.604 138.892  0.00  0.00    +0.000 OA
ATOM     22  O   UNL     1     112.379 128.462 141.068  0.00  0.00    +0.000 OA
ATOM     23  O   UNL     1     113.708 129.404 140.802  0.00  0.00    +0.000 OA
ATOM     24  O   UNL     1     111.245 128.281 139.884  0.00  0.00    +0.000 OA
ATOM     25  C   UNL     1     112.476 128.843 140.343  0.00  0.00    +0.000 C 
ATOM     26  C   UNL     1     113.140 129.313 140.210  0.00  0.00    +0.000 C 
ATOM     27  C   UNL     1     111.909 128.752 139.751  0.00  0.00    +0.000 C 
ATOM     28  C   UNL     1     113.237 129.694 139.485  0.00  0.00    +0.000 C 
ATOM     29  C   UNL     1     112.006 129.132 139.025  0.00  0.00    +0.000 C 
BRANCH  28  31
ATOM     30  O   UNL     1     113.825 130.879 138.945  0.00  0.00    +0.000 OA
ATOM     31  C   UNL     1     113.902 130.165 139.351  0.00  0.00    +0.000 C 
ENDBRANCH  28  31
ENDBRANCH  20  29
ENDBRANCH   1  20
BRANCH   2  32
ATOM     32  O   UNL     1     111.005 129.912 137.100  0.00  0.00    +0.000 OA
BRANCH  32  41
ATOM     33  O   UNL     1     109.815 129.454 136.454  0.00  0.00    +0.000 OA
ATOM     34  O   UNL     1     109.527 131.677 135.407  0.00  0.00    +0.000 OA
ATOM     35  O   UNL     1     108.433 130.478 135.111  0.00  0.00    +0.000 OA
ATOM     36  O   UNL     1     110.812 131.394 136.401  0.00  0.00    +0.000 OA
ATOM     37  C   UNL     1     109.623 130.936 135.756  0.00  0.00    +0.000 C 
ATOM     38  C   UNL     1     109.076 130.336 135.608  0.00  0.00    +0.000 C 
ATOM     39  C   UNL     1     110.266 130.795 136.253  0.00  0.00    +0.000 C 
ATOM     40  C   UNL     1     109.172 129.595 135.957  0.00  0.00    +0.000 C 
ATOM     41  C   UNL     1     110.362 130.053 136.602  0.00  0.00    +0.000 C 
BRANCH  40  43
ATOM     42  O   UNL     1     108.351 128.525 136.429  0.00  0.00    +0.000 OA
ATOM     43  C   UNL     1     108.625 128.995 135.809  0.00  0.00    +0.000 C 
ENDBRANCH  40  43
ENDBRANCH  32  41
ENDBRANCH   2  32
TORSDOF 7
ENDMDL
MODEL 5
REMARK VINA RESULT:      -9.6      9.962     11.384
REMARK  Name = 73813320
REMARK  7 active torsions:
REMARK  status: ('A' for Active; 'I' for Inactive)
REMARK    1  A    between atoms: O_3  and  C_25
REMARK    2  A    between atoms: O_3  and  C_30
REMARK    3  A    between atoms: O_4  and  C_26
REMARK    4  A    between atoms: O_4  and  C_32
REMARK    5  A    between atoms: C_23  and  C_28
REMARK    6  A    between atoms: C_24  and  C_29
REMARK    7  A    between atoms: C_27  and  C_33
REMARK                            x       y       z     vdW  Elec       q    Type
REMARK                         _______ _______ _______ _____ _____    ______ ____
ROOT
ATOM      1  C   UNL     1     112.207 128.060 137.367  0.00  0.00    +0.000 A 
ATOM      2  C   UNL     1     112.419 127.452 136.850  0.00  0.00    +0.000 A 
ATOM      3  C   UNL     1     111.092 128.380 136.531  0.00  0.00    +0.000 A 
ATOM      4  C   UNL     1     111.543 128.523 137.207  0.00  0.00    +0.000 A 
ATOM      5  C   UNL     1     111.968 127.308 136.174  0.00  0.00    +0.000 A 
ATOM      6  C   UNL     1     111.304 127.773 136.015  0.00  0.00    +0.000 A 
ENDROOT
BRANCH   3  11
ATOM      7  O   UNL     1     110.519 129.585 136.018  0.00  0.00    +0.000 OA
ATOM      8  O   UNL     1     109.586 127.830 136.921  0.00  0.00    +0.000 OA
ATOM      9  O   UNL     1     107.656 129.965 136.092  0.00  0.00    +0.000 OA
ATOM     10  O   UNL     1     109.369 132.046 134.968  0.00  0.00    +0.000 OA
ATOM     11  C   UNL     1     110.429 128.844 136.373  0.00  0.00    +0.000 C 
ATOM     12  C   UNL     1     109.676 128.569 136.567  0.00  0.00    +0.000 C 
ATOM     13  C   UNL     1     109.013 129.034 136.409  0.00  0.00    +0.000 C 
ATOM     14  C   UNL     1     109.103 129.774 136.054  0.00  0.00    +0.000 A 
ATOM     15  C   UNL     1     109.856 130.049 135.859  0.00  0.00    +0.000 A 
ATOM     16  C   UNL     1     108.405 130.248 135.894  0.00  0.00    +0.000 A 
ATOM     17  C   UNL     1     109.963 130.817 135.490  0.00  0.00    +0.000 A 
ATOM     18  C   UNL     1     108.492 131.019 135.525  0.00  0.00    +0.000 A 
ATOM     19  C   UNL     1     109.276 131.306 135.322  0.00  0.00    +0.000 A 
ENDBRANCH   3  11
BRANCH   1  20
ATOM     20  O   UNL     1     112.657 128.204 138.041  0.00  0.00    +0.000 OA
BRANCH  20  29
ATOM     21  O   UNL     1     113.370 129.360 137.598  0.00  0.00    +0.000 OA
ATOM     22  O   UNL     1     113.009 130.428 139.801  0.00  0.00    +0.000 OA
ATOM     23  O   UNL     1     113.842 131.228 138.623  0.00  0.00    +0.000 OA
ATOM     24  O   UNL     1     112.416 128.916 139.510  0.00  0.00    +0.000 OA
ATOM     25  C   UNL     1     113.129 130.072 139.067  0.00  0.00    +0.000 C 
ATOM     26  C   UNL     1     113.545 130.472 138.478  0.00  0.00    +0.000 C 
ATOM     27  C   UNL     1     112.833 129.316 138.922  0.00  0.00    +0.000 C 
ATOM     28  C   UNL     1     113.666 130.116 137.744  0.00  0.00    +0.000 C 
ATOM     29  C   UNL     1     112.953 128.960 138.187  0.00  0.00    +0.000 C 
BRANCH  28  31
ATOM     30  O   UNL     1     114.628 130.110 136.687  0.00  0.00    +0.000 OA
ATOM     31  C   UNL     1     114.083 130.516 137.154  0.00  0.00    +0.000 C 
ENDBRANCH  28  31
ENDBRANCH  20  29
ENDBRANCH   1  20
BRANCH   2  32
ATOM     32  O   UNL     1     113.083 126.989 137.010  0.00  0.00    +0.000 OA
BRANCH  32  41
ATOM     33  O   UNL     1     112.384 125.772 137.286  0.00  0.00    +0.000 OA
ATOM     34  O   UNL     1     114.178 124.488 136.163  0.00  0.00    +0.000 OA
ATOM     35  O   UNL     1     112.882 123.701 136.814  0.00  0.00    +0.000 OA
ATOM     36  O   UNL     1     114.277 126.132 136.262  0.00  0.00    +0.000 OA
ATOM     37  C   UNL     1     113.579 124.917 136.538  0.00  0.00    +0.000 C 
ATOM     38  C   UNL     1     112.931 124.523 136.863  0.00  0.00    +0.000 C 
ATOM     39  C   UNL     1     113.630 125.739 136.586  0.00  0.00    +0.000 C 
ATOM     40  C   UNL     1     112.334 124.951 137.237  0.00  0.00    +0.000 C 
ATOM     41  C   UNL     1     113.032 126.166 136.961  0.00  0.00    +0.000 C 
BRANCH  40  43
ATOM     42  O   UNL     1     111.415 124.760 138.314  0.00  0.00    +0.000 OA
ATOM     43  C   UNL     1     111.686 124.557 137.562  0.00  0.00    +0.000 C 
ENDBRANCH  40  43
ENDBRANCH  32  41
ENDBRANCH   2  32
TORSDOF 7
ENDMDL
MODEL 6
REMARK VINA RESULT:      -9.6      6.843     10.212
REMARK  Name = 73813320
REMARK  7 active torsions:
REMARK  status: ('A' for Active; 'I' for Inactive)
REMARK    1  A    between atoms: O_3  and  C_25
REMARK    2  A    between atoms: O_3  and  C_30
REMARK    3  A    between atoms: O_4  and  C_26
REMARK    4  A    between atoms: O_4  and  C_32
REMARK    5  A    between atoms: C_23  and  C_28
REMARK    6  A    between atoms: C_24  and  C_29
REMARK    7  A    between atoms: C_27  and  C_33
REMARK                            x       y       z     vdW  Elec       q    Type
REMARK                         _______ _______ _______ _____ _____    ______ ____
ROOT
ATOM      1  C   UNL     1     110.154 127.538 138.382  0.00  0.00    +0.000 A 
ATOM      2  C   UNL     1     110.255 128.302 138.086  0.00  0.00    +0.000 A 
ATOM      3  C   UNL     1     111.283 127.097 137.625  0.00  0.00    +0.000 A 
ATOM      4  C   UNL     1     110.668 126.935 138.151  0.00  0.00    +0.000 A 
ATOM      5  C   UNL     1     110.870 128.463 137.560  0.00  0.00    +0.000 A 
ATOM      6  C   UNL     1     111.383 127.860 137.330  0.00  0.00    +0.000 A 
ENDROOT
BRANCH   3  11
ATOM      7  O   UNL     1     112.533 126.416 137.760  0.00  0.00    +0.000 OA
ATOM      8  O   UNL     1     110.840 126.045 136.433  0.00  0.00    +0.000 OA
ATOM      9  O   UNL     1     113.121 124.134 136.089  0.00  0.00    +0.000 OA
ATOM     10  O   UNL     1     115.084 125.043 138.051  0.00  0.00    +0.000 OA
ATOM     11  C   UNL     1     111.796 126.493 137.394  0.00  0.00    +0.000 C 
ATOM     12  C   UNL     1     111.575 125.968 136.799  0.00  0.00    +0.000 C 
ATOM     13  C   UNL     1     112.089 125.364 136.568  0.00  0.00    +0.000 C 
ATOM     14  C   UNL     1     112.825 125.287 136.934  0.00  0.00    +0.000 A 
ATOM     15  C   UNL     1     113.046 125.814 137.530  0.00  0.00    +0.000 A 
ATOM     16  C   UNL     1     113.351 124.656 136.686  0.00  0.00    +0.000 A 
ATOM     17  C   UNL     1     113.809 125.744 137.918  0.00  0.00    +0.000 A 
ATOM     18  C   UNL     1     114.119 124.570 137.063  0.00  0.00    +0.000 A 
ATOM     19  C   UNL     1     114.350 125.118 137.684  0.00  0.00    +0.000 A 
ENDBRANCH   3  11
BRANCH   1  20
ATOM     20  O   UNL     1     109.540 127.377 138.907  0.00  0.00    +0.000 OA
BRANCH  20  29
ATOM     21  O   UNL     1     110.289 127.205 140.111  0.00  0.00    +0.000 OA
ATOM     22  O   UNL     1     108.941 125.205 140.666  0.00  0.00    +0.000 OA
ATOM     23  O   UNL     1     110.140 125.700 141.685  0.00  0.00    +0.000 OA
ATOM     24  O   UNL     1     108.641 126.043 139.277  0.00  0.00    +0.000 OA
ATOM     25  C   UNL     1     109.390 125.872 140.481  0.00  0.00    +0.000 C 
ATOM     26  C   UNL     1     109.989 126.119 140.990  0.00  0.00    +0.000 C 
ATOM     27  C   UNL     1     109.240 126.290 139.786  0.00  0.00    +0.000 C 
ATOM     28  C   UNL     1     110.439 126.785 140.806  0.00  0.00    +0.000 C 
ATOM     29  C   UNL     1     109.689 126.957 139.601  0.00  0.00    +0.000 C 
BRANCH  28  31
ATOM     30  O   UNL     1     111.075 127.821 141.557  0.00  0.00    +0.000 OA
ATOM     31  C   UNL     1     111.039 127.033 141.316  0.00  0.00    +0.000 C 
ENDBRANCH  28  31
ENDBRANCH  20  29
ENDBRANCH   1  20
BRANCH   2  32
ATOM     32  O   UNL     1     109.741 128.904 138.318  0.00  0.00    +0.000 OA
BRANCH  32  41
ATOM     33  O   UNL     1     109.117 129.131 137.052  0.00  0.00    +0.000 OA
ATOM     34  O   UNL     1     109.157 131.570 137.469  0.00  0.00    +0.000 OA
ATOM     35  O   UNL     1     108.520 130.984 136.065  0.00  0.00    +0.000 OA
ATOM     36  O   UNL     1     109.767 130.530 138.595  0.00  0.00    +0.000 OA
ATOM     37  C   UNL     1     109.144 130.757 137.330  0.00  0.00    +0.000 C 
ATOM     38  C   UNL     1     108.825 130.463 136.628  0.00  0.00    +0.000 C 
ATOM     39  C   UNL     1     109.449 130.237 137.894  0.00  0.00    +0.000 C 
ATOM     40  C   UNL     1     108.812 129.651 136.489  0.00  0.00    +0.000 C 
ATOM     41  C   UNL     1     109.435 129.424 137.754  0.00  0.00    +0.000 C 
BRANCH  40  43
ATOM     42  O   UNL     1     108.018 128.684 135.798  0.00  0.00    +0.000 OA
ATOM     43  C   UNL     1     108.493 129.358 135.786  0.00  0.00    +0.000 C 
ENDBRANCH  40  43
ENDBRANCH  32  41
ENDBRANCH   2  32
TORSDOF 7
ENDMDL
MODEL 7
REMARK VINA RESULT:      -9.6      8.483     11.523
REMARK  Name = 73813320
REMARK  7 active torsions:
REMARK  status: ('A' for Active; 'I' for Inactive)
REMARK    1  A    between atoms: O_3  and  C_25
REMARK    2  A    between atoms: O_3  and  C_30
REMARK    3  A    between atoms: O_4  and  C_26
REMARK    4  A    between atoms: O_4  and  C_32
REMARK    5  A    between atoms: C_23  and  C_28
REMARK    6  A    between atoms: C_24  and  C_29
REMARK    7  A    between atoms: C_27  and  C_33
REMARK                            x       y       z     vdW  Elec       q    Type
REMARK                         _______ _______ _______ _____ _____    ______ ____
ROOT
ATOM      1  C   UNL     1     112.421 129.975 138.775  0.00  0.00    +0.000 A 
ATOM      2  C   UNL     1     111.614 129.916 138.611  0.00  0.00    +0.000 A 
ATOM      3  C   UNL     1     112.718 129.740 137.397  0.00  0.00    +0.000 A 
ATOM      4  C   UNL     1     112.973 129.887 138.167  0.00  0.00    +0.000 A 
ATOM      5  C   UNL     1     111.360 129.768 137.840  0.00  0.00    +0.000 A 
ATOM      6  C   UNL     1     111.912 129.680 137.233  0.00  0.00    +0.000 A 
ENDROOT
BRANCH   3  11
ATOM      7  O   UNL     1     113.689 130.309 136.515  0.00  0.00    +0.000 OA
ATOM      8  O   UNL     1     112.988 128.253 136.734  0.00  0.00    +0.000 OA
ATOM      9  O   UNL     1     115.077 128.627 134.620  0.00  0.00    +0.000 OA
ATOM     10  O   UNL     1     115.662 131.486 134.726  0.00  0.00    +0.000 OA
ATOM     11  C   UNL     1     113.271 129.652 136.790  0.00  0.00    +0.000 C 
ATOM     12  C   UNL     1     113.406 128.909 136.459  0.00  0.00    +0.000 C 
ATOM     13  C   UNL     1     113.958 128.821 135.852  0.00  0.00    +0.000 C 
ATOM     14  C   UNL     1     114.376 129.478 135.577  0.00  0.00    +0.000 A 
ATOM     15  C   UNL     1     114.241 130.221 135.909  0.00  0.00    +0.000 A 
ATOM     16  C   UNL     1     114.948 129.375 134.945  0.00  0.00    +0.000 A 
ATOM     17  C   UNL     1     114.669 130.912 135.631  0.00  0.00    +0.000 A 
ATOM     18  C   UNL     1     115.387 130.054 134.654  0.00  0.00    +0.000 A 
ATOM     19  C   UNL     1     115.246 130.828 134.999  0.00  0.00    +0.000 A 
ENDBRANCH   3  11
BRANCH   1  20
ATOM     20  O   UNL     1     112.676 130.123 139.545  0.00  0.00    +0.000 OA
BRANCH  20  29
ATOM     21  O   UNL     1     113.093 128.807 139.917  0.00  0.00    +0.000 OA
ATOM     22  O   UNL     1     115.144 129.746 140.935  0.00  0.00    +0.000 OA
ATOM     23  O   UNL     1     114.877 128.118 140.968  0.00  0.00    +0.000 OA
ATOM     24  O   UNL     1     114.043 130.748 140.224  0.00  0.00    +0.000 OA
ATOM     25  C   UNL     1     114.460 129.433 140.596  0.00  0.00    +0.000 C 
ATOM     26  C   UNL     1     114.327 128.620 140.612  0.00  0.00    +0.000 C 
ATOM     27  C   UNL     1     113.910 129.935 140.240  0.00  0.00    +0.000 C 
ATOM     28  C   UNL     1     113.643 128.307 140.273  0.00  0.00    +0.000 C 
ATOM     29  C   UNL     1     113.226 129.622 139.901  0.00  0.00    +0.000 C 
BRANCH  28  31
ATOM     30  O   UNL     1     112.743 127.203 140.380  0.00  0.00    +0.000 OA
ATOM     31  C   UNL     1     113.510 127.492 140.289  0.00  0.00    +0.000 C 
ENDBRANCH  28  31
ENDBRANCH  20  29
ENDBRANCH   1  20
BRANCH   2  32
ATOM     32  O   UNL     1     111.063 130.004 139.218  0.00  0.00    +0.000 OA
BRANCH  32  41
ATOM     33  O   UNL     1     110.401 131.183 138.753  0.00  0.00    +0.000 OA
ATOM     34  O   UNL     1     108.214 130.189 139.349  0.00  0.00    +0.000 OA
ATOM     35  O   UNL     1     108.282 131.699 138.685  0.00  0.00    +0.000 OA
ATOM     36  O   UNL     1     109.605 129.343 139.615  0.00  0.00    +0.000 OA
ATOM     37  C   UNL     1     108.944 130.521 139.150  0.00  0.00    +0.000 C 
ATOM     38  C   UNL     1     108.978 131.275 138.818  0.00  0.00    +0.000 C 
ATOM     39  C   UNL     1     109.639 130.097 139.283  0.00  0.00    +0.000 C 
ATOM     40  C   UNL     1     109.707 131.606 138.620  0.00  0.00    +0.000 C 
ATOM     41  C   UNL     1     110.367 130.428 139.085  0.00  0.00    +0.000 C 
BRANCH  40  43
ATOM     42  O   UNL     1     110.173 132.956 138.660  0.00  0.00    +0.000 OA
ATOM     43  C   UNL     1     109.740 132.361 138.288  0.00  0.00    +0.000 C 
ENDBRANCH  40  43
ENDBRANCH  32  41
ENDBRANCH   2  32
TORSDOF 7
ENDMDL
MODEL 8
REMARK VINA RESULT:      -9.6      5.746     10.637
REMARK  Name = 73813320
REMARK  7 active torsions:
REMARK  status: ('A' for Active; 'I' for Inactive)
REMARK    1  A    between atoms: O_3  and  C_25
REMARK    2  A    between atoms: O_3  and  C_30
REMARK    3  A    between atoms: O_4  and  C_26
REMARK    4  A    between atoms: O_4  and  C_32
REMARK    5  A    between atoms: C_23  and  C_28
REMARK    6  A    between atoms: C_24  and  C_29
REMARK    7  A    between atoms: C_27  and  C_33
REMARK                            x       y       z     vdW  Elec       q    Type
REMARK                         _______ _______ _______ _____ _____    ______ ____
ROOT
ATOM      1  C   UNL     1     110.208 127.329 138.573  0.00  0.00    +0.000 A 
ATOM      2  C   UNL     1     110.251 127.327 139.398  0.00  0.00    +0.000 A 
ATOM      3  C   UNL     1     111.285 126.392 138.515  0.00  0.00    +0.000 A 
ATOM      4  C   UNL     1     110.725 126.862 138.133  0.00  0.00    +0.000 A 
ATOM      5  C   UNL     1     110.810 126.857 139.780  0.00  0.00    +0.000 A 
ATOM      6  C   UNL     1     111.327 126.390 139.339  0.00  0.00    +0.000 A 
ENDROOT
BRANCH   3  11
ATOM      7  O   UNL     1     112.489 126.256 137.756  0.00  0.00    +0.000 OA
ATOM      8  O   UNL     1     110.948 124.796 138.265  0.00  0.00    +0.000 OA
ATOM      9  O   UNL     1     113.191 123.698 136.611  0.00  0.00    +0.000 OA
ATOM     10  O   UNL     1     114.945 125.999 136.213  0.00  0.00    +0.000 OA
ATOM     11  C   UNL     1     111.802 125.924 138.073  0.00  0.00    +0.000 C 
ATOM     12  C   UNL     1     111.634 125.127 137.948  0.00  0.00    +0.000 C 
ATOM     13  C   UNL     1     112.151 124.660 137.507  0.00  0.00    +0.000 C 
ATOM     14  C   UNL     1     112.837 124.992 137.189  0.00  0.00    +0.000 A 
ATOM     15  C   UNL     1     113.006 125.790 137.315  0.00  0.00    +0.000 A 
ATOM     16  C   UNL     1     113.368 124.496 136.731  0.00  0.00    +0.000 A 
ATOM     17  C   UNL     1     113.717 126.146 136.990  0.00  0.00    +0.000 A 
ATOM     18  C   UNL     1     114.084 124.834 136.399  0.00  0.00    +0.000 A 
ATOM     19  C   UNL     1     114.260 125.665 136.529  0.00  0.00    +0.000 A 
ENDBRANCH   3  11
BRANCH   1  20
ATOM     20  O   UNL     1     109.648 127.798 138.191  0.00  0.00    +0.000 OA
BRANCH  20  29
ATOM     21  O   UNL     1     110.502 128.823 137.677  0.00  0.00    +0.000 OA
ATOM     22  O   UNL     1     109.322 128.716 135.504  0.00  0.00    +0.000 OA
ATOM     23  O   UNL     1     110.568 129.776 135.715  0.00  0.00    +0.000 OA
ATOM     24  O   UNL     1     108.862 127.727 136.742  0.00  0.00    +0.000 OA
ATOM     25  C   UNL     1     109.715 128.752 136.228  0.00  0.00    +0.000 C 
ATOM     26  C   UNL     1     110.338 129.281 136.333  0.00  0.00    +0.000 C 
ATOM     27  C   UNL     1     109.485 128.257 136.847  0.00  0.00    +0.000 C 
ATOM     28  C   UNL     1     110.731 129.317 137.058  0.00  0.00    +0.000 C 
ATOM     29  C   UNL     1     109.878 128.292 137.572  0.00  0.00    +0.000 C 
BRANCH  28  31
ATOM     30  O   UNL     1     111.419 130.274 137.867  0.00  0.00    +0.000 OA
ATOM     31  C   UNL     1     111.355 129.848 137.163  0.00  0.00    +0.000 C 
ENDBRANCH  28  31
ENDBRANCH  20  29
ENDBRANCH   1  20
BRANCH   2  32
ATOM     32  O   UNL     1     109.733 127.794 139.838  0.00  0.00    +0.000 OA
BRANCH  32  41
ATOM     33  O   UNL     1     108.874 126.770 140.345  0.00  0.00    +0.000 OA
ATOM     34  O   UNL     1     108.902 127.850 142.572  0.00  0.00    +0.000 OA
ATOM     35  O   UNL     1     108.033 126.467 142.336  0.00  0.00    +0.000 OA
ATOM     36  O   UNL     1     109.751 128.513 141.323  0.00  0.00    +0.000 OA
ATOM     37  C   UNL     1     108.892 127.490 141.829  0.00  0.00    +0.000 C 
ATOM     38  C   UNL     1     108.458 126.798 141.711  0.00  0.00    +0.000 C 
ATOM     39  C   UNL     1     109.317 127.822 141.205  0.00  0.00    +0.000 C 
ATOM     40  C   UNL     1     108.449 126.439 140.969  0.00  0.00    +0.000 C 
ATOM     41  C   UNL     1     109.308 127.462 140.463  0.00  0.00    +0.000 C 
BRANCH  40  43
ATOM     42  O   UNL     1     107.549 125.663 140.176  0.00  0.00    +0.000 OA
ATOM     43  C   UNL     1     108.014 125.747 140.851  0.00  0.00    +0.000 C 
ENDBRANCH  40  43
ENDBRANCH  32  41
ENDBRANCH   2  32
TORSDOF 7
ENDMDL
MODEL 9
REMARK VINA RESULT:      -9.5      2.430      5.306
REMARK  Name = 73813320
REMARK  7 active torsions:
REMARK  status: ('A' for Active; 'I' for Inactive)
REMARK    1  A    between atoms: O_3  and  C_25
REMARK    2  A    between atoms: O_3  and  C_30
REMARK    3  A    between atoms: O_4  and  C_26
REMARK    4  A    between atoms: O_4  and  C_32
REMARK    5  A    between atoms: C_23  and  C_28
REMARK    6  A    between atoms: C_24  and  C_29
REMARK    7  A    between atoms: C_27  and  C_33
REMARK                            x       y       z     vdW  Elec       q    Type
REMARK                         _______ _______ _______ _____ _____    ______ ____
ROOT
ATOM      1  C   UNL     1     106.460 126.987 143.599  0.00  0.00    +0.000 A 
ATOM      2  C   UNL     1     106.300 126.837 144.395  0.00  0.00    +0.000 A 
ATOM      3  C   UNL     1     105.370 127.911 143.555  0.00  0.00    +0.000 A 
ATOM      4  C   UNL     1     105.995 127.524 143.179  0.00  0.00    +0.000 A 
ATOM      5  C   UNL     1     105.675 127.224 144.770  0.00  0.00    +0.000 A 
ATOM      6  C   UNL     1     105.211 127.761 144.349  0.00  0.00    +0.000 A 
ENDROOT
BRANCH   3  11
ATOM      7  O   UNL     1     104.567 128.224 142.414  0.00  0.00    +0.000 OA
ATOM      8  O   UNL     1     105.116 129.428 144.150  0.00  0.00    +0.000 OA
ATOM      9  O   UNL     1     103.372 130.842 142.167  0.00  0.00    +0.000 OA
ATOM     10  O   UNL     1     102.935 128.844 140.083  0.00  0.00    +0.000 OA
ATOM     11  C   UNL     1     104.905 128.447 143.134  0.00  0.00    +0.000 C 
ATOM     12  C   UNL     1     104.778 129.205 143.431  0.00  0.00    +0.000 C 
ATOM     13  C   UNL     1     104.313 129.742 143.010  0.00  0.00    +0.000 C 
ATOM     14  C   UNL     1     103.975 129.519 142.290  0.00  0.00    +0.000 A 
ATOM     15  C   UNL     1     104.103 128.760 141.993  0.00  0.00    +0.000 A 
ATOM     16  C   UNL     1     103.494 130.085 141.861  0.00  0.00    +0.000 A 
ATOM     17  C   UNL     1     103.757 128.516 141.246  0.00  0.00    +0.000 A 
ATOM     18  C   UNL     1     103.139 129.860 141.112  0.00  0.00    +0.000 A 
ATOM     19  C   UNL     1     103.272 129.069 140.802  0.00  0.00    +0.000 A 
ENDBRANCH   3  11
BRANCH   1  20
ATOM     20  O   UNL     1     107.084 126.601 143.224  0.00  0.00    +0.000 OA
BRANCH  20  29
ATOM     21  O   UNL     1     107.991 127.689 143.039  0.00  0.00    +0.000 OA
ATOM     22  O   UNL     1     108.377 126.969 140.702  0.00  0.00    +0.000 OA
ATOM     23  O   UNL     1     109.156 128.297 141.296  0.00  0.00    +0.000 OA
ATOM     24  O   UNL     1     107.341 126.121 141.666  0.00  0.00    +0.000 OA
ATOM     25  C   UNL     1     108.249 127.209 141.481  0.00  0.00    +0.000 C 
ATOM     26  C   UNL     1     108.638 127.873 141.777  0.00  0.00    +0.000 C 
ATOM     27  C   UNL     1     107.730 126.785 141.963  0.00  0.00    +0.000 C 
ATOM     28  C   UNL     1     108.509 128.113 142.556  0.00  0.00    +0.000 C 
ATOM     29  C   UNL     1     107.602 127.025 142.742  0.00  0.00    +0.000 C 
BRANCH  28  31
ATOM     30  O   UNL     1     109.167 128.783 143.633  0.00  0.00    +0.000 OA
ATOM     31  C   UNL     1     108.899 128.777 142.853  0.00  0.00    +0.000 C 
ENDBRANCH  28  31
ENDBRANCH  20  29
ENDBRANCH   1  20
BRANCH   2  32
ATOM     32  O   UNL     1     106.765 126.301 144.814  0.00  0.00    +0.000 OA
BRANCH  32  41
ATOM     33  O   UNL     1     105.791 125.284 145.061  0.00  0.00    +0.000 OA
ATOM     34  O   UNL     1     106.582 125.093 147.398  0.00  0.00    +0.000 OA
ATOM     35  O   UNL     1     105.345 124.140 146.865  0.00  0.00    +0.000 OA
ATOM     36  O   UNL     1     107.291 126.173 146.373  0.00  0.00    +0.000 OA
ATOM     37  C   UNL     1     106.318 125.156 146.618  0.00  0.00    +0.000 C 
ATOM     38  C   UNL     1     105.700 124.680 146.352  0.00  0.00    +0.000 C 
ATOM     39  C   UNL     1     106.674 125.697 146.106  0.00  0.00    +0.000 C 
ATOM     40  C   UNL     1     105.437 124.744 145.573  0.00  0.00    +0.000 C 
ATOM     41  C   UNL     1     106.410 125.760 145.327  0.00  0.00    +0.000 C 
BRANCH  40  43
ATOM     42  O   UNL     1     104.855 123.924 144.557  0.00  0.00    +0.000 OA
ATOM     43  C   UNL     1     104.818 124.267 145.306  0.00  0.00    +0.000 C 
ENDBRANCH  40  43
ENDBRANCH  32  41
ENDBRANCH   2  32
TORSDOF 7
ENDMDL
MODEL 10
REMARK VINA RESULT:      -9.5      6.219     10.838
REMARK  Name = 73813320
REMARK  7 active torsions:
REMARK  status: ('A' for Active; 'I' for Inactive)
REMARK    1  A    between atoms: O_3  and  C_25
REMARK    2  A    between atoms: O_3  and  C_30
REMARK    3  A    between atoms: O_4  and  C_26
REMARK    4  A    between atoms: O_4  and  C_32
REMARK    5  A    between atoms: C_23  and  C_28
REMARK    6  A    between atoms: C_24  and  C_29
REMARK    7  A    between atoms: C_27  and  C_33
REMARK                            x       y       z     vdW  Elec       q    Type
REMARK                         _______ _______ _______ _____ _____    ______ ____
ROOT
ATOM      1  C   UNL     1     111.942 128.298 139.367  0.00  0.00    +0.000 A 
ATOM      2  C   UNL     1     111.817 128.147 140.169  0.00  0.00    +0.000 A 
ATOM      3  C   UNL     1     112.550 127.013 139.220  0.00  0.00    +0.000 A 
ATOM      4  C   UNL     1     112.309 127.731 138.894  0.00  0.00    +0.000 A 
ATOM      5  C   UNL     1     112.058 127.429 140.496  0.00  0.00    +0.000 A 
ATOM      6  C   UNL     1     112.425 126.862 140.021  0.00  0.00    +0.000 A 
ENDROOT
BRANCH   3  11
ATOM      7  O   UNL     1     112.466 125.996 138.220  0.00  0.00    +0.000 OA
ATOM      8  O   UNL     1     114.180 126.780 139.320  0.00  0.00    +0.000 OA
ATOM      9  O   UNL     1     114.856 124.617 137.361  0.00  0.00    +0.000 OA
ATOM     10  O   UNL     1     112.276 123.926 136.179  0.00  0.00    +0.000 OA
ATOM     11  C   UNL     1     112.916 126.446 138.745  0.00  0.00    +0.000 C 
ATOM     12  C   UNL     1     113.731 126.330 138.795  0.00  0.00    +0.000 C 
ATOM     13  C   UNL     1     114.097 125.764 138.320  0.00  0.00    +0.000 C 
ATOM     14  C   UNL     1     113.647 125.313 137.794  0.00  0.00    +0.000 A 
ATOM     15  C   UNL     1     112.832 125.429 137.745  0.00  0.00    +0.000 A 
ATOM     16  C   UNL     1     114.039 124.726 137.305  0.00  0.00    +0.000 A 
ATOM     17  C   UNL     1     112.353 124.967 137.202  0.00  0.00    +0.000 A 
ATOM     18  C   UNL     1     113.577 124.254 136.756  0.00  0.00    +0.000 A 
ATOM     19  C   UNL     1     112.728 124.375 136.704  0.00  0.00    +0.000 A 
ENDBRANCH   3  11
BRANCH   1  20
ATOM     20  O   UNL     1     111.701 129.015 139.041  0.00  0.00    +0.000 OA
BRANCH  20  29
ATOM     21  O   UNL     1     112.929 129.746 139.041  0.00  0.00    +0.000 OA
ATOM     22  O   UNL     1     112.521 130.433 136.698  0.00  0.00    +0.000 OA
ATOM     23  O   UNL     1     113.885 130.935 137.479  0.00  0.00    +0.000 OA
ATOM     24  O   UNL     1     111.429 129.473 137.479  0.00  0.00    +0.000 OA
ATOM     25  C   UNL     1     112.657 130.204 137.479  0.00  0.00    +0.000 C 
ATOM     26  C   UNL     1     113.338 130.455 137.869  0.00  0.00    +0.000 C 
ATOM     27  C   UNL     1     112.110 129.724 137.869  0.00  0.00    +0.000 C 
ATOM     28  C   UNL     1     113.475 130.226 138.650  0.00  0.00    +0.000 C 
ATOM     29  C   UNL     1     112.247 129.495 138.650  0.00  0.00    +0.000 C 
BRANCH  28  31
ATOM     30  O   UNL     1     114.105 130.786 139.804  0.00  0.00    +0.000 OA
ATOM     31  C   UNL     1     114.157 130.477 139.041  0.00  0.00    +0.000 C 
ENDBRANCH  28  31
ENDBRANCH  20  29
ENDBRANCH   1  20
BRANCH   2  32
ATOM     32  O   UNL     1     111.451 128.714 140.643  0.00  0.00    +0.000 OA
BRANCH  32  41
ATOM     33  O   UNL     1     110.190 128.075 140.862  0.00  0.00    +0.000 OA
ATOM     34  O   UNL     1     110.309 128.665 143.263  0.00  0.00    +0.000 OA
ATOM     35  O   UNL     1     109.010 127.831 142.681  0.00  0.00    +0.000 OA
ATOM     36  O   UNL     1     111.528 129.106 142.243  0.00  0.00    +0.000 OA
ATOM     37  C   UNL     1     110.269 128.468 142.462  0.00  0.00    +0.000 C 
ATOM     38  C   UNL     1     109.620 128.051 142.171  0.00  0.00    +0.000 C 
ATOM     39  C   UNL     1     110.880 128.689 141.953  0.00  0.00    +0.000 C 
ATOM     40  C   UNL     1     109.581 127.855 141.371  0.00  0.00    +0.000 C 
ATOM     41  C   UNL     1     110.840 128.493 141.153  0.00  0.00    +0.000 C 
BRANCH  40  43
ATOM     42  O   UNL     1     108.581 127.663 140.369  0.00  0.00    +0.000 OA
ATOM     43  C   UNL     1     108.931 127.437 141.080  0.00  0.00    +0.000 C 
ENDBRANCH  40  43
ENDBRANCH  32  41
ENDBRANCH   2  32
TORSDOF 7
ENDMDL
