MODEL 1
REMARK VINA RESULT:      -9.6      0.000      0.000
REMARK  Name = 20056941
REMARK  6 active torsions:
REMARK  status: ('A' for Active; 'I' for Inactive)
REMARK    1  A    between atoms: O_2  and  C_18
REMARK    2  A    between atoms: O_2  and  C_20
REMARK    3  A    between atoms: O_10  and  C_32
REMARK    4  A    between atoms: O_11  and  C_33
REMARK    5  A    between atoms: C_17  and  C_19
REMARK    6  A    between atoms: C_21  and  C_24
REMARK                            x       y       z     vdW  Elec       q    Type
REMARK                         _______ _______ _______ _____ _____    ______ ____
ROOT
ATOM      1  O   UNL     1     105.586 124.518 147.954  0.00  0.00    +0.000 OA
ATOM      2  O   UNL     1     106.902 125.549 146.128  0.00  0.00    +0.000 OA
ATOM      3  O   UNL     1     108.107 125.479 146.918  0.00  0.00    +0.000 OA
ATOM      4  O   UNL     1     107.978 124.345 149.606  0.00  0.00    +0.000 OA
ATOM      5  C   UNL     1     105.654 125.074 146.639  0.00  0.00    +0.000 A 
ATOM      6  C   UNL     1     105.216 124.731 147.248  0.00  0.00    +0.000 A 
ATOM      7  C   UNL     1     106.463 125.205 146.737  0.00  0.00    +0.000 A 
ATOM      8  C   UNL     1     106.833 124.993 147.443  0.00  0.00    +0.000 A 
ATOM      9  C   UNL     1     106.395 124.650 148.051  0.00  0.00    +0.000 A 
ATOM     10  C   UNL     1     107.676 125.135 147.532  0.00  0.00    +0.000 A 
ATOM     11  C   UNL     1     106.768 124.424 148.791  0.00  0.00    +0.000 A 
ATOM     12  C   UNL     1     108.067 124.916 148.265  0.00  0.00    +0.000 A 
ATOM     13  C   UNL     1     107.610 124.558 148.899  0.00  0.00    +0.000 A 
ENDROOT
BRANCH   6  15
ATOM     14  O   UNL     1     101.982 124.205 146.855  0.00  0.00    +0.000 OA
ATOM     15  C   UNL     1     104.407 124.600 147.150  0.00  0.00    +0.000 A 
ATOM     16  C   UNL     1     103.861 125.129 147.470  0.00  0.00    +0.000 A 
ATOM     17  C   UNL     1     104.145 123.938 146.732  0.00  0.00    +0.000 A 
ATOM     18  C   UNL     1     103.336 123.808 146.634  0.00  0.00    +0.000 A 
ATOM     19  C   UNL     1     103.053 124.997 147.372  0.00  0.00    +0.000 A 
ATOM     20  C   UNL     1     102.790 124.337 146.954  0.00  0.00    +0.000 A 
BRANCH  18  21
ATOM     21  O   UNL     1     103.073 123.146 146.215  0.00  0.00    +0.000 OA
ATOM     22  C   UNL     1     103.533 122.835 145.605  0.00  0.00    +0.000 C 
ENDBRANCH  18  21
BRANCH  19  23
ATOM     23  O   UNL     1     102.507 125.527 147.691  0.00  0.00    +0.000 OA
ATOM     24  C   UNL     1     102.620 125.827 148.452  0.00  0.00    +0.000 C 
ENDBRANCH  19  23
ENDBRANCH   6  15
BRANCH   5  25
ATOM     25  O   UNL     1     105.284 125.287 145.933  0.00  0.00    +0.000 OA
BRANCH  25  34
ATOM     26  O   UNL     1     105.328 126.692 146.187  0.00  0.00    +0.000 OA
ATOM     27  O   UNL     1     105.526 127.125 143.758  0.00  0.00    +0.000 OA
ATOM     28  O   UNL     1     105.503 128.385 144.822  0.00  0.00    +0.000 OA
ATOM     29  O   UNL     1     105.417 125.575 144.314  0.00  0.00    +0.000 OA
ATOM     30  C   UNL     1     105.460 126.981 144.568  0.00  0.00    +0.000 C 
ATOM     31  C   UNL     1     105.448 127.611 145.100  0.00  0.00    +0.000 C 
ATOM     32  C   UNL     1     105.405 126.205 144.846  0.00  0.00    +0.000 C 
ATOM     33  C   UNL     1     105.382 127.466 145.910  0.00  0.00    +0.000 C 
ATOM     34  C   UNL     1     105.339 126.061 145.656  0.00  0.00    +0.000 C 
BRANCH  33  36
ATOM     35  O   UNL     1     104.796 128.129 147.032  0.00  0.00    +0.000 OA
ATOM     36  C   UNL     1     105.371 128.097 146.441  0.00  0.00    +0.000 C 
ENDBRANCH  33  36
ENDBRANCH  25  34
ENDBRANCH   5  25
TORSDOF 6
ENDMDL
MODEL 2
REMARK VINA RESULT:      -9.2     10.420     12.797
REMARK  Name = 20056941
REMARK  6 active torsions:
REMARK  status: ('A' for Active; 'I' for Inactive)
REMARK    1  A    between atoms: O_2  and  C_18
REMARK    2  A    between atoms: O_2  and  C_20
REMARK    3  A    between atoms: O_10  and  C_32
REMARK    4  A    between atoms: O_11  and  C_33
REMARK    5  A    between atoms: C_17  and  C_19
REMARK    6  A    between atoms: C_21  and  C_24
REMARK                            x       y       z     vdW  Elec       q    Type
REMARK                         _______ _______ _______ _____ _____    ______ ____
ROOT
ATOM      1  O   UNL     1     113.585 126.773 136.832  0.00  0.00    +0.000 OA
ATOM      2  O   UNL     1     111.624 125.516 135.994  0.00  0.00    +0.000 OA
ATOM      3  O   UNL     1     112.253 124.259 136.322  0.00  0.00    +0.000 OA
ATOM      4  O   UNL     1     114.917 124.277 137.522  0.00  0.00    +0.000 OA
ATOM      5  C   UNL     1     112.281 126.759 136.245  0.00  0.00    +0.000 A 
ATOM      6  C   UNL     1     112.935 127.179 136.525  0.00  0.00    +0.000 A 
ATOM      7  C   UNL     1     112.278 125.935 136.273  0.00  0.00    +0.000 A 
ATOM      8  C   UNL     1     112.928 125.530 136.581  0.00  0.00    +0.000 A 
ATOM      9  C   UNL     1     113.580 125.949 136.860  0.00  0.00    +0.000 A 
ATOM     10  C   UNL     1     112.911 124.671 136.604  0.00  0.00    +0.000 A 
ATOM     11  C   UNL     1     114.263 125.539 137.182  0.00  0.00    +0.000 A 
ATOM     12  C   UNL     1     113.585 124.243 136.923  0.00  0.00    +0.000 A 
ATOM     13  C   UNL     1     114.266 124.680 137.214  0.00  0.00    +0.000 A 
ENDROOT
BRANCH   6  15
ATOM     14  O   UNL     1     112.948 130.477 136.409  0.00  0.00    +0.000 OA
ATOM     15  C   UNL     1     112.938 128.003 136.497  0.00  0.00    +0.000 A 
ATOM     16  C   UNL     1     112.789 128.440 137.180  0.00  0.00    +0.000 A 
ATOM     17  C   UNL     1     113.091 128.391 135.784  0.00  0.00    +0.000 A 
ATOM     18  C   UNL     1     113.094 129.215 135.755  0.00  0.00    +0.000 A 
ATOM     19  C   UNL     1     112.792 129.265 137.151  0.00  0.00    +0.000 A 
ATOM     20  C   UNL     1     112.945 129.652 136.439  0.00  0.00    +0.000 A 
BRANCH  18  21
ATOM     21  O   UNL     1     113.247 129.602 135.042  0.00  0.00    +0.000 OA
ATOM     22  C   UNL     1     113.927 129.422 134.612  0.00  0.00    +0.000 C 
ENDBRANCH  18  21
BRANCH  19  23
ATOM     23  O   UNL     1     112.643 129.702 137.834  0.00  0.00    +0.000 OA
ATOM     24  C   UNL     1     112.933 129.442 138.562  0.00  0.00    +0.000 C 
ENDBRANCH  19  23
ENDBRANCH   6  15
BRANCH   5  25
ATOM     25  O   UNL     1     111.632 127.165 135.938  0.00  0.00    +0.000 OA
BRANCH  25  34
ATOM     26  O   UNL     1     110.801 126.924 137.076  0.00  0.00    +0.000 OA
ATOM     27  O   UNL     1     108.798 126.967 135.623  0.00  0.00    +0.000 OA
ATOM     28  O   UNL     1     108.636 126.713 137.245  0.00  0.00    +0.000 OA
ATOM     29  O   UNL     1     110.296 127.193 134.970  0.00  0.00    +0.000 OA
ATOM     30  C   UNL     1     109.466 126.953 136.107  0.00  0.00    +0.000 C 
ATOM     31  C   UNL     1     109.385 126.826 136.918  0.00  0.00    +0.000 C 
ATOM     32  C   UNL     1     110.215 127.066 135.780  0.00  0.00    +0.000 C 
ATOM     33  C   UNL     1     110.053 126.811 137.403  0.00  0.00    +0.000 C 
ATOM     34  C   UNL     1     110.883 127.052 136.265  0.00  0.00    +0.000 C 
BRANCH  33  36
ATOM     35  O   UNL     1     110.187 127.274 138.748  0.00  0.00    +0.000 OA
ATOM     36  C   UNL     1     109.972 126.684 138.213  0.00  0.00    +0.000 C 
ENDBRANCH  33  36
ENDBRANCH  25  34
ENDBRANCH   5  25
TORSDOF 6
ENDMDL
MODEL 3
REMARK VINA RESULT:      -9.1      9.952     12.308
REMARK  Name = 20056941
REMARK  6 active torsions:
REMARK  status: ('A' for Active; 'I' for Inactive)
REMARK    1  A    between atoms: O_2  and  C_18
REMARK    2  A    between atoms: O_2  and  C_20
REMARK    3  A    between atoms: O_10  and  C_32
REMARK    4  A    between atoms: O_11  and  C_33
REMARK    5  A    between atoms: C_17  and  C_19
REMARK    6  A    between atoms: C_21  and  C_24
REMARK                            x       y       z     vdW  Elec       q    Type
REMARK                         _______ _______ _______ _____ _____    ______ ____
ROOT
ATOM      1  O   UNL     1     112.978 127.471 136.014  0.00  0.00    +0.000 OA
ATOM      2  O   UNL     1     112.602 128.555 138.208  0.00  0.00    +0.000 OA
ATOM      3  O   UNL     1     113.329 129.728 137.785  0.00  0.00    +0.000 OA
ATOM      4  O   UNL     1     114.457 129.804 135.092  0.00  0.00    +0.000 OA
ATOM      5  C   UNL     1     112.428 127.439 137.333  0.00  0.00    +0.000 A 
ATOM      6  C   UNL     1     112.554 127.077 136.602  0.00  0.00    +0.000 A 
ATOM      7  C   UNL     1     112.728 128.194 137.476  0.00  0.00    +0.000 A 
ATOM      8  C   UNL     1     113.153 128.588 136.889  0.00  0.00    +0.000 A 
ATOM      9  C   UNL     1     113.278 128.226 136.158  0.00  0.00    +0.000 A 
ATOM     10  C   UNL     1     113.459 129.374 137.051  0.00  0.00    +0.000 A 
ATOM     11  C   UNL     1     113.718 128.625 135.538  0.00  0.00    +0.000 A 
ATOM     12  C   UNL     1     113.902 129.789 136.443  0.00  0.00    +0.000 A 
ATOM     13  C   UNL     1     114.033 129.412 135.681  0.00  0.00    +0.000 A 
ENDROOT
BRANCH   6  15
ATOM     14  O   UNL     1     111.357 124.055 136.032  0.00  0.00    +0.000 OA
ATOM     15  C   UNL     1     112.254 126.322 136.459  0.00  0.00    +0.000 A 
ATOM     16  C   UNL     1     111.564 126.228 136.016  0.00  0.00    +0.000 A 
ATOM     17  C   UNL     1     112.645 125.660 136.760  0.00  0.00    +0.000 A 
ATOM     18  C   UNL     1     112.345 124.905 136.617  0.00  0.00    +0.000 A 
ATOM     19  C   UNL     1     111.265 125.472 135.874  0.00  0.00    +0.000 A 
ATOM     20  C   UNL     1     111.655 124.811 136.174  0.00  0.00    +0.000 A 
BRANCH  18  21
ATOM     21  O   UNL     1     112.736 124.242 136.917  0.00  0.00    +0.000 OA
ATOM     22  C   UNL     1     113.560 124.208 136.903  0.00  0.00    +0.000 C 
ENDBRANCH  18  21
BRANCH  19  23
ATOM     23  O   UNL     1     110.576 125.379 135.431  0.00  0.00    +0.000 OA
ATOM     24  C   UNL     1     110.411 125.895 134.808  0.00  0.00    +0.000 C 
ENDBRANCH  19  23
ENDBRANCH   6  15
BRANCH   5  25
ATOM     25  O   UNL     1     112.003 127.045 137.921  0.00  0.00    +0.000 OA
BRANCH  25  34
ATOM     26  O   UNL     1     110.832 127.851 137.774  0.00  0.00    +0.000 OA
ATOM     27  O   UNL     1     110.305 127.522 140.170  0.00  0.00    +0.000 OA
ATOM     28  O   UNL     1     109.311 128.437 139.224  0.00  0.00    +0.000 OA
ATOM     29  O   UNL     1     111.652 126.826 139.518  0.00  0.00    +0.000 OA
ATOM     30  C   UNL     1     110.481 127.632 139.371  0.00  0.00    +0.000 C 
ATOM     31  C   UNL     1     109.984 128.089 138.898  0.00  0.00    +0.000 C 
ATOM     32  C   UNL     1     111.155 127.283 139.045  0.00  0.00    +0.000 C 
ATOM     33  C   UNL     1     110.160 128.199 138.099  0.00  0.00    +0.000 C 
ATOM     34  C   UNL     1     111.331 127.393 138.246  0.00  0.00    +0.000 C 
BRANCH  33  36
ATOM     35  O   UNL     1     109.204 128.298 137.041  0.00  0.00    +0.000 OA
ATOM     36  C   UNL     1     109.662 128.656 137.627  0.00  0.00    +0.000 C 
ENDBRANCH  33  36
ENDBRANCH  25  34
ENDBRANCH   5  25
TORSDOF 6
ENDMDL
MODEL 4
REMARK VINA RESULT:      -9.1     10.077     12.371
REMARK  Name = 20056941
REMARK  6 active torsions:
REMARK  status: ('A' for Active; 'I' for Inactive)
REMARK    1  A    between atoms: O_2  and  C_18
REMARK    2  A    between atoms: O_2  and  C_20
REMARK    3  A    between atoms: O_10  and  C_32
REMARK    4  A    between atoms: O_11  and  C_33
REMARK    5  A    between atoms: C_17  and  C_19
REMARK    6  A    between atoms: C_21  and  C_24
REMARK                            x       y       z     vdW  Elec       q    Type
REMARK                         _______ _______ _______ _____ _____    ______ ____
ROOT
ATOM      1  O   UNL     1     113.292 127.330 136.440  0.00  0.00    +0.000 OA
ATOM      2  O   UNL     1     112.145 128.428 138.339  0.00  0.00    +0.000 OA
ATOM      3  O   UNL     1     112.604 129.725 137.904  0.00  0.00    +0.000 OA
ATOM      4  O   UNL     1     114.255 129.913 135.502  0.00  0.00    +0.000 OA
ATOM      5  C   UNL     1     112.484 127.243 137.617  0.00  0.00    +0.000 A 
ATOM      6  C   UNL     1     112.867 126.877 136.983  0.00  0.00    +0.000 A 
ATOM      7  C   UNL     1     112.528 128.062 137.706  0.00  0.00    +0.000 A 
ATOM      8  C   UNL     1     112.953 128.515 137.163  0.00  0.00    +0.000 A 
ATOM      9  C   UNL     1     113.335 128.149 136.531  0.00  0.00    +0.000 A 
ATOM     10  C   UNL     1     112.990 129.367 137.268  0.00  0.00    +0.000 A 
ATOM     11  C   UNL     1     113.780 128.609 135.958  0.00  0.00    +0.000 A 
ATOM     12  C   UNL     1     113.431 129.844 136.705  0.00  0.00    +0.000 A 
ATOM     13  C   UNL     1     113.829 129.463 136.046  0.00  0.00    +0.000 A 
ENDROOT
BRANCH   6  15
ATOM     14  O   UNL     1     112.692 123.601 136.625  0.00  0.00    +0.000 OA
ATOM     15  C   UNL     1     112.824 126.058 136.894  0.00  0.00    +0.000 A 
ATOM     16  C   UNL     1     113.467 125.585 137.103  0.00  0.00    +0.000 A 
ATOM     17  C   UNL     1     112.137 125.712 136.594  0.00  0.00    +0.000 A 
ATOM     18  C   UNL     1     112.094 124.893 136.505  0.00  0.00    +0.000 A 
ATOM     19  C   UNL     1     113.422 124.766 137.013  0.00  0.00    +0.000 A 
ATOM     20  C   UNL     1     112.736 124.420 136.715  0.00  0.00    +0.000 A 
BRANCH  18  21
ATOM     21  O   UNL     1     111.406 124.547 136.206  0.00  0.00    +0.000 OA
ATOM     22  C   UNL     1     110.892 124.989 135.736  0.00  0.00    +0.000 C 
ENDBRANCH  18  21
BRANCH  19  23
ATOM     23  O   UNL     1     114.065 124.293 137.223  0.00  0.00    +0.000 OA
ATOM     24  C   UNL     1     114.826 124.614 137.237  0.00  0.00    +0.000 C 
ENDBRANCH  19  23
ENDBRANCH   6  15
BRANCH   5  25
ATOM     25  O   UNL     1     112.059 126.790 138.160  0.00  0.00    +0.000 OA
BRANCH  25  34
ATOM     26  O   UNL     1     113.040 126.931 139.190  0.00  0.00    +0.000 OA
ATOM     27  O   UNL     1     111.277 126.655 140.905  0.00  0.00    +0.000 OA
ATOM     28  O   UNL     1     112.845 126.888 141.362  0.00  0.00    +0.000 OA
ATOM     29  O   UNL     1     110.884 126.606 139.303  0.00  0.00    +0.000 OA
ATOM     30  C   UNL     1     111.865 126.747 140.333  0.00  0.00    +0.000 C 
ATOM     31  C   UNL     1     112.649 126.863 140.562  0.00  0.00    +0.000 C 
ATOM     32  C   UNL     1     111.668 126.723 139.532  0.00  0.00    +0.000 C 
ATOM     33  C   UNL     1     113.236 126.956 139.990  0.00  0.00    +0.000 C 
ATOM     34  C   UNL     1     112.256 126.815 138.960  0.00  0.00    +0.000 C 
BRANCH  33  36
ATOM     35  O   UNL     1     114.589 126.499 140.051  0.00  0.00    +0.000 OA
ATOM     36  C   UNL     1     114.020 127.072 140.219  0.00  0.00    +0.000 C 
ENDBRANCH  33  36
ENDBRANCH  25  34
ENDBRANCH   5  25
TORSDOF 6
ENDMDL
MODEL 5
REMARK VINA RESULT:      -8.9     10.487     12.691
REMARK  Name = 20056941
REMARK  6 active torsions:
REMARK  status: ('A' for Active; 'I' for Inactive)
REMARK    1  A    between atoms: O_2  and  C_18
REMARK    2  A    between atoms: O_2  and  C_20
REMARK    3  A    between atoms: O_10  and  C_32
REMARK    4  A    between atoms: O_11  and  C_33
REMARK    5  A    between atoms: C_17  and  C_19
REMARK    6  A    between atoms: C_21  and  C_24
REMARK                            x       y       z     vdW  Elec       q    Type
REMARK                         _______ _______ _______ _____ _____    ______ ____
ROOT
ATOM      1  O   UNL     1     113.016 128.433 138.238  0.00  0.00    +0.000 OA
ATOM      2  O   UNL     1     112.209 126.139 138.703  0.00  0.00    +0.000 OA
ATOM      3  O   UNL     1     112.633 126.237 140.078  0.00  0.00    +0.000 OA
ATOM      4  O   UNL     1     113.899 128.703 141.000  0.00  0.00    +0.000 OA
ATOM      5  C   UNL     1     112.397 127.224 137.792  0.00  0.00    +0.000 A 
ATOM      6  C   UNL     1     112.667 127.989 137.637  0.00  0.00    +0.000 A 
ATOM      7  C   UNL     1     112.478 126.904 138.548  0.00  0.00    +0.000 A 
ATOM      8  C   UNL     1     112.828 127.348 139.149  0.00  0.00    +0.000 A 
ATOM      9  C   UNL     1     113.097 128.112 138.994  0.00  0.00    +0.000 A 
ATOM     10  C   UNL     1     112.906 127.003 139.932  0.00  0.00    +0.000 A 
ATOM     11  C   UNL     1     113.462 128.584 139.611  0.00  0.00    +0.000 A 
ATOM     12  C   UNL     1     113.269 127.460 140.562  0.00  0.00    +0.000 A 
ATOM     13  C   UNL     1     113.549 128.257 140.401  0.00  0.00    +0.000 A 
ENDROOT
BRANCH   6  15
ATOM     14  O   UNL     1     112.341 129.269 134.613  0.00  0.00    +0.000 OA
ATOM     15  C   UNL     1     112.586 128.308 136.881  0.00  0.00    +0.000 A 
ATOM     16  C   UNL     1     113.238 128.348 136.378  0.00  0.00    +0.000 A 
ATOM     17  C   UNL     1     111.852 128.589 136.628  0.00  0.00    +0.000 A 
ATOM     18  C   UNL     1     111.771 128.908 135.872  0.00  0.00    +0.000 A 
ATOM     19  C   UNL     1     113.156 128.669 135.621  0.00  0.00    +0.000 A 
ATOM     20  C   UNL     1     112.423 128.948 135.369  0.00  0.00    +0.000 A 
BRANCH  18  21
ATOM     21  O   UNL     1     111.036 129.189 135.620  0.00  0.00    +0.000 OA
ATOM     22  C   UNL     1     110.619 129.728 136.083  0.00  0.00    +0.000 C 
ENDBRANCH  18  21
BRANCH  19  23
ATOM     23  O   UNL     1     113.809 128.709 135.118  0.00  0.00    +0.000 OA
ATOM     24  C   UNL     1     114.552 128.903 135.420  0.00  0.00    +0.000 C 
ENDBRANCH  19  23
ENDBRANCH   6  15
BRANCH   5  25
ATOM     25  O   UNL     1     112.048 126.780 137.191  0.00  0.00    +0.000 OA
BRANCH  25  34
ATOM     26  O   UNL     1     113.174 125.917 137.018  0.00  0.00    +0.000 OA
ATOM     27  O   UNL     1     111.663 124.085 136.319  0.00  0.00    +0.000 OA
ATOM     28  O   UNL     1     113.291 123.834 136.379  0.00  0.00    +0.000 OA
ATOM     29  O   UNL     1     111.040 125.559 136.725  0.00  0.00    +0.000 OA
ATOM     30  C   UNL     1     112.166 124.696 136.552  0.00  0.00    +0.000 C 
ATOM     31  C   UNL     1     112.981 124.570 136.582  0.00  0.00    +0.000 C 
ATOM     32  C   UNL     1     111.855 125.433 136.755  0.00  0.00    +0.000 C 
ATOM     33  C   UNL     1     113.485 125.181 136.815  0.00  0.00    +0.000 C 
ATOM     34  C   UNL     1     112.359 126.044 136.988  0.00  0.00    +0.000 C 
BRANCH  33  36
ATOM     35  O   UNL     1     114.801 125.477 136.345  0.00  0.00    +0.000 OA
ATOM     36  C   UNL     1     114.299 125.055 136.845  0.00  0.00    +0.000 C 
ENDBRANCH  33  36
ENDBRANCH  25  34
ENDBRANCH   5  25
TORSDOF 6
ENDMDL
MODEL 6
REMARK VINA RESULT:      -8.9      9.676     11.941
REMARK  Name = 20056941
REMARK  6 active torsions:
REMARK  status: ('A' for Active; 'I' for Inactive)
REMARK    1  A    between atoms: O_2  and  C_18
REMARK    2  A    between atoms: O_2  and  C_20
REMARK    3  A    between atoms: O_10  and  C_32
REMARK    4  A    between atoms: O_11  and  C_33
REMARK    5  A    between atoms: C_17  and  C_19
REMARK    6  A    between atoms: C_21  and  C_24
REMARK                            x       y       z     vdW  Elec       q    Type
REMARK                         _______ _______ _______ _____ _____    ______ ____
ROOT
ATOM      1  O   UNL     1     111.822 128.225 138.201  0.00  0.00    +0.000 OA
ATOM      2  O   UNL     1     113.666 127.290 136.839  0.00  0.00    +0.000 OA
ATOM      3  O   UNL     1     113.477 128.307 135.833  0.00  0.00    +0.000 OA
ATOM      4  O   UNL     1     111.382 130.307 136.212  0.00  0.00    +0.000 OA
ATOM      5  C   UNL     1     112.849 127.249 138.010  0.00  0.00    +0.000 A 
ATOM      6  C   UNL     1     112.234 127.561 138.464  0.00  0.00    +0.000 A 
ATOM      7  C   UNL     1     113.051 127.602 137.293  0.00  0.00    +0.000 A 
ATOM      8  C   UNL     1     112.639 128.267 137.029  0.00  0.00    +0.000 A 
ATOM      9  C   UNL     1     112.026 128.578 137.483  0.00  0.00    +0.000 A 
ATOM     10  C   UNL     1     112.861 128.625 136.280  0.00  0.00    +0.000 A 
ATOM     11  C   UNL     1     111.589 129.270 137.220  0.00  0.00    +0.000 A 
ATOM     12  C   UNL     1     112.435 129.317 136.001  0.00  0.00    +0.000 A 
ATOM     13  C   UNL     1     111.795 129.642 136.473  0.00  0.00    +0.000 A 
ENDROOT
BRANCH   6  15
ATOM     14  O   UNL     1     111.422 126.145 141.333  0.00  0.00    +0.000 OA
ATOM     15  C   UNL     1     112.031 127.207 139.182  0.00  0.00    +0.000 A 
ATOM     16  C   UNL     1     112.491 127.342 139.853  0.00  0.00    +0.000 A 
ATOM     17  C   UNL     1     111.367 126.718 139.227  0.00  0.00    +0.000 A 
ATOM     18  C   UNL     1     111.165 126.365 139.945  0.00  0.00    +0.000 A 
ATOM     19  C   UNL     1     112.288 126.988 140.570  0.00  0.00    +0.000 A 
ATOM     20  C   UNL     1     111.625 126.500 140.616  0.00  0.00    +0.000 A 
BRANCH  18  21
ATOM     21  O   UNL     1     110.501 125.876 139.990  0.00  0.00    +0.000 OA
ATOM     22  C   UNL     1     109.817 126.068 139.571  0.00  0.00    +0.000 C 
ENDBRANCH  18  21
BRANCH  19  23
ATOM     23  O   UNL     1     112.748 127.122 141.241  0.00  0.00    +0.000 OA
ATOM     24  C   UNL     1     113.011 127.885 141.415  0.00  0.00    +0.000 C 
ENDBRANCH  19  23
ENDBRANCH   6  15
BRANCH   5  25
ATOM     25  O   UNL     1     113.260 126.584 138.274  0.00  0.00    +0.000 OA
BRANCH  25  34
ATOM     26  O   UNL     1     112.646 125.695 137.338  0.00  0.00    +0.000 OA
ATOM     27  O   UNL     1     114.688 124.296 137.328  0.00  0.00    +0.000 OA
ATOM     28  O   UNL     1     113.394 123.874 136.396  0.00  0.00    +0.000 OA
ATOM     29  O   UNL     1     114.621 125.651 138.267  0.00  0.00    +0.000 OA
ATOM     30  C   UNL     1     114.008 124.763 137.332  0.00  0.00    +0.000 C 
ATOM     31  C   UNL     1     113.360 124.552 136.866  0.00  0.00    +0.000 C 
ATOM     32  C   UNL     1     113.974 125.441 137.801  0.00  0.00    +0.000 C 
ATOM     33  C   UNL     1     112.680 125.018 136.869  0.00  0.00    +0.000 C 
ATOM     34  C   UNL     1     113.293 125.907 137.805  0.00  0.00    +0.000 C 
BRANCH  33  36
ATOM     35  O   UNL     1     111.318 124.600 136.758  0.00  0.00    +0.000 OA
ATOM     36  C   UNL     1     112.033 124.807 136.403  0.00  0.00    +0.000 C 
ENDBRANCH  33  36
ENDBRANCH  25  34
ENDBRANCH   5  25
TORSDOF 6
ENDMDL
