MODEL 1
REMARK VINA RESULT:     -10.1      0.000      0.000
REMARK  Name = 74819335
REMARK  10 active torsions:
REMARK  status: ('A' for Active; 'I' for Inactive)
REMARK    1  A    between atoms: O_1  and  C_19
REMARK    2  A    between atoms: O_1  and  C_23
REMARK    3  A    between atoms: O_7  and  C_25
REMARK    4  A    between atoms: O_7  and  C_35
REMARK    5  A    between atoms: O_12  and  C_34
REMARK    6  A    between atoms: O_12  and  C_41
REMARK    7  A    between atoms: C_20  and  C_28
REMARK    8  A    between atoms: C_26  and  C_29
REMARK    9  A    between atoms: C_33  and  C_36
REMARK   10  A    between atoms: C_37  and  C_40
REMARK                            x       y       z     vdW  Elec       q    Type
REMARK                         _______ _______ _______ _____ _____    ______ ____
ROOT
ATOM      1  C   UNL     1     108.040 125.748 140.696  0.00  0.00    +0.000 A 
ATOM      2  C   UNL     1     108.634 125.220 140.915  0.00  0.00    +0.000 A 
ATOM      3  C   UNL     1     108.227 126.533 140.525  0.00  0.00    +0.000 A 
ATOM      4  C   UNL     1     109.605 126.261 140.793  0.00  0.00    +0.000 A 
ATOM      5  C   UNL     1     109.417 125.477 140.963  0.00  0.00    +0.000 A 
ATOM      6  C   UNL     1     109.010 126.790 140.574  0.00  0.00    +0.000 A 
ENDROOT
BRANCH   4   9
ATOM      7  O   UNL     1     110.929 126.307 140.254  0.00  0.00    +0.000 OA
ATOM      8  O   UNL     1     111.655 127.710 142.160  0.00  0.00    +0.000 OA
ATOM      9  C   UNL     1     110.388 126.518 140.841  0.00  0.00    +0.000 C 
ATOM     10  C   UNL     1     113.081 126.601 139.730  0.00  0.00    +0.000 A 
ATOM     11  C   UNL     1     110.631 126.985 141.476  0.00  0.00    +0.000 C 
ATOM     12  C   UNL     1     111.711 126.564 140.303  0.00  0.00    +0.000 A 
ATOM     13  C   UNL     1     111.953 127.031 140.938  0.00  0.00    +0.000 A 
ATOM     14  C   UNL     1     112.264 126.337 139.685  0.00  0.00    +0.000 A 
ATOM     15  C   UNL     1     111.413 127.242 141.524  0.00  0.00    +0.000 C 
ATOM     16  C   UNL     1     113.333 127.088 140.392  0.00  0.00    +0.000 A 
ATOM     17  C   UNL     1     112.765 127.305 141.000  0.00  0.00    +0.000 A 
BRANCH  10  18
ATOM     18  O   UNL     1     113.619 126.389 139.142  0.00  0.00    +0.000 OA
BRANCH  18  27
ATOM     19  O   UNL     1     113.324 127.456 138.240  0.00  0.00    +0.000 OA
ATOM     20  O   UNL     1     113.605 125.915 136.325  0.00  0.00    +0.000 OA
ATOM     21  O   UNL     1     113.217 127.497 136.060  0.00  0.00    +0.000 OA
ATOM     22  O   UNL     1     113.806 125.362 137.866  0.00  0.00    +0.000 OA
ATOM     23  C   UNL     1     113.511 126.429 136.963  0.00  0.00    +0.000 C 
ATOM     24  C   UNL     1     113.317 127.220 136.830  0.00  0.00    +0.000 C 
ATOM     25  C   UNL     1     113.612 126.152 137.734  0.00  0.00    +0.000 C 
ATOM     26  C   UNL     1     113.224 127.734 137.470  0.00  0.00    +0.000 C 
ATOM     27  C   UNL     1     113.518 126.666 138.371  0.00  0.00    +0.000 C 
BRANCH  26  29
ATOM     28  O   UNL     1     113.460 129.123 137.708  0.00  0.00    +0.000 OA
ATOM     29  C   UNL     1     113.029 128.525 137.337  0.00  0.00    +0.000 C 
ENDBRANCH  26  29
ENDBRANCH  18  27
ENDBRANCH  10  18
ENDBRANCH   4   9
BRANCH   1  30
ATOM     30  O   UNL     1     107.258 125.491 140.647  0.00  0.00    +0.000 OA
BRANCH  30  37
ATOM     31  O   UNL     1     106.892 125.983 141.938  0.00  0.00    +0.000 OA
ATOM     32  O   UNL     1     105.242 124.152 142.168  0.00  0.00    +0.000 OA
ATOM     33  O   UNL     1     105.426 125.253 143.382  0.00  0.00    +0.000 OA
ATOM     34  C   UNL     1     106.250 124.822 141.407  0.00  0.00    +0.000 C 
ATOM     35  C   UNL     1     105.792 124.762 142.091  0.00  0.00    +0.000 C 
ATOM     36  C   UNL     1     105.884 125.313 142.698  0.00  0.00    +0.000 C 
ATOM     37  C   UNL     1     106.799 125.431 141.331  0.00  0.00    +0.000 C 
ATOM     38  C   UNL     1     106.434 125.923 142.622  0.00  0.00    +0.000 C 
BRANCH  38  40
ATOM     39  O   UNL     1     107.219 126.479 143.678  0.00  0.00    +0.000 OA
ATOM     40  C   UNL     1     106.526 126.474 143.229  0.00  0.00    +0.000 C 
ENDBRANCH  38  40
BRANCH  34  41
ATOM     41  O   UNL     1     106.158 124.271 140.800  0.00  0.00    +0.000 OA
BRANCH  41  47
ATOM     42  O   UNL     1     105.123 125.065 140.122  0.00  0.00    +0.000 OA
ATOM     43  O   UNL     1     104.159 124.284 138.633  0.00  0.00    +0.000 OA
ATOM     44  O   UNL     1     105.645 123.071 139.568  0.00  0.00    +0.000 OA
ATOM     45  C   UNL     1     104.742 124.173 139.205  0.00  0.00    +0.000 C 
ATOM     46  C   UNL     1     105.338 123.831 139.662  0.00  0.00    +0.000 C 
ATOM     47  C   UNL     1     105.573 124.383 140.228  0.00  0.00    +0.000 C 
ATOM     48  C   UNL     1     104.609 124.936 139.489  0.00  0.00    +0.000 C 
BRANCH  45  50
ATOM     49  O   UNL     1     104.180 123.449 138.109  0.00  0.00    +0.000 OA
ATOM     50  C   UNL     1     104.688 123.482 138.757  0.00  0.00    +0.000 C 
ENDBRANCH  45  50
ENDBRANCH  41  47
ENDBRANCH  34  41
ENDBRANCH  30  37
ENDBRANCH   1  30
TORSDOF 10
ENDMDL
MODEL 2
REMARK VINA RESULT:     -10.1      5.815      8.606
REMARK  Name = 74819335
REMARK  10 active torsions:
REMARK  status: ('A' for Active; 'I' for Inactive)
REMARK    1  A    between atoms: O_1  and  C_19
REMARK    2  A    between atoms: O_1  and  C_23
REMARK    3  A    between atoms: O_7  and  C_25
REMARK    4  A    between atoms: O_7  and  C_35
REMARK    5  A    between atoms: O_12  and  C_34
REMARK    6  A    between atoms: O_12  and  C_41
REMARK    7  A    between atoms: C_20  and  C_28
REMARK    8  A    between atoms: C_26  and  C_29
REMARK    9  A    between atoms: C_33  and  C_36
REMARK   10  A    between atoms: C_37  and  C_40
REMARK                            x       y       z     vdW  Elec       q    Type
REMARK                         _______ _______ _______ _____ _____    ______ ____
ROOT
ATOM      1  C   UNL     1     104.561 128.307 141.879  0.00  0.00    +0.000 A 
ATOM      2  C   UNL     1     104.405 128.718 142.576  0.00  0.00    +0.000 A 
ATOM      3  C   UNL     1     104.222 128.555 141.168  0.00  0.00    +0.000 A 
ATOM      4  C   UNL     1     103.569 129.626 141.855  0.00  0.00    +0.000 A 
ATOM      5  C   UNL     1     103.909 129.377 142.564  0.00  0.00    +0.000 A 
ATOM      6  C   UNL     1     103.727 129.214 141.156  0.00  0.00    +0.000 A 
ENDROOT
BRANCH   4   9
ATOM      7  O   UNL     1     103.365 131.025 142.065  0.00  0.00    +0.000 OA
ATOM      8  O   UNL     1     101.004 130.784 141.361  0.00  0.00    +0.000 OA
ATOM      9  C   UNL     1     103.074 130.285 141.842  0.00  0.00    +0.000 C 
ATOM     10  C   UNL     1     102.672 133.138 142.276  0.00  0.00    +0.000 A 
ATOM     11  C   UNL     1     102.287 130.205 141.608  0.00  0.00    +0.000 C 
ATOM     12  C   UNL     1     102.869 131.684 142.053  0.00  0.00    +0.000 A 
ATOM     13  C   UNL     1     102.082 131.603 141.818  0.00  0.00    +0.000 A 
ATOM     14  C   UNL     1     103.184 132.449 142.287  0.00  0.00    +0.000 A 
ATOM     15  C   UNL     1     101.791 130.865 141.596  0.00  0.00    +0.000 C 
ATOM     16  C   UNL     1     101.852 133.055 142.032  0.00  0.00    +0.000 A 
ATOM     17  C   UNL     1     101.556 132.282 141.801  0.00  0.00    +0.000 A 
BRANCH  10  18
ATOM     18  O   UNL     1     102.966 133.877 142.499  0.00  0.00    +0.000 OA
BRANCH  18  27
ATOM     19  O   UNL     1     103.201 134.426 141.202  0.00  0.00    +0.000 OA
ATOM     20  O   UNL     1     105.364 135.342 141.982  0.00  0.00    +0.000 OA
ATOM     21  O   UNL     1     104.879 135.586 140.424  0.00  0.00    +0.000 OA
ATOM     22  O   UNL     1     104.407 134.487 143.019  0.00  0.00    +0.000 OA
ATOM     23  C   UNL     1     104.643 135.037 141.722  0.00  0.00    +0.000 C 
ATOM     24  C   UNL     1     104.401 135.159 140.942  0.00  0.00    +0.000 C 
ATOM     25  C   UNL     1     104.164 134.609 142.240  0.00  0.00    +0.000 C 
ATOM     26  C   UNL     1     103.679 134.853 140.682  0.00  0.00    +0.000 C 
ATOM     27  C   UNL     1     103.444 134.304 141.980  0.00  0.00    +0.000 C 
BRANCH  26  29
ATOM     28  O   UNL     1     102.700 135.313 139.748  0.00  0.00    +0.000 OA
ATOM     29  C   UNL     1     103.437 134.975 139.903  0.00  0.00    +0.000 C 
ENDBRANCH  26  29
ENDBRANCH  18  27
ENDBRANCH  10  18
ENDBRANCH   4   9
BRANCH   1  30
ATOM     30  O   UNL     1     105.057 127.648 141.891  0.00  0.00    +0.000 OA
BRANCH  30  37
ATOM     31  O   UNL     1     106.223 128.468 141.790  0.00  0.00    +0.000 OA
ATOM     32  O   UNL     1     107.612 126.596 142.622  0.00  0.00    +0.000 OA
ATOM     33  O   UNL     1     108.314 128.040 142.244  0.00  0.00    +0.000 OA
ATOM     34  C   UNL     1     106.334 127.122 142.256  0.00  0.00    +0.000 C 
ATOM     35  C   UNL     1     107.149 127.220 142.345  0.00  0.00    +0.000 C 
ATOM     36  C   UNL     1     107.500 127.942 142.155  0.00  0.00    +0.000 C 
ATOM     37  C   UNL     1     105.872 127.745 141.979  0.00  0.00    +0.000 C 
ATOM     38  C   UNL     1     107.037 128.566 141.878  0.00  0.00    +0.000 C 
BRANCH  38  40
ATOM     39  O   UNL     1     107.367 129.565 140.911  0.00  0.00    +0.000 OA
ATOM     40  C   UNL     1     107.388 129.288 141.689  0.00  0.00    +0.000 C 
ENDBRANCH  38  40
BRANCH  34  41
ATOM     41  O   UNL     1     105.983 126.400 142.446  0.00  0.00    +0.000 OA
BRANCH  41  47
ATOM     42  O   UNL     1     106.215 125.846 141.104  0.00  0.00    +0.000 OA
ATOM     43  O   UNL     1     105.753 123.996 140.754  0.00  0.00    +0.000 OA
ATOM     44  O   UNL     1     105.387 124.730 142.724  0.00  0.00    +0.000 OA
ATOM     45  C   UNL     1     105.772 124.603 141.311  0.00  0.00    +0.000 C 
ATOM     46  C   UNL     1     105.690 125.025 142.016  0.00  0.00    +0.000 C 
ATOM     47  C   UNL     1     105.964 125.792 141.887  0.00  0.00    +0.000 C 
ATOM     48  C   UNL     1     106.097 125.111 140.747  0.00  0.00    +0.000 C 
BRANCH  45  50
ATOM     49  O   UNL     1     105.283 123.264 141.226  0.00  0.00    +0.000 OA
ATOM     50  C   UNL     1     105.457 123.933 141.675  0.00  0.00    +0.000 C 
ENDBRANCH  45  50
ENDBRANCH  41  47
ENDBRANCH  34  41
ENDBRANCH  30  37
ENDBRANCH   1  30
TORSDOF 10
ENDMDL
MODEL 3
REMARK VINA RESULT:      -9.9      5.731      8.728
REMARK  Name = 74819335
REMARK  10 active torsions:
REMARK  status: ('A' for Active; 'I' for Inactive)
REMARK    1  A    between atoms: O_1  and  C_19
REMARK    2  A    between atoms: O_1  and  C_23
REMARK    3  A    between atoms: O_7  and  C_25
REMARK    4  A    between atoms: O_7  and  C_35
REMARK    5  A    between atoms: O_12  and  C_34
REMARK    6  A    between atoms: O_12  and  C_41
REMARK    7  A    between atoms: C_20  and  C_28
REMARK    8  A    between atoms: C_26  and  C_29
REMARK    9  A    between atoms: C_33  and  C_36
REMARK   10  A    between atoms: C_37  and  C_40
REMARK                            x       y       z     vdW  Elec       q    Type
REMARK                         _______ _______ _______ _____ _____    ______ ____
ROOT
ATOM      1  C   UNL     1     104.876 128.450 143.020  0.00  0.00    +0.000 A 
ATOM      2  C   UNL     1     104.614 129.024 143.551  0.00  0.00    +0.000 A 
ATOM      3  C   UNL     1     104.641 128.480 142.230  0.00  0.00    +0.000 A 
ATOM      4  C   UNL     1     103.880 129.660 142.502  0.00  0.00    +0.000 A 
ATOM      5  C   UNL     1     104.116 129.629 143.292  0.00  0.00    +0.000 A 
ATOM      6  C   UNL     1     104.143 129.085 141.971  0.00  0.00    +0.000 A 
ENDROOT
BRANCH   4   9
ATOM      7  O   UNL     1     103.575 131.052 142.396  0.00  0.00    +0.000 OA
ATOM      8  O   UNL     1     101.503 130.503 141.158  0.00  0.00    +0.000 OA
ATOM      9  C   UNL     1     103.382 130.264 142.243  0.00  0.00    +0.000 C 
ATOM     10  C   UNL     1     102.775 133.107 142.035  0.00  0.00    +0.000 A 
ATOM     11  C   UNL     1     102.692 130.082 141.830  0.00  0.00    +0.000 C 
ATOM     12  C   UNL     1     103.077 131.657 142.136  0.00  0.00    +0.000 A 
ATOM     13  C   UNL     1     102.387 131.473 141.724  0.00  0.00    +0.000 A 
ATOM     14  C   UNL     1     103.290 132.473 142.302  0.00  0.00    +0.000 A 
ATOM     15  C   UNL     1     102.194 130.687 141.571  0.00  0.00    +0.000 C 
ATOM     16  C   UNL     1     102.055 132.917 141.605  0.00  0.00    +0.000 A 
ATOM     17  C   UNL     1     101.860 132.094 141.449  0.00  0.00    +0.000 A 
BRANCH  10  18
ATOM     18  O   UNL     1     102.970 133.893 142.189  0.00  0.00    +0.000 OA
BRANCH  18  27
ATOM     19  O   UNL     1     103.368 134.299 140.879  0.00  0.00    +0.000 OA
ATOM     20  O   UNL     1     105.320 135.480 141.837  0.00  0.00    +0.000 OA
ATOM     21  O   UNL     1     105.068 135.492 140.206  0.00  0.00    +0.000 OA
ATOM     22  O   UNL     1     104.271 134.681 142.828  0.00  0.00    +0.000 OA
ATOM     23  C   UNL     1     104.670 135.086 141.517  0.00  0.00    +0.000 C 
ATOM     24  C   UNL     1     104.544 135.092 140.702  0.00  0.00    +0.000 C 
ATOM     25  C   UNL     1     104.145 134.687 142.012  0.00  0.00    +0.000 C 
ATOM     26  C   UNL     1     103.892 134.698 140.382  0.00  0.00    +0.000 C 
ATOM     27  C   UNL     1     103.495 134.293 141.693  0.00  0.00    +0.000 C 
BRANCH  26  29
ATOM     28  O   UNL     1     103.075 135.032 139.259  0.00  0.00    +0.000 OA
ATOM     29  C   UNL     1     103.766 134.704 139.567  0.00  0.00    +0.000 C 
ENDBRANCH  26  29
ENDBRANCH  18  27
ENDBRANCH  10  18
ENDBRANCH   4   9
BRANCH   1  30
ATOM     30  O   UNL     1     105.374 127.846 143.280  0.00  0.00    +0.000 OA
BRANCH  30  37
ATOM     31  O   UNL     1     106.570 128.595 143.058  0.00  0.00    +0.000 OA
ATOM     32  O   UNL     1     107.812 126.492 142.657  0.00  0.00    +0.000 OA
ATOM     33  O   UNL     1     108.594 127.941 142.570  0.00  0.00    +0.000 OA
ATOM     34  C   UNL     1     106.592 127.169 142.969  0.00  0.00    +0.000 C 
ATOM     35  C   UNL     1     107.398 127.193 142.791  0.00  0.00    +0.000 C 
ATOM     36  C   UNL     1     107.789 127.918 142.747  0.00  0.00    +0.000 C 
ATOM     37  C   UNL     1     106.179 127.869 143.102  0.00  0.00    +0.000 C 
ATOM     38  C   UNL     1     107.376 128.618 142.881  0.00  0.00    +0.000 C 
BRANCH  38  40
ATOM     39  O   UNL     1     107.796 129.836 143.499  0.00  0.00    +0.000 OA
ATOM     40  C   UNL     1     107.766 129.343 142.837  0.00  0.00    +0.000 C 
ENDBRANCH  38  40
BRANCH  34  41
ATOM     41  O   UNL     1     106.202 126.444 143.012  0.00  0.00    +0.000 OA
BRANCH  41  47
ATOM     42  O   UNL     1     106.613 126.219 144.406  0.00  0.00    +0.000 OA
ATOM     43  O   UNL     1     106.021 124.615 145.318  0.00  0.00    +0.000 OA
ATOM     44  O   UNL     1     105.383 124.872 143.298  0.00  0.00    +0.000 OA
ATOM     45  C   UNL     1     106.004 125.050 144.618  0.00  0.00    +0.000 C 
ATOM     46  C   UNL     1     105.842 125.286 143.844  0.00  0.00    +0.000 C 
ATOM     47  C   UNL     1     106.218 126.008 143.714  0.00  0.00    +0.000 C 
ATOM     48  C   UNL     1     106.482 125.627 144.965  0.00  0.00    +0.000 C 
BRANCH  45  50
ATOM     49  O   UNL     1     105.409 123.860 145.138  0.00  0.00    +0.000 OA
ATOM     50  C   UNL     1     105.556 124.367 144.504  0.00  0.00    +0.000 C 
ENDBRANCH  45  50
ENDBRANCH  41  47
ENDBRANCH  34  41
ENDBRANCH  30  37
ENDBRANCH   1  30
TORSDOF 10
ENDMDL
MODEL 4
REMARK VINA RESULT:      -9.9      4.281      6.909
REMARK  Name = 74819335
REMARK  10 active torsions:
REMARK  status: ('A' for Active; 'I' for Inactive)
REMARK    1  A    between atoms: O_1  and  C_19
REMARK    2  A    between atoms: O_1  and  C_23
REMARK    3  A    between atoms: O_7  and  C_25
REMARK    4  A    between atoms: O_7  and  C_35
REMARK    5  A    between atoms: O_12  and  C_34
REMARK    6  A    between atoms: O_12  and  C_41
REMARK    7  A    between atoms: C_20  and  C_28
REMARK    8  A    between atoms: C_26  and  C_29
REMARK    9  A    between atoms: C_33  and  C_36
REMARK   10  A    between atoms: C_37  and  C_40
REMARK                            x       y       z     vdW  Elec       q    Type
REMARK                         _______ _______ _______ _____ _____    ______ ____
ROOT
ATOM      1  C   UNL     1     112.293 130.191 140.953  0.00  0.00    +0.000 A 
ATOM      2  C   UNL     1     111.887 130.494 140.302  0.00  0.00    +0.000 A 
ATOM      3  C   UNL     1     112.890 129.633 140.845  0.00  0.00    +0.000 A 
ATOM      4  C   UNL     1     112.677 129.681 139.432  0.00  0.00    +0.000 A 
ATOM      5  C   UNL     1     112.079 130.239 139.542  0.00  0.00    +0.000 A 
ATOM      6  C   UNL     1     113.082 129.377 140.084  0.00  0.00    +0.000 A 
ENDROOT
BRANCH   4   9
ATOM      7  O   UNL     1     112.544 128.726 138.376  0.00  0.00    +0.000 OA
ATOM      8  O   UNL     1     114.094 130.057 136.979  0.00  0.00    +0.000 OA
ATOM      9  C   UNL     1     112.869 129.425 138.671  0.00  0.00    +0.000 C 
ATOM     10  C   UNL     1     112.587 127.470 136.529  0.00  0.00    +0.000 A 
ATOM     11  C   UNL     1     113.385 129.868 138.205  0.00  0.00    +0.000 C 
ATOM     12  C   UNL     1     112.736 128.470 137.616  0.00  0.00    +0.000 A 
ATOM     13  C   UNL     1     113.253 128.914 137.150  0.00  0.00    +0.000 A 
ATOM     14  C   UNL     1     112.391 127.740 137.320  0.00  0.00    +0.000 A 
ATOM     15  C   UNL     1     113.577 129.613 137.444  0.00  0.00    +0.000 C 
ATOM     16  C   UNL     1     113.125 127.931 136.043  0.00  0.00    +0.000 A 
ATOM     17  C   UNL     1     113.460 128.659 136.357  0.00  0.00    +0.000 A 
BRANCH  10  18
ATOM     18  O   UNL     1     112.262 126.770 136.237  0.00  0.00    +0.000 OA
BRANCH  18  27
ATOM     19  O   UNL     1     113.379 125.923 136.506  0.00  0.00    +0.000 OA
ATOM     20  O   UNL     1     111.839 124.096 137.150  0.00  0.00    +0.000 OA
ATOM     21  O   UNL     1     113.471 123.856 137.204  0.00  0.00    +0.000 OA
ATOM     22  O   UNL     1     111.235 125.553 136.666  0.00  0.00    +0.000 OA
ATOM     23  C   UNL     1     112.353 124.705 136.935  0.00  0.00    +0.000 C 
ATOM     24  C   UNL     1     113.169 124.585 136.962  0.00  0.00    +0.000 C 
ATOM     25  C   UNL     1     112.051 125.433 136.693  0.00  0.00    +0.000 C 
ATOM     26  C   UNL     1     113.682 125.195 136.747  0.00  0.00    +0.000 C 
ATOM     27  C   UNL     1     112.564 126.042 136.479  0.00  0.00    +0.000 C 
BRANCH  26  29
ATOM     28  O   UNL     1     114.962 125.239 136.112  0.00  0.00    +0.000 OA
ATOM     29  C   UNL     1     114.498 125.075 136.774  0.00  0.00    +0.000 C 
ENDBRANCH  26  29
ENDBRANCH  18  27
ENDBRANCH  10  18
ENDBRANCH   4   9
BRANCH   1  30
ATOM     30  O   UNL     1     112.101 130.447 141.714  0.00  0.00    +0.000 OA
BRANCH  30  37
ATOM     31  O   UNL     1     111.070 129.485 141.951  0.00  0.00    +0.000 OA
ATOM     32  O   UNL     1     109.785 131.176 143.221  0.00  0.00    +0.000 OA
ATOM     33  O   UNL     1     109.184 129.652 143.035  0.00  0.00    +0.000 OA
ATOM     34  C   UNL     1     110.943 130.812 142.467  0.00  0.00    +0.000 C 
ATOM     35  C   UNL     1     110.213 130.613 142.798  0.00  0.00    +0.000 C 
ATOM     36  C   UNL     1     109.913 129.850 142.704  0.00  0.00    +0.000 C 
ATOM     37  C   UNL     1     111.371 130.249 142.044  0.00  0.00    +0.000 C 
ATOM     38  C   UNL     1     110.341 129.287 142.281  0.00  0.00    +0.000 C 
BRANCH  38  40
ATOM     39  O   UNL     1     110.473 127.875 142.460  0.00  0.00    +0.000 OA
ATOM     40  C   UNL     1     110.041 128.525 142.188  0.00  0.00    +0.000 C 
ENDBRANCH  38  40
BRANCH  34  41
ATOM     41  O   UNL     1     111.243 131.574 142.560  0.00  0.00    +0.000 OA
BRANCH  41  47
ATOM     42  O   UNL     1     111.822 131.268 143.877  0.00  0.00    +0.000 OA
ATOM     43  O   UNL     1     112.729 132.671 144.859  0.00  0.00    +0.000 OA
ATOM     44  O   UNL     1     111.915 133.191 142.956  0.00  0.00    +0.000 OA
ATOM     45  C   UNL     1     112.322 132.471 144.171  0.00  0.00    +0.000 C 
ATOM     46  C   UNL     1     111.960 132.518 143.430  0.00  0.00    +0.000 C 
ATOM     47  C   UNL     1     111.652 131.775 143.249  0.00  0.00    +0.000 C 
ATOM     48  C   UNL     1     112.236 131.697 144.447  0.00  0.00    +0.000 C 
BRANCH  45  50
ATOM     49  O   UNL     1     112.947 133.624 144.736  0.00  0.00    +0.000 OA
ATOM     50  C   UNL     1     112.529 133.268 144.121  0.00  0.00    +0.000 C 
ENDBRANCH  45  50
ENDBRANCH  41  47
ENDBRANCH  34  41
ENDBRANCH  30  37
ENDBRANCH   1  30
TORSDOF 10
ENDMDL
MODEL 5
REMARK VINA RESULT:      -9.8      1.320      7.664
REMARK  Name = 74819335
REMARK  10 active torsions:
REMARK  status: ('A' for Active; 'I' for Inactive)
REMARK    1  A    between atoms: O_1  and  C_19
REMARK    2  A    between atoms: O_1  and  C_23
REMARK    3  A    between atoms: O_7  and  C_25
REMARK    4  A    between atoms: O_7  and  C_35
REMARK    5  A    between atoms: O_12  and  C_34
REMARK    6  A    between atoms: O_12  and  C_41
REMARK    7  A    between atoms: C_20  and  C_28
REMARK    8  A    between atoms: C_26  and  C_29
REMARK    9  A    between atoms: C_33  and  C_36
REMARK   10  A    between atoms: C_37  and  C_40
REMARK                            x       y       z     vdW  Elec       q    Type
REMARK                         _______ _______ _______ _____ _____    ______ ____
ROOT
ATOM      1  C   UNL     1     110.623 127.357 140.229  0.00  0.00    +0.000 A 
ATOM      2  C   UNL     1     110.651 126.913 140.923  0.00  0.00    +0.000 A 
ATOM      3  C   UNL     1     109.896 127.555 139.894  0.00  0.00    +0.000 A 
ATOM      4  C   UNL     1     109.223 126.864 140.949  0.00  0.00    +0.000 A 
ATOM      5  C   UNL     1     109.951 126.667 141.283  0.00  0.00    +0.000 A 
ATOM      6  C   UNL     1     109.195 127.309 140.254  0.00  0.00    +0.000 A 
ENDROOT
BRANCH   4   9
ATOM      7  O   UNL     1     108.145 125.930 141.052  0.00  0.00    +0.000 OA
ATOM      8  O   UNL     1     107.175 127.254 142.905  0.00  0.00    +0.000 OA
ATOM      9  C   UNL     1     108.523 126.618 141.309  0.00  0.00    +0.000 C 
ATOM     10  C   UNL     1     106.333 124.705 141.505  0.00  0.00    +0.000 A 
ATOM     11  C   UNL     1     108.199 127.058 141.927  0.00  0.00    +0.000 C 
ATOM     12  C   UNL     1     107.445 125.684 141.412  0.00  0.00    +0.000 A 
ATOM     13  C   UNL     1     107.122 126.125 142.029  0.00  0.00    +0.000 A 
ATOM     14  C   UNL     1     107.063 124.966 141.134  0.00  0.00    +0.000 A 
ATOM     15  C   UNL     1     107.498 126.812 142.287  0.00  0.00    +0.000 C 
ATOM     16  C   UNL     1     105.996 125.164 142.149  0.00  0.00    +0.000 A 
ATOM     17  C   UNL     1     106.394 125.879 142.412  0.00  0.00    +0.000 A 
BRANCH  10  18
ATOM     18  O   UNL     1     105.959 124.017 141.246  0.00  0.00    +0.000 OA
BRANCH  18  27
ATOM     19  O   UNL     1     105.061 124.656 140.337  0.00  0.00    +0.000 OA
ATOM     20  O   UNL     1     105.266 122.739 138.786  0.00  0.00    +0.000 OA
ATOM     21  O   UNL     1     104.299 124.018 138.393  0.00  0.00    +0.000 OA
ATOM     22  O   UNL     1     106.095 122.739 140.212  0.00  0.00    +0.000 OA
ATOM     23  C   UNL     1     105.197 123.379 139.303  0.00  0.00    +0.000 C 
ATOM     24  C   UNL     1     104.714 124.018 139.107  0.00  0.00    +0.000 C 
ATOM     25  C   UNL     1     105.612 123.378 140.016  0.00  0.00    +0.000 C 
ATOM     26  C   UNL     1     104.646 124.657 139.624  0.00  0.00    +0.000 C 
ATOM     27  C   UNL     1     105.544 124.017 140.533  0.00  0.00    +0.000 C 
BRANCH  26  29
ATOM     28  O   UNL     1     104.467 126.063 139.443  0.00  0.00    +0.000 OA
ATOM     29  C   UNL     1     104.163 125.296 139.428  0.00  0.00    +0.000 C 
ENDBRANCH  26  29
ENDBRANCH  18  27
ENDBRANCH  10  18
ENDBRANCH   4   9
BRANCH   1  30
ATOM     30  O   UNL     1     111.323 127.603 139.869  0.00  0.00    +0.000 OA
BRANCH  30  37
ATOM     31  O   UNL     1     111.401 126.489 138.978  0.00  0.00    +0.000 OA
ATOM     32  O   UNL     1     113.872 126.616 139.033  0.00  0.00    +0.000 OA
ATOM     33  O   UNL     1     113.125 125.460 138.125  0.00  0.00    +0.000 OA
ATOM     34  C   UNL     1     112.597 127.110 139.451  0.00  0.00    +0.000 C 
ATOM     35  C   UNL     1     113.048 126.574 139.015  0.00  0.00    +0.000 C 
ATOM     36  C   UNL     1     112.674 125.995 138.560  0.00  0.00    +0.000 C 
ATOM     37  C   UNL     1     111.774 127.068 139.433  0.00  0.00    +0.000 C 
ATOM     38  C   UNL     1     111.851 125.953 138.542  0.00  0.00    +0.000 C 
BRANCH  38  40
ATOM     39  O   UNL     1     111.122 124.727 138.457  0.00  0.00    +0.000 OA
ATOM     40  C   UNL     1     111.478 125.375 138.088  0.00  0.00    +0.000 C 
ENDBRANCH  38  40
BRANCH  34  41
ATOM     41  O   UNL     1     112.971 127.688 139.905  0.00  0.00    +0.000 OA
BRANCH  41  47
ATOM     42  O   UNL     1     113.064 128.624 138.775  0.00  0.00    +0.000 OA
ATOM     43  O   UNL     1     113.871 130.364 139.055  0.00  0.00    +0.000 OA
ATOM     44  O   UNL     1     113.771 129.060 140.742  0.00  0.00    +0.000 OA
ATOM     45  C   UNL     1     113.659 129.645 139.397  0.00  0.00    +0.000 C 
ATOM     46  C   UNL     1     113.550 129.039 139.947  0.00  0.00    +0.000 C 
ATOM     47  C   UNL     1     113.183 128.409 139.562  0.00  0.00    +0.000 C 
ATOM     48  C   UNL     1     113.358 129.388 138.673  0.00  0.00    +0.000 C 
BRANCH  45  50
ATOM     49  O   UNL     1     114.264 130.874 139.800  0.00  0.00    +0.000 OA
ATOM     50  C   UNL     1     114.011 130.111 139.980  0.00  0.00    +0.000 C 
ENDBRANCH  45  50
ENDBRANCH  41  47
ENDBRANCH  34  41
ENDBRANCH  30  37
ENDBRANCH   1  30
TORSDOF 10
ENDMDL
MODEL 6
REMARK VINA RESULT:      -9.7      5.068      6.773
REMARK  Name = 74819335
REMARK  10 active torsions:
REMARK  status: ('A' for Active; 'I' for Inactive)
REMARK    1  A    between atoms: O_1  and  C_19
REMARK    2  A    between atoms: O_1  and  C_23
REMARK    3  A    between atoms: O_7  and  C_25
REMARK    4  A    between atoms: O_7  and  C_35
REMARK    5  A    between atoms: O_12  and  C_34
REMARK    6  A    between atoms: O_12  and  C_41
REMARK    7  A    between atoms: C_20  and  C_28
REMARK    8  A    between atoms: C_26  and  C_29
REMARK    9  A    between atoms: C_33  and  C_36
REMARK   10  A    between atoms: C_37  and  C_40
REMARK                            x       y       z     vdW  Elec       q    Type
REMARK                         _______ _______ _______ _____ _____    ______ ____
ROOT
ATOM      1  C   UNL     1     106.233 126.779 146.487  0.00  0.00    +0.000 A 
ATOM      2  C   UNL     1     106.260 127.426 146.997  0.00  0.00    +0.000 A 
ATOM      3  C   UNL     1     106.604 126.817 145.751  0.00  0.00    +0.000 A 
ATOM      4  C   UNL     1     107.030 128.152 146.036  0.00  0.00    +0.000 A 
ATOM      5  C   UNL     1     106.659 128.113 146.772  0.00  0.00    +0.000 A 
ATOM      6  C   UNL     1     107.003 127.503 145.525  0.00  0.00    +0.000 A 
ENDROOT
BRANCH   4   9
ATOM      7  O   UNL     1     108.248 128.824 145.708  0.00  0.00    +0.000 OA
ATOM      8  O   UNL     1     106.989 130.923 145.340  0.00  0.00    +0.000 OA
ATOM      9  C   UNL     1     107.429 128.838 145.811  0.00  0.00    +0.000 C 
ATOM     10  C   UNL     1     109.921 130.194 145.143  0.00  0.00    +0.000 A 
ATOM     11  C   UNL     1     107.010 129.537 145.688  0.00  0.00    +0.000 C 
ATOM     12  C   UNL     1     108.647 129.510 145.482  0.00  0.00    +0.000 A 
ATOM     13  C   UNL     1     108.227 130.210 145.359  0.00  0.00    +0.000 A 
ATOM     14  C   UNL     1     109.500 129.483 145.378  0.00  0.00    +0.000 A 
ATOM     15  C   UNL     1     107.409 130.223 145.462  0.00  0.00    +0.000 C 
ATOM     16  C   UNL     1     109.484 130.923 145.016  0.00  0.00    +0.000 A 
ATOM     17  C   UNL     1     108.631 130.930 145.124  0.00  0.00    +0.000 A 
BRANCH  10  18
ATOM     18  O   UNL     1     110.739 130.178 145.041  0.00  0.00    +0.000 OA
BRANCH  18  27
ATOM     19  O   UNL     1     110.827 129.481 143.798  0.00  0.00    +0.000 OA
ATOM     20  O   UNL     1     112.483 131.132 142.989  0.00  0.00    +0.000 OA
ATOM     21  O   UNL     1     112.018 129.885 142.013  0.00  0.00    +0.000 OA
ATOM     22  O   UNL     1     111.843 131.278 144.503  0.00  0.00    +0.000 OA
ATOM     23  C   UNL     1     111.931 130.582 143.258  0.00  0.00    +0.000 C 
ATOM     24  C   UNL     1     111.698 129.958 142.770  0.00  0.00    +0.000 C 
ATOM     25  C   UNL     1     111.611 130.655 144.015  0.00  0.00    +0.000 C 
ATOM     26  C   UNL     1     111.146 129.407 143.040  0.00  0.00    +0.000 C 
ATOM     27  C   UNL     1     111.059 130.105 144.284  0.00  0.00    +0.000 C 
BRANCH  26  29
ATOM     28  O   UNL     1     110.942 128.008 142.833  0.00  0.00    +0.000 OA
ATOM     29  C   UNL     1     110.914 128.784 142.553  0.00  0.00    +0.000 C 
ENDBRANCH  26  29
ENDBRANCH  18  27
ENDBRANCH  10  18
ENDBRANCH   4   9
BRANCH   1  30
ATOM     30  O   UNL     1     105.834 126.093 146.713  0.00  0.00    +0.000 OA
BRANCH  30  37
ATOM     31  O   UNL     1     106.962 125.566 147.414  0.00  0.00    +0.000 OA
ATOM     32  O   UNL     1     105.446 124.254 148.865  0.00  0.00    +0.000 OA
ATOM     33  O   UNL     1     107.079 124.164 149.082  0.00  0.00    +0.000 OA
ATOM     34  C   UNL     1     105.640 125.174 147.788  0.00  0.00    +0.000 C 
ATOM     35  C   UNL     1     105.951 124.691 148.381  0.00  0.00    +0.000 C 
ATOM     36  C   UNL     1     106.768 124.646 148.489  0.00  0.00    +0.000 C 
ATOM     37  C   UNL     1     106.145 125.611 147.305  0.00  0.00    +0.000 C 
ATOM     38  C   UNL     1     107.273 125.083 148.006  0.00  0.00    +0.000 C 
BRANCH  38  40
ATOM     39  O   UNL     1     108.592 125.035 147.459  0.00  0.00    +0.000 OA
ATOM     40  C   UNL     1     108.089 125.039 148.114  0.00  0.00    +0.000 C 
ENDBRANCH  38  40
BRANCH  34  41
ATOM     41  O   UNL     1     104.823 125.219 147.680  0.00  0.00    +0.000 OA
BRANCH  41  47
ATOM     42  O   UNL     1     104.799 124.043 146.798  0.00  0.00    +0.000 OA
ATOM     43  O   UNL     1     103.102 123.431 146.088  0.00  0.00    +0.000 OA
ATOM     44  O   UNL     1     103.058 125.143 147.361  0.00  0.00    +0.000 OA
ATOM     45  C   UNL     1     103.486 123.987 146.561  0.00  0.00    +0.000 C 
ATOM     46  C   UNL     1     103.628 124.628 147.061  0.00  0.00    +0.000 C 
ATOM     47  C   UNL     1     104.439 124.662 147.207  0.00  0.00    +0.000 C 
ATOM     48  C   UNL     1     104.210 123.625 146.398  0.00  0.00    +0.000 C 
BRANCH  45  50
ATOM     49  O   UNL     1     102.176 123.800 146.023  0.00  0.00    +0.000 OA
ATOM     50  C   UNL     1     102.679 124.158 146.569  0.00  0.00    +0.000 C 
ENDBRANCH  45  50
ENDBRANCH  41  47
ENDBRANCH  34  41
ENDBRANCH  30  37
ENDBRANCH   1  30
TORSDOF 10
ENDMDL
MODEL 7
REMARK VINA RESULT:      -9.7      5.423      8.508
REMARK  Name = 74819335
REMARK  10 active torsions:
REMARK  status: ('A' for Active; 'I' for Inactive)
REMARK    1  A    between atoms: O_1  and  C_19
REMARK    2  A    between atoms: O_1  and  C_23
REMARK    3  A    between atoms: O_7  and  C_25
REMARK    4  A    between atoms: O_7  and  C_35
REMARK    5  A    between atoms: O_12  and  C_34
REMARK    6  A    between atoms: O_12  and  C_41
REMARK    7  A    between atoms: C_20  and  C_28
REMARK    8  A    between atoms: C_26  and  C_29
REMARK    9  A    between atoms: C_33  and  C_36
REMARK   10  A    between atoms: C_37  and  C_40
REMARK                            x       y       z     vdW  Elec       q    Type
REMARK                         _______ _______ _______ _____ _____    ______ ____
ROOT
ATOM      1  C   UNL     1     104.558 128.101 141.829  0.00  0.00    +0.000 A 
ATOM      2  C   UNL     1     104.458 128.543 142.518  0.00  0.00    +0.000 A 
ATOM      3  C   UNL     1     104.232 128.364 141.118  0.00  0.00    +0.000 A 
ATOM      4  C   UNL     1     103.706 129.514 141.786  0.00  0.00    +0.000 A 
ATOM      5  C   UNL     1     104.032 129.249 142.496  0.00  0.00    +0.000 A 
ATOM      6  C   UNL     1     103.807 129.070 141.096  0.00  0.00    +0.000 A 
ENDROOT
BRANCH   4   9
ATOM      7  O   UNL     1     103.676 130.943 141.812  0.00  0.00    +0.000 OA
ATOM      8  O   UNL     1     101.210 130.894 141.603  0.00  0.00    +0.000 OA
ATOM      9  C   UNL     1     103.280 130.220 141.764  0.00  0.00    +0.000 C 
ATOM     10  C   UNL     1     103.237 133.133 141.820  0.00  0.00    +0.000 A 
ATOM     11  C   UNL     1     102.458 130.205 141.694  0.00  0.00    +0.000 C 
ATOM     12  C   UNL     1     103.251 131.649 141.791  0.00  0.00    +0.000 A 
ATOM     13  C   UNL     1     102.428 131.632 141.721  0.00  0.00    +0.000 A 
ATOM     14  C   UNL     1     103.675 132.395 141.842  0.00  0.00    +0.000 A 
ATOM     15  C   UNL     1     102.033 130.911 141.673  0.00  0.00    +0.000 C 
ATOM     16  C   UNL     1     102.380 133.117 141.747  0.00  0.00    +0.000 A 
ATOM     17  C   UNL     1     101.974 132.361 141.697  0.00  0.00    +0.000 A 
BRANCH  10  18
ATOM     18  O   UNL     1     103.635 133.854 141.868  0.00  0.00    +0.000 OA
BRANCH  18  27
ATOM     19  O   UNL     1     103.658 134.013 143.287  0.00  0.00    +0.000 OA
ATOM     20  O   UNL     1     106.017 134.748 143.168  0.00  0.00    +0.000 OA
ATOM     21  O   UNL     1     105.254 134.662 144.628  0.00  0.00    +0.000 OA
ATOM     22  O   UNL     1     105.208 134.344 141.788  0.00  0.00    +0.000 OA
ATOM     23  C   UNL     1     105.231 134.503 143.208  0.00  0.00    +0.000 C 
ATOM     24  C   UNL     1     104.849 134.460 143.938  0.00  0.00    +0.000 C 
ATOM     25  C   UNL     1     104.826 134.301 142.518  0.00  0.00    +0.000 C 
ATOM     26  C   UNL     1     104.062 134.215 143.977  0.00  0.00    +0.000 C 
ATOM     27  C   UNL     1     104.040 134.056 142.558  0.00  0.00    +0.000 C 
BRANCH  26  29
ATOM     28  O   UNL     1     102.946 134.534 144.811  0.00  0.00    +0.000 OA
ATOM     29  C   UNL     1     103.680 134.172 144.708  0.00  0.00    +0.000 C 
ENDBRANCH  26  29
ENDBRANCH  18  27
ENDBRANCH  10  18
ENDBRANCH   4   9
BRANCH   1  30
ATOM     30  O   UNL     1     104.984 127.395 141.851  0.00  0.00    +0.000 OA
BRANCH  30  37
ATOM     31  O   UNL     1     106.216 128.116 141.791  0.00  0.00    +0.000 OA
ATOM     32  O   UNL     1     107.454 126.048 142.351  0.00  0.00    +0.000 OA
ATOM     33  O   UNL     1     108.273 127.458 142.104  0.00  0.00    +0.000 OA
ATOM     34  C   UNL     1     106.218 126.721 142.101  0.00  0.00    +0.000 C 
ATOM     35  C   UNL     1     107.041 126.737 142.164  0.00  0.00    +0.000 C 
ATOM     36  C   UNL     1     107.450 127.443 142.040  0.00  0.00    +0.000 C 
ATOM     37  C   UNL     1     105.806 127.410 141.914  0.00  0.00    +0.000 C 
ATOM     38  C   UNL     1     107.038 128.131 141.854  0.00  0.00    +0.000 C 
BRANCH  38  40
ATOM     39  O   UNL     1     107.446 129.188 140.983  0.00  0.00    +0.000 OA
ATOM     40  C   UNL     1     107.447 128.837 141.730  0.00  0.00    +0.000 C 
ENDBRANCH  38  40
BRANCH  34  41
ATOM     41  O   UNL     1     105.809 126.016 142.225  0.00  0.00    +0.000 OA
BRANCH  41  47
ATOM     42  O   UNL     1     105.965 125.577 140.830  0.00  0.00    +0.000 OA
ATOM     43  O   UNL     1     105.491 123.759 140.354  0.00  0.00    +0.000 OA
ATOM     44  O   UNL     1     105.238 124.323 142.397  0.00  0.00    +0.000 OA
ATOM     45  C   UNL     1     105.540 124.318 140.958  0.00  0.00    +0.000 C 
ATOM     46  C   UNL     1     105.498 124.679 141.699  0.00  0.00    +0.000 C 
ATOM     47  C   UNL     1     105.760 125.456 141.619  0.00  0.00    +0.000 C 
ATOM     48  C   UNL     1     105.829 124.874 140.420  0.00  0.00    +0.000 C 
BRANCH  45  50
ATOM     49  O   UNL     1     105.114 122.964 140.797  0.00  0.00    +0.000 OA
ATOM     50  C   UNL     1     105.251 123.617 141.282  0.00  0.00    +0.000 C 
ENDBRANCH  45  50
ENDBRANCH  41  47
ENDBRANCH  34  41
ENDBRANCH  30  37
ENDBRANCH   1  30
TORSDOF 10
ENDMDL
MODEL 8
REMARK VINA RESULT:      -9.7      2.645      4.246
REMARK  Name = 74819335
REMARK  10 active torsions:
REMARK  status: ('A' for Active; 'I' for Inactive)
REMARK    1  A    between atoms: O_1  and  C_19
REMARK    2  A    between atoms: O_1  and  C_23
REMARK    3  A    between atoms: O_7  and  C_25
REMARK    4  A    between atoms: O_7  and  C_35
REMARK    5  A    between atoms: O_12  and  C_34
REMARK    6  A    between atoms: O_12  and  C_41
REMARK    7  A    between atoms: C_20  and  C_28
REMARK    8  A    between atoms: C_26  and  C_29
REMARK    9  A    between atoms: C_33  and  C_36
REMARK   10  A    between atoms: C_37  and  C_40
REMARK                            x       y       z     vdW  Elec       q    Type
REMARK                         _______ _______ _______ _____ _____    ______ ____
ROOT
ATOM      1  C   UNL     1     107.477 126.018 141.884  0.00  0.00    +0.000 A 
ATOM      2  C   UNL     1     108.049 126.610 141.842  0.00  0.00    +0.000 A 
ATOM      3  C   UNL     1     107.429 125.446 141.292  0.00  0.00    +0.000 A 
ATOM      4  C   UNL     1     108.528 126.059 140.613  0.00  0.00    +0.000 A 
ATOM      5  C   UNL     1     108.575 126.630 141.206  0.00  0.00    +0.000 A 
ATOM      6  C   UNL     1     107.955 125.466 140.656  0.00  0.00    +0.000 A 
ENDROOT
BRANCH   4   9
ATOM      7  O   UNL     1     108.819 126.412 139.258  0.00  0.00    +0.000 OA
ATOM      8  O   UNL     1     111.098 125.477 139.506  0.00  0.00    +0.000 OA
ATOM      9  C   UNL     1     109.053 126.080 139.977  0.00  0.00    +0.000 C 
ATOM     10  C   UNL     1     109.631 126.806 137.215  0.00  0.00    +0.000 A 
ATOM     11  C   UNL     1     109.813 125.768 140.059  0.00  0.00    +0.000 C 
ATOM     12  C   UNL     1     109.344 126.433 138.623  0.00  0.00    +0.000 A 
ATOM     13  C   UNL     1     110.104 126.121 138.706  0.00  0.00    +0.000 A 
ATOM     14  C   UNL     1     109.088 126.781 137.880  0.00  0.00    +0.000 A 
ATOM     15  C   UNL     1     110.338 125.789 139.423  0.00  0.00    +0.000 C 
ATOM     16  C   UNL     1     110.422 126.481 137.300  0.00  0.00    +0.000 A 
ATOM     17  C   UNL     1     110.660 126.137 138.051  0.00  0.00    +0.000 A 
BRANCH  10  18
ATOM     18  O   UNL     1     109.394 127.138 136.498  0.00  0.00    +0.000 OA
BRANCH  18  27
ATOM     19  O   UNL     1     110.005 128.417 136.675  0.00  0.00    +0.000 OA
ATOM     20  O   UNL     1     108.045 129.500 135.621  0.00  0.00    +0.000 OA
ATOM     21  O   UNL     1     109.309 130.419 136.150  0.00  0.00    +0.000 OA
ATOM     22  O   UNL     1     108.088 127.859 135.795  0.00  0.00    +0.000 OA
ATOM     23  C   UNL     1     108.699 129.139 135.973  0.00  0.00    +0.000 C 
ATOM     24  C   UNL     1     109.331 129.599 136.237  0.00  0.00    +0.000 C 
ATOM     25  C   UNL     1     108.720 128.319 136.060  0.00  0.00    +0.000 C 
ATOM     26  C   UNL     1     109.984 129.237 136.589  0.00  0.00    +0.000 C 
ATOM     27  C   UNL     1     109.373 127.959 136.411  0.00  0.00    +0.000 C 
BRANCH  26  29
ATOM     28  O   UNL     1     111.381 129.540 136.586  0.00  0.00    +0.000 OA
ATOM     29  C   UNL     1     110.617 129.697 136.853  0.00  0.00    +0.000 C 
ENDBRANCH  26  29
ENDBRANCH  18  27
ENDBRANCH  10  18
ENDBRANCH   4   9
BRANCH   1  30
ATOM     30  O   UNL     1     106.952 125.997 142.520  0.00  0.00    +0.000 OA
BRANCH  30  37
ATOM     31  O   UNL     1     105.959 126.813 141.894  0.00  0.00    +0.000 OA
ATOM     32  O   UNL     1     105.315 127.725 144.102  0.00  0.00    +0.000 OA
ATOM     33  O   UNL     1     104.538 128.236 142.740  0.00  0.00    +0.000 OA
ATOM     34  C   UNL     1     106.134 126.861 143.311  0.00  0.00    +0.000 C 
ATOM     35  C   UNL     1     105.530 127.421 143.366  0.00  0.00    +0.000 C 
ATOM     36  C   UNL     1     105.141 127.676 142.684  0.00  0.00    +0.000 C 
ATOM     37  C   UNL     1     106.348 126.557 142.576  0.00  0.00    +0.000 C 
ATOM     38  C   UNL     1     105.356 127.372 141.949  0.00  0.00    +0.000 C 
BRANCH  38  40
ATOM     39  O   UNL     1     104.630 127.076 140.755  0.00  0.00    +0.000 OA
ATOM     40  C   UNL     1     104.968 127.628 141.268  0.00  0.00    +0.000 C 
ENDBRANCH  38  40
BRANCH  34  41
ATOM     41  O   UNL     1     106.522 126.605 143.993  0.00  0.00    +0.000 OA
BRANCH  41  47
ATOM     42  O   UNL     1     105.549 125.532 144.245  0.00  0.00    +0.000 OA
ATOM     43  O   UNL     1     105.651 124.538 145.906  0.00  0.00    +0.000 OA
ATOM     44  O   UNL     1     107.097 126.080 145.610  0.00  0.00    +0.000 OA
ATOM     45  C   UNL     1     105.977 125.141 145.449  0.00  0.00    +0.000 C 
ATOM     46  C   UNL     1     106.460 125.760 145.193  0.00  0.00    +0.000 C 
ATOM     47  C   UNL     1     106.196 126.001 144.451  0.00  0.00    +0.000 C 
ATOM     48  C   UNL     1     105.413 125.001 144.862  0.00  0.00    +0.000 C 
BRANCH  45  50
ATOM     49  O   UNL     1     106.186 124.554 146.733  0.00  0.00    +0.000 OA
ATOM     50  C   UNL     1     106.412 125.088 146.147  0.00  0.00    +0.000 C 
ENDBRANCH  45  50
ENDBRANCH  41  47
ENDBRANCH  34  41
ENDBRANCH  30  37
ENDBRANCH   1  30
TORSDOF 10
ENDMDL
MODEL 9
REMARK VINA RESULT:      -9.7      1.087      7.473
REMARK  Name = 74819335
REMARK  10 active torsions:
REMARK  status: ('A' for Active; 'I' for Inactive)
REMARK    1  A    between atoms: O_1  and  C_19
REMARK    2  A    between atoms: O_1  and  C_23
REMARK    3  A    between atoms: O_7  and  C_25
REMARK    4  A    between atoms: O_7  and  C_35
REMARK    5  A    between atoms: O_12  and  C_34
REMARK    6  A    between atoms: O_12  and  C_41
REMARK    7  A    between atoms: C_20  and  C_28
REMARK    8  A    between atoms: C_26  and  C_29
REMARK    9  A    between atoms: C_33  and  C_36
REMARK   10  A    between atoms: C_37  and  C_40
REMARK                            x       y       z     vdW  Elec       q    Type
REMARK                         _______ _______ _______ _____ _____    ______ ____
ROOT
ATOM      1  C   UNL     1     110.931 126.575 140.088  0.00  0.00    +0.000 A 
ATOM      2  C   UNL     1     110.253 126.708 139.640  0.00  0.00    +0.000 A 
ATOM      3  C   UNL     1     110.866 126.355 140.881  0.00  0.00    +0.000 A 
ATOM      4  C   UNL     1     109.441 126.403 140.776  0.00  0.00    +0.000 A 
ATOM      5  C   UNL     1     109.508 126.622 139.984  0.00  0.00    +0.000 A 
ATOM      6  C   UNL     1     110.121 126.269 141.225  0.00  0.00    +0.000 A 
ENDROOT
BRANCH   4   9
ATOM      7  O   UNL     1     108.228 125.663 140.934  0.00  0.00    +0.000 OA
ATOM      8  O   UNL     1     107.397 127.368 142.524  0.00  0.00    +0.000 OA
ATOM      9  C   UNL     1     108.696 126.317 141.120  0.00  0.00    +0.000 C 
ATOM     10  C   UNL     1     106.229 124.798 141.430  0.00  0.00    +0.000 A 
ATOM     11  C   UNL     1     108.419 126.885 141.650  0.00  0.00    +0.000 C 
ATOM     12  C   UNL     1     107.483 125.578 141.277  0.00  0.00    +0.000 A 
ATOM     13  C   UNL     1     107.206 126.146 141.808  0.00  0.00    +0.000 A 
ATOM     14  C   UNL     1     107.006 124.892 141.075  0.00  0.00    +0.000 A 
ATOM     15  C   UNL     1     107.674 126.799 141.994  0.00  0.00    +0.000 C 
ATOM     16  C   UNL     1     105.940 125.389 141.982  0.00  0.00    +0.000 A 
ATOM     17  C   UNL     1     106.432 126.068 142.172  0.00  0.00    +0.000 A 
BRANCH  10  18
ATOM     18  O   UNL     1     105.764 124.143 141.242  0.00  0.00    +0.000 OA
BRANCH  18  27
ATOM     19  O   UNL     1     104.906 124.734 140.265  0.00  0.00    +0.000 OA
ATOM     20  O   UNL     1     105.173 122.740 138.824  0.00  0.00    +0.000 OA
ATOM     21  O   UNL     1     104.226 123.996 138.326  0.00  0.00    +0.000 OA
ATOM     22  O   UNL     1     105.942 122.814 140.282  0.00  0.00    +0.000 OA
ATOM     23  C   UNL     1     105.084 123.405 139.304  0.00  0.00    +0.000 C 
ATOM     24  C   UNL     1     104.610 124.033 139.055  0.00  0.00    +0.000 C 
ATOM     25  C   UNL     1     105.468 123.442 140.033  0.00  0.00    +0.000 C 
ATOM     26  C   UNL     1     104.521 124.698 139.536  0.00  0.00    +0.000 C 
ATOM     27  C   UNL     1     105.379 124.106 140.513  0.00  0.00    +0.000 C 
BRANCH  26  29
ATOM     28  O   UNL     1     104.323 126.101 139.351  0.00  0.00    +0.000 OA
ATOM     29  C   UNL     1     104.048 125.326 139.287  0.00  0.00    +0.000 C 
ENDBRANCH  26  29
ENDBRANCH  18  27
ENDBRANCH  10  18
ENDBRANCH   4   9
BRANCH   1  30
ATOM     30  O   UNL     1     111.676 126.660 139.744  0.00  0.00    +0.000 OA
BRANCH  30  37
ATOM     31  O   UNL     1     111.847 128.032 140.106  0.00  0.00    +0.000 OA
ATOM     32  O   UNL     1     113.086 128.433 138.002  0.00  0.00    +0.000 OA
ATOM     33  O   UNL     1     112.844 129.670 139.065  0.00  0.00    +0.000 OA
ATOM     34  C   UNL     1     112.381 127.546 138.873  0.00  0.00    +0.000 C 
ATOM     35  C   UNL     1     112.673 128.299 138.703  0.00  0.00    +0.000 C 
ATOM     36  C   UNL     1     112.552 128.918 139.235  0.00  0.00    +0.000 C 
ATOM     37  C   UNL     1     111.969 127.413 139.574  0.00  0.00    +0.000 C 
ATOM     38  C   UNL     1     112.140 128.784 139.936  0.00  0.00    +0.000 C 
BRANCH  38  40
ATOM     39  O   UNL     1     112.280 129.333 141.248  0.00  0.00    +0.000 OA
ATOM     40  C   UNL     1     112.018 129.403 140.468  0.00  0.00    +0.000 C 
ENDBRANCH  38  40
BRANCH  34  41
ATOM     41  O   UNL     1     112.502 126.928 138.341  0.00  0.00    +0.000 OA
BRANCH  41  47
ATOM     42  O   UNL     1     113.823 126.603 138.899  0.00  0.00    +0.000 OA
ATOM     43  O   UNL     1     114.886 125.215 138.063  0.00  0.00    +0.000 OA
ATOM     44  O   UNL     1     112.980 125.630 137.197  0.00  0.00    +0.000 OA
ATOM     45  C   UNL     1     114.179 125.638 138.048  0.00  0.00    +0.000 C 
ATOM     46  C   UNL     1     113.430 125.908 137.830  0.00  0.00    +0.000 C 
ATOM     47  C   UNL     1     113.211 126.504 138.356  0.00  0.00    +0.000 C 
ATOM     48  C   UNL     1     114.422 126.068 138.709  0.00  0.00    +0.000 C 
BRANCH  45  50
ATOM     49  O   UNL     1     114.807 124.594 137.303  0.00  0.00    +0.000 OA
ATOM     50  C   UNL     1     114.166 125.098 137.424  0.00  0.00    +0.000 C 
ENDBRANCH  45  50
ENDBRANCH  41  47
ENDBRANCH  34  41
ENDBRANCH  30  37
ENDBRANCH   1  30
TORSDOF 10
ENDMDL
MODEL 10
REMARK VINA RESULT:      -9.6      4.760      9.910
REMARK  Name = 74819335
REMARK  10 active torsions:
REMARK  status: ('A' for Active; 'I' for Inactive)
REMARK    1  A    between atoms: O_1  and  C_19
REMARK    2  A    between atoms: O_1  and  C_23
REMARK    3  A    between atoms: O_7  and  C_25
REMARK    4  A    between atoms: O_7  and  C_35
REMARK    5  A    between atoms: O_12  and  C_34
REMARK    6  A    between atoms: O_12  and  C_41
REMARK    7  A    between atoms: C_20  and  C_28
REMARK    8  A    between atoms: C_26  and  C_29
REMARK    9  A    between atoms: C_33  and  C_36
REMARK   10  A    between atoms: C_37  and  C_40
REMARK                            x       y       z     vdW  Elec       q    Type
REMARK                         _______ _______ _______ _____ _____    ______ ____
ROOT
ATOM      1  C   UNL     1     110.010 130.768 145.241  0.00  0.00    +0.000 A 
ATOM      2  C   UNL     1     109.967 129.948 145.308  0.00  0.00    +0.000 A 
ATOM      3  C   UNL     1     109.358 131.196 144.971  0.00  0.00    +0.000 A 
ATOM      4  C   UNL     1     108.619 129.980 144.835  0.00  0.00    +0.000 A 
ATOM      5  C   UNL     1     109.271 129.554 145.105  0.00  0.00    +0.000 A 
ATOM      6  C   UNL     1     108.662 130.802 144.768  0.00  0.00    +0.000 A 
ENDROOT
BRANCH   4   9
ATOM      7  O   UNL     1     107.941 128.779 144.460  0.00  0.00    +0.000 OA
ATOM      8  O   UNL     1     105.800 130.017 144.366  0.00  0.00    +0.000 OA
ATOM      9  C   UNL     1     107.923 129.586 144.632  0.00  0.00    +0.000 C 
ATOM     10  C   UNL     1     106.556 127.129 143.868  0.00  0.00    +0.000 A 
ATOM     11  C   UNL     1     107.209 129.998 144.600  0.00  0.00    +0.000 C 
ATOM     12  C   UNL     1     107.245 128.385 144.257  0.00  0.00    +0.000 A 
ATOM     13  C   UNL     1     106.531 128.798 144.226  0.00  0.00    +0.000 A 
ATOM     14  C   UNL     1     107.277 127.544 144.080  0.00  0.00    +0.000 A 
ATOM     15  C   UNL     1     106.513 129.604 144.397  0.00  0.00    +0.000 C 
ATOM     16  C   UNL     1     105.812 127.558 143.835  0.00  0.00    +0.000 A 
ATOM     17  C   UNL     1     105.800 128.399 144.015  0.00  0.00    +0.000 A 
BRANCH  10  18
ATOM     18  O   UNL     1     106.576 126.322 143.697  0.00  0.00    +0.000 OA
BRANCH  18  27
ATOM     19  O   UNL     1     106.589 125.813 145.031  0.00  0.00    +0.000 OA
ATOM     20  O   UNL     1     104.973 124.057 144.378  0.00  0.00    +0.000 OA
ATOM     21  O   UNL     1     105.524 124.133 145.931  0.00  0.00    +0.000 OA
ATOM     22  O   UNL     1     105.499 125.151 143.261  0.00  0.00    +0.000 OA
ATOM     23  C   UNL     1     105.512 124.642 144.596  0.00  0.00    +0.000 C 
ATOM     24  C   UNL     1     105.787 124.680 145.373  0.00  0.00    +0.000 C 
ATOM     25  C   UNL     1     105.775 125.190 144.037  0.00  0.00    +0.000 C 
ATOM     26  C   UNL     1     106.326 125.267 145.590  0.00  0.00    +0.000 C 
ATOM     27  C   UNL     1     106.313 125.775 144.255  0.00  0.00    +0.000 C 
BRANCH  26  29
ATOM     28  O   UNL     1     107.410 125.246 146.521  0.00  0.00    +0.000 OA
ATOM     29  C   UNL     1     106.602 125.305 146.367  0.00  0.00    +0.000 C 
ENDBRANCH  26  29
ENDBRANCH  18  27
ENDBRANCH  10  18
ENDBRANCH   4   9
BRANCH   1  30
ATOM     30  O   UNL     1     110.706 131.162 145.444  0.00  0.00    +0.000 OA
BRANCH  30  37
ATOM     31  O   UNL     1     111.292 131.044 144.146  0.00  0.00    +0.000 OA
ATOM     32  O   UNL     1     112.499 133.175 144.495  0.00  0.00    +0.000 OA
ATOM     33  O   UNL     1     112.682 132.346 143.081  0.00  0.00    +0.000 OA
ATOM     34  C   UNL     1     111.602 132.168 144.970  0.00  0.00    +0.000 C 
ATOM     35  C   UNL     1     112.097 132.465 144.379  0.00  0.00    +0.000 C 
ATOM     36  C   UNL     1     112.188 132.050 143.672  0.00  0.00    +0.000 C 
ATOM     37  C   UNL     1     111.200 131.459 144.853  0.00  0.00    +0.000 C 
ATOM     38  C   UNL     1     111.786 131.340 143.555  0.00  0.00    +0.000 C 
BRANCH  38  40
ATOM     39  O   UNL     1     112.187 130.160 142.857  0.00  0.00    +0.000 OA
ATOM     40  C   UNL     1     111.877 130.925 142.848  0.00  0.00    +0.000 C 
ENDBRANCH  38  40
BRANCH  34  41
ATOM     41  O   UNL     1     111.511 132.584 145.677  0.00  0.00    +0.000 OA
BRANCH  41  47
ATOM     42  O   UNL     1     112.699 131.964 146.283  0.00  0.00    +0.000 OA
ATOM     43  O   UNL     1     113.158 132.398 148.116  0.00  0.00    +0.000 OA
ATOM     44  O   UNL     1     111.421 133.336 147.304  0.00  0.00    +0.000 OA
ATOM     45  C   UNL     1     112.632 132.524 147.494  0.00  0.00    +0.000 C 
ATOM     46  C   UNL     1     111.996 132.803 147.047  0.00  0.00    +0.000 C 
ATOM     47  C   UNL     1     112.039 132.458 146.299  0.00  0.00    +0.000 C 
ATOM     48  C   UNL     1     113.066 132.005 147.021  0.00  0.00    +0.000 C 
BRANCH  45  50
ATOM     49  O   UNL     1     112.776 132.924 148.857  0.00  0.00    +0.000 OA
ATOM     50  C   UNL     1     112.382 132.978 148.135  0.00  0.00    +0.000 C 
ENDBRANCH  45  50
ENDBRANCH  41  47
ENDBRANCH  34  41
ENDBRANCH  30  37
ENDBRANCH   1  30
TORSDOF 10
ENDMDL
