MODEL 1
REMARK VINA RESULT:      -9.1      0.000      0.000
REMARK  Name = 122360680
REMARK  8 active torsions:
REMARK  status: ('A' for Active; 'I' for Inactive)
REMARK    1  A    between atoms: O_3  and  C_17
REMARK    2  A    between atoms: O_3  and  C_19
REMARK    3  A    between atoms: O_6  and  C_18
REMARK    4  A    between atoms: O_6  and  C_22
REMARK    5  A    between atoms: C_15  and  C_18
REMARK    6  A    between atoms: C_22  and  C_26
REMARK    7  A    between atoms: C_26  and  C_31
REMARK    8  A    between atoms: C_28  and  C_30
REMARK                            x       y       z     vdW  Elec       q    Type
REMARK                         _______ _______ _______ _____ _____    ______ ____
ROOT
ATOM      1  O   UNL     1     112.521 126.348 140.440  0.00  0.00    +0.000 OA
ENDROOT
BRANCH   1   4
ATOM      2  O   UNL     1     111.689 126.169 137.654  0.00  0.00    +0.000 OA
ATOM      3  O   UNL     1     114.007 126.623 136.914  0.00  0.00    +0.000 OA
ATOM      4  C   UNL     1     112.702 126.379 139.635  0.00  0.00    +0.000 A 
ATOM      5  C   UNL     1     112.086 126.255 139.048  0.00  0.00    +0.000 A 
ATOM      6  C   UNL     1     113.506 126.537 139.378  0.00  0.00    +0.000 A 
ATOM      7  C   UNL     1     112.284 126.289 138.213  0.00  0.00    +0.000 A 
ATOM      8  C   UNL     1     113.056 126.441 137.967  0.00  0.00    +0.000 A 
ATOM      9  C   UNL     1     113.685 126.568 138.538  0.00  0.00    +0.000 A 
ATOM     10  C   UNL     1     113.234 126.472 137.161  0.00  0.00    +0.000 A 
ATOM     11  C   UNL     1     111.866 126.200 136.849  0.00  0.00    +0.000 A 
ATOM     12  C   UNL     1     112.639 126.351 136.603  0.00  0.00    +0.000 A 
BRANCH  11  14
ATOM     13  O   UNL     1     109.487 125.717 134.614  0.00  0.00    +0.000 OA
ATOM     14  C   UNL     1     111.271 126.079 136.290  0.00  0.00    +0.000 A 
ATOM     15  C   UNL     1     111.147 125.326 135.977  0.00  0.00    +0.000 A 
ATOM     16  C   UNL     1     110.802 126.712 136.045  0.00  0.00    +0.000 A 
ATOM     17  C   UNL     1     110.552 125.205 135.418  0.00  0.00    +0.000 A 
ATOM     18  C   UNL     1     110.207 126.590 135.486  0.00  0.00    +0.000 A 
ATOM     19  C   UNL     1     110.082 125.838 135.173  0.00  0.00    +0.000 A 
ENDBRANCH  11  14
ENDBRANCH   1   4
BRANCH   1  28
ATOM     20  O   UNL     1     112.462 127.752 140.698  0.00  0.00    +0.000 OA
ATOM     21  O   UNL     1     111.076 128.925 141.908  0.00  0.00    +0.000 OA
ATOM     22  O   UNL     1     110.472 127.406 142.127  0.00  0.00    +0.000 OA
ATOM     23  O   UNL     1     111.194 126.117 141.393  0.00  0.00    +0.000 OA
ATOM     24  C   UNL     1     111.438 128.281 141.541  0.00  0.00    +0.000 C 
ATOM     25  C   UNL     1     111.135 127.521 141.651  0.00  0.00    +0.000 C 
ATOM     26  C   UNL     1     112.101 128.396 141.064  0.00  0.00    +0.000 C 
ATOM     27  C   UNL     1     111.497 126.876 141.283  0.00  0.00    +0.000 C 
ATOM     28  C   UNL     1     112.161 126.992 140.807  0.00  0.00    +0.000 C 
BRANCH  26  29
ATOM     29  C   UNL     1     112.403 129.156 140.956  0.00  0.00    +0.000 C 
BRANCH  29  30
ATOM     30  O   UNL     1     113.215 129.270 140.872  0.00  0.00    +0.000 OA
BRANCH  30  32
ATOM     31  O   UNL     1     113.111 130.577 140.305  0.00  0.00    +0.000 OA
ATOM     32  C   UNL     1     113.518 130.031 140.771  0.00  0.00    +0.000 C 
BRANCH  32  33
ATOM     33  C   UNL     1     114.226 130.246 141.135  0.00  0.00    +0.000 C 
BRANCH  33  36
ATOM     34  O   UNL     1     114.798 131.553 141.059  0.00  0.00    +0.000 OA
ATOM     35  O   UNL     1     115.171 130.554 140.109  0.00  0.00    +0.000 OA
ATOM     36  C   UNL     1     114.731 130.784 140.768  0.00  0.00    +0.000 C 
ENDBRANCH  33  36
ENDBRANCH  32  33
ENDBRANCH  30  32
ENDBRANCH  29  30
ENDBRANCH  26  29
ENDBRANCH   1  28
TORSDOF 8
ENDMDL
MODEL 2
REMARK VINA RESULT:      -9.1      3.704      5.016
REMARK  Name = 122360680
REMARK  8 active torsions:
REMARK  status: ('A' for Active; 'I' for Inactive)
REMARK    1  A    between atoms: O_3  and  C_17
REMARK    2  A    between atoms: O_3  and  C_19
REMARK    3  A    between atoms: O_6  and  C_18
REMARK    4  A    between atoms: O_6  and  C_22
REMARK    5  A    between atoms: C_15  and  C_18
REMARK    6  A    between atoms: C_22  and  C_26
REMARK    7  A    between atoms: C_26  and  C_31
REMARK    8  A    between atoms: C_28  and  C_30
REMARK                            x       y       z     vdW  Elec       q    Type
REMARK                         _______ _______ _______ _____ _____    ______ ____
ROOT
ATOM      1  O   UNL     1     110.798 128.910 134.763  0.00  0.00    +0.000 OA
ENDROOT
BRANCH   1   4
ATOM      2  O   UNL     1     112.879 127.307 136.020  0.00  0.00    +0.000 OA
ATOM      3  O   UNL     1     114.465 129.200 135.849  0.00  0.00    +0.000 OA
ATOM      4  C   UNL     1     111.570 128.832 135.042  0.00  0.00    +0.000 A 
ATOM      5  C   UNL     1     111.830 128.092 135.395  0.00  0.00    +0.000 A 
ATOM      6  C   UNL     1     112.121 129.488 134.983  0.00  0.00    +0.000 A 
ATOM      7  C   UNL     1     112.636 128.019 135.683  0.00  0.00    +0.000 A 
ATOM      8  C   UNL     1     113.164 128.650 135.625  0.00  0.00    +0.000 A 
ATOM      9  C   UNL     1     112.923 129.397 135.276  0.00  0.00    +0.000 A 
ATOM     10  C   UNL     1     113.936 128.569 135.906  0.00  0.00    +0.000 A 
ATOM     11  C   UNL     1     113.651 127.225 136.300  0.00  0.00    +0.000 A 
ATOM     12  C   UNL     1     114.179 127.856 136.243  0.00  0.00    +0.000 A 
BRANCH  11  14
ATOM     13  O   UNL     1     114.625 124.375 137.649  0.00  0.00    +0.000 OA
ATOM     14  C   UNL     1     113.894 126.513 136.637  0.00  0.00    +0.000 A 
ATOM     15  C   UNL     1     114.331 125.973 136.191  0.00  0.00    +0.000 A 
ATOM     16  C   UNL     1     113.701 126.340 137.421  0.00  0.00    +0.000 A 
ATOM     17  C   UNL     1     114.574 125.261 136.528  0.00  0.00    +0.000 A 
ATOM     18  C   UNL     1     113.945 125.627 137.757  0.00  0.00    +0.000 A 
ATOM     19  C   UNL     1     114.381 125.088 137.311  0.00  0.00    +0.000 A 
ENDBRANCH  11  14
ENDBRANCH   1   4
BRANCH   1  28
ATOM     20  O   UNL     1     110.258 129.673 135.844  0.00  0.00    +0.000 OA
ATOM     21  O   UNL     1     108.336 129.533 136.871  0.00  0.00    +0.000 OA
ATOM     22  O   UNL     1     108.186 128.321 135.762  0.00  0.00    +0.000 OA
ATOM     23  O   UNL     1     109.417 128.009 134.708  0.00  0.00    +0.000 OA
ATOM     24  C   UNL     1     108.952 129.378 136.344  0.00  0.00    +0.000 C 
ATOM     25  C   UNL     1     108.877 128.771 135.790  0.00  0.00    +0.000 C 
ATOM     26  C   UNL     1     109.643 129.828 136.371  0.00  0.00    +0.000 C 
ATOM     27  C   UNL     1     109.492 128.616 135.262  0.00  0.00    +0.000 C 
ATOM     28  C   UNL     1     110.183 129.066 135.290  0.00  0.00    +0.000 C 
BRANCH  26  29
ATOM     29  C   UNL     1     109.717 130.435 136.926  0.00  0.00    +0.000 C 
BRANCH  29  30
ATOM     30  O   UNL     1     110.059 131.153 136.709  0.00  0.00    +0.000 OA
BRANCH  30  32
ATOM     31  O   UNL     1     110.705 131.547 137.921  0.00  0.00    +0.000 OA
ATOM     32  C   UNL     1     110.215 131.726 137.282  0.00  0.00    +0.000 C 
BRANCH  32  33
ATOM     33  C   UNL     1     109.882 132.477 137.216  0.00  0.00    +0.000 C 
BRANCH  33  36
ATOM     34  O   UNL     1     110.747 133.544 136.821  0.00  0.00    +0.000 OA
ATOM     35  O   UNL     1     110.354 133.412 138.188  0.00  0.00    +0.000 OA
ATOM     36  C   UNL     1     110.327 133.144 137.408  0.00  0.00    +0.000 C 
ENDBRANCH  33  36
ENDBRANCH  32  33
ENDBRANCH  30  32
ENDBRANCH  29  30
ENDBRANCH  26  29
ENDBRANCH   1  28
TORSDOF 8
ENDMDL
MODEL 3
REMARK VINA RESULT:      -9.0      2.643      4.508
REMARK  Name = 122360680
REMARK  8 active torsions:
REMARK  status: ('A' for Active; 'I' for Inactive)
REMARK    1  A    between atoms: O_3  and  C_17
REMARK    2  A    between atoms: O_3  and  C_19
REMARK    3  A    between atoms: O_6  and  C_18
REMARK    4  A    between atoms: O_6  and  C_22
REMARK    5  A    between atoms: C_15  and  C_18
REMARK    6  A    between atoms: C_22  and  C_26
REMARK    7  A    between atoms: C_26  and  C_31
REMARK    8  A    between atoms: C_28  and  C_30
REMARK                            x       y       z     vdW  Elec       q    Type
REMARK                         _______ _______ _______ _____ _____    ______ ____
ROOT
ATOM      1  O   UNL     1     109.485 127.516 135.994  0.00  0.00    +0.000 OA
ENDROOT
BRANCH   1   4
ATOM      2  O   UNL     1     111.791 126.063 137.023  0.00  0.00    +0.000 OA
ATOM      3  O   UNL     1     110.503 125.409 139.033  0.00  0.00    +0.000 OA
ATOM      4  C   UNL     1     109.836 127.052 136.579  0.00  0.00    +0.000 A 
ATOM      5  C   UNL     1     110.651 126.793 136.495  0.00  0.00    +0.000 A 
ATOM      6  C   UNL     1     109.389 126.825 137.277  0.00  0.00    +0.000 A 
ATOM      7  C   UNL     1     111.008 126.310 137.109  0.00  0.00    +0.000 A 
ATOM      8  C   UNL     1     110.578 126.092 137.779  0.00  0.00    +0.000 A 
ATOM      9  C   UNL     1     109.763 126.341 137.881  0.00  0.00    +0.000 A 
ATOM     10  C   UNL     1     110.932 125.627 138.362  0.00  0.00    +0.000 A 
ATOM     11  C   UNL     1     112.144 125.599 137.606  0.00  0.00    +0.000 A 
ATOM     12  C   UNL     1     111.714 125.381 138.276  0.00  0.00    +0.000 A 
BRANCH  11  14
ATOM     13  O   UNL     1     115.274 124.614 137.261  0.00  0.00    +0.000 OA
ATOM     14  C   UNL     1     112.927 125.353 137.520  0.00  0.00    +0.000 A 
ATOM     15  C   UNL     1     113.104 124.702 137.044  0.00  0.00    +0.000 A 
ATOM     16  C   UNL     1     113.532 125.757 137.909  0.00  0.00    +0.000 A 
ATOM     17  C   UNL     1     113.887 124.456 136.958  0.00  0.00    +0.000 A 
ATOM     18  C   UNL     1     114.314 125.511 137.822  0.00  0.00    +0.000 A 
ATOM     19  C   UNL     1     114.491 124.860 137.347  0.00  0.00    +0.000 A 
ENDBRANCH  11  14
ENDBRANCH   1   4
BRANCH   1  28
ATOM     20  O   UNL     1     110.049 128.775 136.366  0.00  0.00    +0.000 OA
ATOM     21  O   UNL     1     109.168 130.771 136.439  0.00  0.00    +0.000 OA
ATOM     22  O   UNL     1     107.881 129.880 135.917  0.00  0.00    +0.000 OA
ATOM     23  O   UNL     1     108.039 128.253 135.695  0.00  0.00    +0.000 OA
ATOM     24  C   UNL     1     109.248 129.957 136.328  0.00  0.00    +0.000 C 
ATOM     25  C   UNL     1     108.604 129.512 136.067  0.00  0.00    +0.000 C 
ATOM     26  C   UNL     1     109.971 129.588 136.478  0.00  0.00    +0.000 C 
ATOM     27  C   UNL     1     108.683 128.698 135.956  0.00  0.00    +0.000 C 
ATOM     28  C   UNL     1     109.406 128.329 136.105  0.00  0.00    +0.000 C 
BRANCH  26  29
ATOM     29  C   UNL     1     110.614 130.034 136.739  0.00  0.00    +0.000 C 
BRANCH  29  30
ATOM     30  O   UNL     1     111.380 129.740 136.659  0.00  0.00    +0.000 OA
BRANCH  30  32
ATOM     31  O   UNL     1     112.186 130.910 136.810  0.00  0.00    +0.000 OA
ATOM     32  C   UNL     1     112.012 130.131 137.018  0.00  0.00    +0.000 C 
BRANCH  32  33
ATOM     33  C   UNL     1     112.470 129.743 137.583  0.00  0.00    +0.000 C 
BRANCH  33  36
ATOM     34  O   UNL     1     113.570 129.063 136.974  0.00  0.00    +0.000 OA
ATOM     35  O   UNL     1     113.808 130.169 137.847  0.00  0.00    +0.000 OA
ATOM     36  C   UNL     1     113.282 129.658 137.468  0.00  0.00    +0.000 C 
ENDBRANCH  33  36
ENDBRANCH  32  33
ENDBRANCH  30  32
ENDBRANCH  29  30
ENDBRANCH  26  29
ENDBRANCH   1  28
TORSDOF 8
ENDMDL
MODEL 4
REMARK VINA RESULT:      -8.9      3.349      4.841
REMARK  Name = 122360680
REMARK  8 active torsions:
REMARK  status: ('A' for Active; 'I' for Inactive)
REMARK    1  A    between atoms: O_3  and  C_17
REMARK    2  A    between atoms: O_3  and  C_19
REMARK    3  A    between atoms: O_6  and  C_18
REMARK    4  A    between atoms: O_6  and  C_22
REMARK    5  A    between atoms: C_15  and  C_18
REMARK    6  A    between atoms: C_22  and  C_26
REMARK    7  A    between atoms: C_26  and  C_31
REMARK    8  A    between atoms: C_28  and  C_30
REMARK                            x       y       z     vdW  Elec       q    Type
REMARK                         _______ _______ _______ _____ _____    ______ ____
ROOT
ATOM      1  O   UNL     1     112.578 129.377 134.850  0.00  0.00    +0.000 OA
ENDROOT
BRANCH   1   4
ATOM      2  O   UNL     1     111.731 126.777 135.852  0.00  0.00    +0.000 OA
ATOM      3  O   UNL     1     109.380 127.306 135.286  0.00  0.00    +0.000 OA
ATOM      4  C   UNL     1     111.981 128.828 135.002  0.00  0.00    +0.000 A 
ATOM      5  C   UNL     1     112.171 128.069 135.357  0.00  0.00    +0.000 A 
ATOM      6  C   UNL     1     111.165 129.012 134.805  0.00  0.00    +0.000 A 
ATOM      7  C   UNL     1     111.542 127.504 135.511  0.00  0.00    +0.000 A 
ATOM      8  C   UNL     1     110.759 127.681 135.322  0.00  0.00    +0.000 A 
ATOM      9  C   UNL     1     110.550 128.434 134.967  0.00  0.00    +0.000 A 
ATOM     10  C   UNL     1     110.164 127.130 135.475  0.00  0.00    +0.000 A 
ATOM     11  C   UNL     1     111.135 126.226 136.005  0.00  0.00    +0.000 A 
ATOM     12  C   UNL     1     110.352 126.403 135.816  0.00  0.00    +0.000 A 
BRANCH  11  14
ATOM     13  O   UNL     1     111.888 123.318 137.371  0.00  0.00    +0.000 OA
ATOM     14  C   UNL     1     111.323 125.499 136.346  0.00  0.00    +0.000 A 
ATOM     15  C   UNL     1     111.328 125.418 137.168  0.00  0.00    +0.000 A 
ATOM     16  C   UNL     1     111.507 124.853 135.867  0.00  0.00    +0.000 A 
ATOM     17  C   UNL     1     111.516 124.691 137.509  0.00  0.00    +0.000 A 
ATOM     18  C   UNL     1     111.695 124.127 136.209  0.00  0.00    +0.000 A 
ATOM     19  C   UNL     1     111.700 124.045 137.030  0.00  0.00    +0.000 A 
ENDBRANCH  11  14
ENDBRANCH   1   4
BRANCH   1  28
ATOM     20  O   UNL     1     112.470 130.159 136.041  0.00  0.00    +0.000 OA
ATOM     21  O   UNL     1     114.006 130.993 137.348  0.00  0.00    +0.000 OA
ATOM     22  O   UNL     1     114.937 130.238 136.214  0.00  0.00    +0.000 OA
ATOM     23  O   UNL     1     114.224 129.430 134.965  0.00  0.00    +0.000 OA
ATOM     24  C   UNL     1     113.649 130.589 136.723  0.00  0.00    +0.000 C 
ATOM     25  C   UNL     1     114.115 130.211 136.157  0.00  0.00    +0.000 C 
ATOM     26  C   UNL     1     112.826 130.562 136.666  0.00  0.00    +0.000 C 
ATOM     27  C   UNL     1     113.757 129.807 135.532  0.00  0.00    +0.000 C 
ATOM     28  C   UNL     1     112.935 129.781 135.474  0.00  0.00    +0.000 C 
BRANCH  26  29
ATOM     29  C   UNL     1     112.361 130.940 137.233  0.00  0.00    +0.000 C 
BRANCH  29  30
ATOM     30  O   UNL     1     111.676 131.339 137.006  0.00  0.00    +0.000 OA
BRANCH  30  32
ATOM     31  O   UNL     1     111.178 131.470 138.339  0.00  0.00    +0.000 OA
ATOM     32  C   UNL     1     111.235 131.754 137.567  0.00  0.00    +0.000 C 
BRANCH  32  33
ATOM     33  C   UNL     1     110.850 132.452 137.355  0.00  0.00    +0.000 C 
BRANCH  33  36
ATOM     34  O   UNL     1     109.427 132.404 137.475  0.00  0.00    +0.000 OA
ATOM     35  O   UNL     1     110.198 133.172 138.402  0.00  0.00    +0.000 OA
ATOM     36  C   UNL     1     110.159 132.676 137.744  0.00  0.00    +0.000 C 
ENDBRANCH  33  36
ENDBRANCH  32  33
ENDBRANCH  30  32
ENDBRANCH  29  30
ENDBRANCH  26  29
ENDBRANCH   1  28
TORSDOF 8
ENDMDL
MODEL 5
REMARK VINA RESULT:      -8.8      2.650      4.922
REMARK  Name = 122360680
REMARK  8 active torsions:
REMARK  status: ('A' for Active; 'I' for Inactive)
REMARK    1  A    between atoms: O_3  and  C_17
REMARK    2  A    between atoms: O_3  and  C_19
REMARK    3  A    between atoms: O_6  and  C_18
REMARK    4  A    between atoms: O_6  and  C_22
REMARK    5  A    between atoms: C_15  and  C_18
REMARK    6  A    between atoms: C_22  and  C_26
REMARK    7  A    between atoms: C_26  and  C_31
REMARK    8  A    between atoms: C_28  and  C_30
REMARK                            x       y       z     vdW  Elec       q    Type
REMARK                         _______ _______ _______ _____ _____    ______ ____
ROOT
ATOM      1  O   UNL     1     110.441 128.587 135.195  0.00  0.00    +0.000 OA
ENDROOT
BRANCH   1   4
ATOM      2  O   UNL     1     112.232 126.536 136.229  0.00  0.00    +0.000 OA
ATOM      3  O   UNL     1     110.662 124.769 135.491  0.00  0.00    +0.000 OA
ATOM      4  C   UNL     1     110.619 127.792 135.326  0.00  0.00    +0.000 A 
ATOM      5  C   UNL     1     111.351 127.572 135.719  0.00  0.00    +0.000 A 
ATOM      6  C   UNL     1     110.075 127.179 135.070  0.00  0.00    +0.000 A 
ATOM      7  C   UNL     1     111.528 126.741 135.851  0.00  0.00    +0.000 A 
ATOM      8  C   UNL     1     111.005 126.153 135.605  0.00  0.00    +0.000 A 
ATOM      9  C   UNL     1     110.269 126.354 135.210  0.00  0.00    +0.000 A 
ATOM     10  C   UNL     1     111.185 125.359 135.737  0.00  0.00    +0.000 A 
ATOM     11  C   UNL     1     112.412 125.742 136.362  0.00  0.00    +0.000 A 
ATOM     12  C   UNL     1     111.889 125.153 136.115  0.00  0.00    +0.000 A 
BRANCH  11  14
ATOM     13  O   UNL     1     115.228 124.919 137.874  0.00  0.00    +0.000 OA
ATOM     14  C   UNL     1     113.116 125.536 136.740  0.00  0.00    +0.000 A 
ATOM     15  C   UNL     1     113.771 125.303 136.294  0.00  0.00    +0.000 A 
ATOM     16  C   UNL     1     113.166 125.564 137.563  0.00  0.00    +0.000 A 
ATOM     17  C   UNL     1     114.474 125.097 136.672  0.00  0.00    +0.000 A 
ATOM     18  C   UNL     1     113.870 125.359 137.940  0.00  0.00    +0.000 A 
ATOM     19  C   UNL     1     114.524 125.125 137.495  0.00  0.00    +0.000 A 
ENDBRANCH  11  14
ENDBRANCH   1   4
BRANCH   1  28
ATOM     20  O   UNL     1     110.038 128.889 136.532  0.00  0.00    +0.000 OA
ATOM     21  O   UNL     1     108.467 130.202 137.289  0.00  0.00    +0.000 OA
ATOM     22  O   UNL     1     108.287 130.407 135.662  0.00  0.00    +0.000 OA
ATOM     23  O   UNL     1     109.274 129.599 134.615  0.00  0.00    +0.000 OA
ATOM     24  C   UNL     1     108.961 129.798 136.765  0.00  0.00    +0.000 C 
ATOM     25  C   UNL     1     108.871 129.901 135.952  0.00  0.00    +0.000 C 
ATOM     26  C   UNL     1     109.545 129.292 137.055  0.00  0.00    +0.000 C 
ATOM     27  C   UNL     1     109.365 129.496 135.428  0.00  0.00    +0.000 C 
ATOM     28  C   UNL     1     109.948 128.990 135.718  0.00  0.00    +0.000 C 
BRANCH  26  29
ATOM     29  C   UNL     1     109.634 129.190 137.869  0.00  0.00    +0.000 C 
BRANCH  29  30
ATOM     30  O   UNL     1     109.702 128.432 138.186  0.00  0.00    +0.000 OA
BRANCH  30  32
ATOM     31  O   UNL     1     110.401 128.907 139.338  0.00  0.00    +0.000 OA
ATOM     32  C   UNL     1     109.940 128.331 138.969  0.00  0.00    +0.000 C 
BRANCH  32  33
ATOM     33  C   UNL     1     109.717 127.654 139.384  0.00  0.00    +0.000 C 
BRANCH  33  36
ATOM     34  O   UNL     1     109.989 126.305 139.001  0.00  0.00    +0.000 OA
ATOM     35  O   UNL     1     110.930 127.025 139.799  0.00  0.00    +0.000 OA
ATOM     36  C   UNL     1     110.211 126.995 139.394  0.00  0.00    +0.000 C 
ENDBRANCH  33  36
ENDBRANCH  32  33
ENDBRANCH  30  32
ENDBRANCH  29  30
ENDBRANCH  26  29
ENDBRANCH   1  28
TORSDOF 8
ENDMDL
MODEL 6
REMARK VINA RESULT:      -8.8      2.638      6.214
REMARK  Name = 122360680
REMARK  8 active torsions:
REMARK  status: ('A' for Active; 'I' for Inactive)
REMARK    1  A    between atoms: O_3  and  C_17
REMARK    2  A    between atoms: O_3  and  C_19
REMARK    3  A    between atoms: O_6  and  C_18
REMARK    4  A    between atoms: O_6  and  C_22
REMARK    5  A    between atoms: C_15  and  C_18
REMARK    6  A    between atoms: C_22  and  C_26
REMARK    7  A    between atoms: C_26  and  C_31
REMARK    8  A    between atoms: C_28  and  C_30
REMARK                            x       y       z     vdW  Elec       q    Type
REMARK                         _______ _______ _______ _____ _____    ______ ____
ROOT
ATOM      1  O   UNL     1     110.507 129.552 134.916  0.00  0.00    +0.000 OA
ENDROOT
BRANCH   1   4
ATOM      2  O   UNL     1     112.572 129.718 136.964  0.00  0.00    +0.000 OA
ATOM      3  O   UNL     1     114.231 128.767 135.393  0.00  0.00    +0.000 OA
ATOM      4  C   UNL     1     111.287 129.435 135.157  0.00  0.00    +0.000 A 
ATOM      5  C   UNL     1     111.530 129.643 135.956  0.00  0.00    +0.000 A 
ATOM      6  C   UNL     1     111.864 129.105 134.612  0.00  0.00    +0.000 A 
ATOM      7  C   UNL     1     112.345 129.517 136.197  0.00  0.00    +0.000 A 
ATOM      8  C   UNL     1     112.898 129.200 135.673  0.00  0.00    +0.000 A 
ATOM      9  C   UNL     1     112.674 128.987 134.872  0.00  0.00    +0.000 A 
ATOM     10  C   UNL     1     113.677 129.085 135.917  0.00  0.00    +0.000 A 
ATOM     11  C   UNL     1     113.351 129.602 137.208  0.00  0.00    +0.000 A 
ATOM     12  C   UNL     1     113.904 129.286 136.684  0.00  0.00    +0.000 A 
BRANCH  11  14
ATOM     13  O   UNL     1     114.259 130.407 140.277  0.00  0.00    +0.000 OA
ATOM     14  C   UNL     1     113.578 129.803 137.975  0.00  0.00    +0.000 A 
ATOM     15  C   UNL     1     114.000 130.500 138.111  0.00  0.00    +0.000 A 
ATOM     16  C   UNL     1     113.384 129.308 138.606  0.00  0.00    +0.000 A 
ATOM     17  C   UNL     1     114.227 130.701 138.879  0.00  0.00    +0.000 A 
ATOM     18  C   UNL     1     113.611 129.510 139.373  0.00  0.00    +0.000 A 
ATOM     19  C   UNL     1     114.032 130.206 139.509  0.00  0.00    +0.000 A 
ENDBRANCH  11  14
ENDBRANCH   1   4
BRANCH   1  28
ATOM     20  O   UNL     1     110.026 128.241 135.217  0.00  0.00    +0.000 OA
ATOM     21  O   UNL     1     108.119 127.572 136.041  0.00  0.00    +0.000 OA
ATOM     22  O   UNL     1     107.887 129.205 136.003  0.00  0.00    +0.000 OA
ATOM     23  O   UNL     1     109.081 130.195 135.441  0.00  0.00    +0.000 OA
ATOM     24  C   UNL     1     108.717 128.067 135.760  0.00  0.00    +0.000 C 
ATOM     25  C   UNL     1     108.600 128.884 135.741  0.00  0.00    +0.000 C 
ATOM     26  C   UNL     1     109.430 127.746 135.498  0.00  0.00    +0.000 C 
ATOM     27  C   UNL     1     109.198 129.379 135.460  0.00  0.00    +0.000 C 
ATOM     28  C   UNL     1     109.911 129.058 135.197  0.00  0.00    +0.000 C 
BRANCH  26  29
ATOM     29  C   UNL     1     109.545 126.929 135.517  0.00  0.00    +0.000 C 
BRANCH  29  30
ATOM     30  O   UNL     1     110.285 126.621 135.710  0.00  0.00    +0.000 OA
BRANCH  30  32
ATOM     31  O   UNL     1     110.143 125.365 135.044  0.00  0.00    +0.000 OA
ATOM     32  C   UNL     1     110.412 125.806 135.687  0.00  0.00    +0.000 C 
BRANCH  32  33
ATOM     33  C   UNL     1     110.808 125.432 136.306  0.00  0.00    +0.000 C 
BRANCH  33  36
ATOM     34  O   UNL     1     112.221 125.471 136.093  0.00  0.00    +0.000 OA
ATOM     35  O   UNL     1     111.531 124.219 136.092  0.00  0.00    +0.000 OA
ATOM     36  C   UNL     1     111.520 125.041 136.164  0.00  0.00    +0.000 C 
ENDBRANCH  33  36
ENDBRANCH  32  33
ENDBRANCH  30  32
ENDBRANCH  29  30
ENDBRANCH  26  29
ENDBRANCH   1  28
TORSDOF 8
ENDMDL
MODEL 7
REMARK VINA RESULT:      -8.8      3.540      4.597
REMARK  Name = 122360680
REMARK  8 active torsions:
REMARK  status: ('A' for Active; 'I' for Inactive)
REMARK    1  A    between atoms: O_3  and  C_17
REMARK    2  A    between atoms: O_3  and  C_19
REMARK    3  A    between atoms: O_6  and  C_18
REMARK    4  A    between atoms: O_6  and  C_22
REMARK    5  A    between atoms: C_15  and  C_18
REMARK    6  A    between atoms: C_22  and  C_26
REMARK    7  A    between atoms: C_26  and  C_31
REMARK    8  A    between atoms: C_28  and  C_30
REMARK                            x       y       z     vdW  Elec       q    Type
REMARK                         _______ _______ _______ _____ _____    ______ ____
ROOT
ATOM      1  O   UNL     1     109.452 128.729 137.302  0.00  0.00    +0.000 OA
ENDROOT
BRANCH   1   4
ATOM      2  O   UNL     1     110.927 126.289 136.705  0.00  0.00    +0.000 OA
ATOM      3  O   UNL     1     109.636 126.001 134.612  0.00  0.00    +0.000 OA
ATOM      4  C   UNL     1     109.599 128.084 136.809  0.00  0.00    +0.000 A 
ATOM      5  C   UNL     1     110.201 127.508 137.018  0.00  0.00    +0.000 A 
ATOM      6  C   UNL     1     109.151 127.984 136.083  0.00  0.00    +0.000 A 
ATOM      7  C   UNL     1     110.347 126.839 136.499  0.00  0.00    +0.000 A 
ATOM      8  C   UNL     1     109.917 126.744 135.801  0.00  0.00    +0.000 A 
ATOM      9  C   UNL     1     109.311 127.309 135.576  0.00  0.00    +0.000 A 
ATOM     10  C   UNL     1     110.066 126.098 135.310  0.00  0.00    +0.000 A 
ATOM     11  C   UNL     1     111.076 125.644 136.213  0.00  0.00    +0.000 A 
ATOM     12  C   UNL     1     110.645 125.548 135.516  0.00  0.00    +0.000 A 
BRANCH  11  14
ATOM     13  O   UNL     1     113.393 123.444 137.037  0.00  0.00    +0.000 OA
ATOM     14  C   UNL     1     111.655 125.094 136.419  0.00  0.00    +0.000 A 
ATOM     15  C   UNL     1     111.438 124.371 136.753  0.00  0.00    +0.000 A 
ATOM     16  C   UNL     1     112.452 125.266 136.291  0.00  0.00    +0.000 A 
ATOM     17  C   UNL     1     112.017 123.821 136.959  0.00  0.00    +0.000 A 
ATOM     18  C   UNL     1     113.031 124.716 136.497  0.00  0.00    +0.000 A 
ATOM     19  C   UNL     1     112.814 123.994 136.831  0.00  0.00    +0.000 A 
ENDBRANCH  11  14
ENDBRANCH   1   4
BRANCH   1  28
ATOM     20  O   UNL     1     110.522 129.565 136.858  0.00  0.00    +0.000 OA
ATOM     21  O   UNL     1     110.599 131.717 136.498  0.00  0.00    +0.000 OA
ATOM     22  O   UNL     1     109.033 131.538 136.984  0.00  0.00    +0.000 OA
ATOM     23  O   UNL     1     108.459 130.044 137.387  0.00  0.00    +0.000 OA
ATOM     24  C   UNL     1     110.312 130.969 136.699  0.00  0.00    +0.000 C 
ATOM     25  C   UNL     1     109.529 130.881 136.942  0.00  0.00    +0.000 C 
ATOM     26  C   UNL     1     110.809 130.312 136.657  0.00  0.00    +0.000 C 
ATOM     27  C   UNL     1     109.242 130.133 137.143  0.00  0.00    +0.000 C 
ATOM     28  C   UNL     1     109.738 129.475 137.101  0.00  0.00    +0.000 C 
BRANCH  26  29
ATOM     29  C   UNL     1     111.592 130.401 136.413  0.00  0.00    +0.000 C 
BRANCH  29  30
ATOM     30  O   UNL     1     112.099 129.752 136.406  0.00  0.00    +0.000 OA
BRANCH  30  32
ATOM     31  O   UNL     1     113.398 130.346 136.435  0.00  0.00    +0.000 OA
ATOM     32  C   UNL     1     112.859 129.824 136.092  0.00  0.00    +0.000 C 
BRANCH  32  33
ATOM     33  C   UNL     1     113.080 129.376 135.437  0.00  0.00    +0.000 C 
BRANCH  33  36
ATOM     34  O   UNL     1     114.451 129.211 135.071  0.00  0.00    +0.000 OA
ATOM     35  O   UNL     1     113.797 128.214 135.858  0.00  0.00    +0.000 OA
ATOM     36  C   UNL     1     113.776 128.934 135.455  0.00  0.00    +0.000 C 
ENDBRANCH  33  36
ENDBRANCH  32  33
ENDBRANCH  30  32
ENDBRANCH  29  30
ENDBRANCH  26  29
ENDBRANCH   1  28
TORSDOF 8
ENDMDL
MODEL 8
REMARK VINA RESULT:      -8.8      2.697      4.432
REMARK  Name = 122360680
REMARK  8 active torsions:
REMARK  status: ('A' for Active; 'I' for Inactive)
REMARK    1  A    between atoms: O_3  and  C_17
REMARK    2  A    between atoms: O_3  and  C_19
REMARK    3  A    between atoms: O_6  and  C_18
REMARK    4  A    between atoms: O_6  and  C_22
REMARK    5  A    between atoms: C_15  and  C_18
REMARK    6  A    between atoms: C_22  and  C_26
REMARK    7  A    between atoms: C_26  and  C_31
REMARK    8  A    between atoms: C_28  and  C_30
REMARK                            x       y       z     vdW  Elec       q    Type
REMARK                         _______ _______ _______ _____ _____    ______ ____
ROOT
ATOM      1  O   UNL     1     110.647 128.977 135.146  0.00  0.00    +0.000 OA
ENDROOT
BRANCH   1   4
ATOM      2  O   UNL     1     112.814 127.316 136.162  0.00  0.00    +0.000 OA
ATOM      3  O   UNL     1     114.449 129.099 135.640  0.00  0.00    +0.000 OA
ATOM      4  C   UNL     1     111.449 128.866 135.308  0.00  0.00    +0.000 A 
ATOM      5  C   UNL     1     111.722 128.130 135.659  0.00  0.00    +0.000 A 
ATOM      6  C   UNL     1     112.017 129.484 135.127  0.00  0.00    +0.000 A 
ATOM      7  C   UNL     1     112.558 128.024 135.825  0.00  0.00    +0.000 A 
ATOM      8  C   UNL     1     113.103 128.618 135.651  0.00  0.00    +0.000 A 
ATOM      9  C   UNL     1     112.849 129.360 135.299  0.00  0.00    +0.000 A 
ATOM     10  C   UNL     1     113.903 128.505 135.814  0.00  0.00    +0.000 A 
ATOM     11  C   UNL     1     113.614 127.202 136.326  0.00  0.00    +0.000 A 
ATOM     12  C   UNL     1     114.159 127.797 136.151  0.00  0.00    +0.000 A 
BRANCH  11  14
ATOM     13  O   UNL     1     114.637 124.371 137.676  0.00  0.00    +0.000 OA
ATOM     14  C   UNL     1     113.870 126.494 136.663  0.00  0.00    +0.000 A 
ATOM     15  C   UNL     1     113.698 126.329 137.453  0.00  0.00    +0.000 A 
ATOM     16  C   UNL     1     114.298 125.952 136.211  0.00  0.00    +0.000 A 
ATOM     17  C   UNL     1     113.954 125.621 137.791  0.00  0.00    +0.000 A 
ATOM     18  C   UNL     1     114.553 125.245 136.549  0.00  0.00    +0.000 A 
ATOM     19  C   UNL     1     114.382 125.079 137.339  0.00  0.00    +0.000 A 
ENDBRANCH  11  14
ENDBRANCH   1   4
BRANCH   1  28
ATOM     20  O   UNL     1     110.456 129.666 136.382  0.00  0.00    +0.000 OA
ATOM     21  O   UNL     1     108.634 130.136 137.490  0.00  0.00    +0.000 OA
ATOM     22  O   UNL     1     108.011 129.336 136.188  0.00  0.00    +0.000 OA
ATOM     23  O   UNL     1     109.017 128.757 135.016  0.00  0.00    +0.000 OA
ATOM     24  C   UNL     1     109.138 129.846 136.903  0.00  0.00    +0.000 C 
ATOM     25  C   UNL     1     108.826 129.446 136.253  0.00  0.00    +0.000 C 
ATOM     26  C   UNL     1     109.953 129.956 136.968  0.00  0.00    +0.000 C 
ATOM     27  C   UNL     1     109.330 129.156 135.666  0.00  0.00    +0.000 C 
ATOM     28  C   UNL     1     110.145 129.266 135.731  0.00  0.00    +0.000 C 
BRANCH  26  29
ATOM     29  C   UNL     1     110.265 130.356 137.619  0.00  0.00    +0.000 C 
BRANCH  29  30
ATOM     30  O   UNL     1     110.884 130.024 138.051  0.00  0.00    +0.000 OA
BRANCH  30  32
ATOM     31  O   UNL     1     111.368 131.295 138.488  0.00  0.00    +0.000 OA
ATOM     32  C   UNL     1     111.296 130.481 138.600  0.00  0.00    +0.000 C 
BRANCH  32  33
ATOM     33  C   UNL     1     111.636 130.124 139.261  0.00  0.00    +0.000 C 
BRANCH  33  36
ATOM     34  O   UNL     1     112.883 129.458 139.053  0.00  0.00    +0.000 OA
ATOM     35  O   UNL     1     112.851 130.725 139.713  0.00  0.00    +0.000 OA
ATOM     36  C   UNL     1     112.456 130.102 139.342  0.00  0.00    +0.000 C 
ENDBRANCH  33  36
ENDBRANCH  32  33
ENDBRANCH  30  32
ENDBRANCH  29  30
ENDBRANCH  26  29
ENDBRANCH   1  28
TORSDOF 8
ENDMDL
MODEL 9
REMARK VINA RESULT:      -8.8      1.779      2.840
REMARK  Name = 122360680
REMARK  8 active torsions:
REMARK  status: ('A' for Active; 'I' for Inactive)
REMARK    1  A    between atoms: O_3  and  C_17
REMARK    2  A    between atoms: O_3  and  C_19
REMARK    3  A    between atoms: O_6  and  C_18
REMARK    4  A    between atoms: O_6  and  C_22
REMARK    5  A    between atoms: C_15  and  C_18
REMARK    6  A    between atoms: C_22  and  C_26
REMARK    7  A    between atoms: C_26  and  C_31
REMARK    8  A    between atoms: C_28  and  C_30
REMARK                            x       y       z     vdW  Elec       q    Type
REMARK                         _______ _______ _______ _____ _____    ______ ____
ROOT
ATOM      1  O   UNL     1     112.823 127.571 141.430  0.00  0.00    +0.000 OA
ENDROOT
BRANCH   1   4
ATOM      2  O   UNL     1     113.431 126.333 138.864  0.00  0.00    +0.000 OA
ATOM      3  O   UNL     1     111.031 125.836 138.516  0.00  0.00    +0.000 OA
ATOM      4  C   UNL     1     112.574 127.186 140.744  0.00  0.00    +0.000 A 
ATOM      5  C   UNL     1     113.146 126.954 140.145  0.00  0.00    +0.000 A 
ATOM      6  C   UNL     1     111.741 127.013 140.623  0.00  0.00    +0.000 A 
ATOM      7  C   UNL     1     112.878 126.553 139.435  0.00  0.00    +0.000 A 
ATOM      8  C   UNL     1     112.078 126.388 139.319  0.00  0.00    +0.000 A 
ATOM      9  C   UNL     1     111.492 126.611 139.906  0.00  0.00    +0.000 A 
ATOM     10  C   UNL     1     111.832 126.002 138.633  0.00  0.00    +0.000 A 
ATOM     11  C   UNL     1     113.185 125.948 138.177  0.00  0.00    +0.000 A 
ATOM     12  C   UNL     1     112.385 125.782 138.062  0.00  0.00    +0.000 A 
BRANCH  11  14
ATOM     13  O   UNL     1     115.399 125.069 135.894  0.00  0.00    +0.000 OA
ATOM     14  C   UNL     1     113.739 125.728 137.606  0.00  0.00    +0.000 A 
ATOM     15  C   UNL     1     113.855 126.202 136.941  0.00  0.00    +0.000 A 
ATOM     16  C   UNL     1     114.176 125.035 137.701  0.00  0.00    +0.000 A 
ATOM     17  C   UNL     1     114.408 125.982 136.370  0.00  0.00    +0.000 A 
ATOM     18  C   UNL     1     114.729 124.816 137.130  0.00  0.00    +0.000 A 
ATOM     19  C   UNL     1     114.845 125.289 136.465  0.00  0.00    +0.000 A 
ENDBRANCH  11  14
ENDBRANCH   1   4
BRANCH   1  28
ATOM     20  O   UNL     1     113.043 128.882 140.903  0.00  0.00    +0.000 OA
ATOM     21  O   UNL     1     112.505 130.846 141.689  0.00  0.00    +0.000 OA
ATOM     22  O   UNL     1     111.907 129.862 142.872  0.00  0.00    +0.000 OA
ATOM     23  O   UNL     1     112.066 128.225 142.742  0.00  0.00    +0.000 OA
ATOM     24  C   UNL     1     112.585 130.027 141.624  0.00  0.00    +0.000 C 
ATOM     25  C   UNL     1     112.286 129.536 142.216  0.00  0.00    +0.000 C 
ATOM     26  C   UNL     1     112.963 129.700 140.968  0.00  0.00    +0.000 C 
ATOM     27  C   UNL     1     112.365 128.716 142.151  0.00  0.00    +0.000 C 
ATOM     28  C   UNL     1     112.744 128.389 141.494  0.00  0.00    +0.000 C 
BRANCH  26  29
ATOM     29  C   UNL     1     113.262 130.192 140.377  0.00  0.00    +0.000 C 
BRANCH  29  30
ATOM     30  O   UNL     1     113.391 129.896 139.619  0.00  0.00    +0.000 OA
BRANCH  30  32
ATOM     31  O   UNL     1     114.318 130.876 139.150  0.00  0.00    +0.000 OA
ATOM     32  C   UNL     1     113.661 130.395 139.020  0.00  0.00    +0.000 C 
BRANCH  32  33
ATOM     33  C   UNL     1     113.274 130.414 138.292  0.00  0.00    +0.000 C 
BRANCH  33  36
ATOM     34  O   UNL     1     114.165 130.726 137.220  0.00  0.00    +0.000 OA
ATOM     35  O   UNL     1     113.579 129.426 137.308  0.00  0.00    +0.000 OA
ATOM     36  C   UNL     1     113.673 130.189 137.607  0.00  0.00    +0.000 C 
ENDBRANCH  33  36
ENDBRANCH  32  33
ENDBRANCH  30  32
ENDBRANCH  29  30
ENDBRANCH  26  29
ENDBRANCH   1  28
TORSDOF 8
ENDMDL
MODEL 10
REMARK VINA RESULT:      -8.7      3.127      5.051
REMARK  Name = 122360680
REMARK  8 active torsions:
REMARK  status: ('A' for Active; 'I' for Inactive)
REMARK    1  A    between atoms: O_3  and  C_17
REMARK    2  A    between atoms: O_3  and  C_19
REMARK    3  A    between atoms: O_6  and  C_18
REMARK    4  A    between atoms: O_6  and  C_22
REMARK    5  A    between atoms: C_15  and  C_18
REMARK    6  A    between atoms: C_22  and  C_26
REMARK    7  A    between atoms: C_26  and  C_31
REMARK    8  A    between atoms: C_28  and  C_30
REMARK                            x       y       z     vdW  Elec       q    Type
REMARK                         _______ _______ _______ _____ _____    ______ ____
ROOT
ATOM      1  O   UNL     1     111.983 130.107 137.846  0.00  0.00    +0.000 OA
ENDROOT
BRANCH   1   4
ATOM      2  O   UNL     1     112.780 127.413 137.076  0.00  0.00    +0.000 OA
ATOM      3  O   UNL     1     114.433 128.339 135.483  0.00  0.00    +0.000 OA
ATOM      4  C   UNL     1     112.452 129.601 137.393  0.00  0.00    +0.000 A 
ATOM      5  C   UNL     1     112.370 128.748 137.472  0.00  0.00    +0.000 A 
ATOM      6  C   UNL     1     113.026 129.922 136.840  0.00  0.00    +0.000 A 
ATOM      7  C   UNL     1     112.863 128.230 136.996  0.00  0.00    +0.000 A 
ATOM      8  C   UNL     1     113.414 128.538 136.466  0.00  0.00    +0.000 A 
ATOM      9  C   UNL     1     113.510 129.387 136.373  0.00  0.00    +0.000 A 
ATOM     10  C   UNL     1     113.882 128.030 136.014  0.00  0.00    +0.000 A 
ATOM     11  C   UNL     1     113.248 126.904 136.625  0.00  0.00    +0.000 A 
ATOM     12  C   UNL     1     113.799 127.213 136.094  0.00  0.00    +0.000 A 
BRANCH  11  14
ATOM     13  O   UNL     1     112.915 123.637 136.943  0.00  0.00    +0.000 OA
ATOM     14  C   UNL     1     113.165 126.087 136.705  0.00  0.00    +0.000 A 
ATOM     15  C   UNL     1     112.485 125.713 136.423  0.00  0.00    +0.000 A 
ATOM     16  C   UNL     1     113.761 125.645 137.065  0.00  0.00    +0.000 A 
ATOM     17  C   UNL     1     112.402 124.896 136.503  0.00  0.00    +0.000 A 
ATOM     18  C   UNL     1     113.677 124.829 137.144  0.00  0.00    +0.000 A 
ATOM     19  C   UNL     1     112.998 124.454 136.863  0.00  0.00    +0.000 A 
ENDBRANCH  11  14
ENDBRANCH   1   4
BRANCH   1  28
ATOM     20  O   UNL     1     110.768 130.024 137.099  0.00  0.00    +0.000 OA
ATOM     21  O   UNL     1     109.356 131.573 136.490  0.00  0.00    +0.000 OA
ATOM     22  O   UNL     1     110.473 132.472 137.306  0.00  0.00    +0.000 OA
ATOM     23  O   UNL     1     111.787 131.739 137.984  0.00  0.00    +0.000 OA
ATOM     24  C   UNL     1     110.013 131.206 136.829  0.00  0.00    +0.000 C 
ATOM     25  C   UNL     1     110.571 131.656 137.237  0.00  0.00    +0.000 C 
ATOM     26  C   UNL     1     110.111 130.390 136.760  0.00  0.00    +0.000 C 
ATOM     27  C   UNL     1     111.228 131.289 137.576  0.00  0.00    +0.000 C 
ATOM     28  C   UNL     1     111.327 130.473 137.507  0.00  0.00    +0.000 C 
BRANCH  26  29
ATOM     29  C   UNL     1     109.552 129.941 136.351  0.00  0.00    +0.000 C 
BRANCH  29  30
ATOM     30  O   UNL     1     109.387 129.169 136.591  0.00  0.00    +0.000 OA
BRANCH  30  32
ATOM     31  O   UNL     1     108.185 128.922 135.860  0.00  0.00    +0.000 OA
ATOM     32  C   UNL     1     108.931 128.676 136.112  0.00  0.00    +0.000 C 
BRANCH  32  33
ATOM     33  C   UNL     1     109.221 127.939 135.884  0.00  0.00    +0.000 C 
BRANCH  33  36
ATOM     34  O   UNL     1     108.971 126.995 136.928  0.00  0.00    +0.000 OA
ATOM     35  O   UNL     1     108.367 126.819 135.645  0.00  0.00    +0.000 OA
ATOM     36  C   UNL     1     108.853 127.251 136.152  0.00  0.00    +0.000 C 
ENDBRANCH  33  36
ENDBRANCH  32  33
ENDBRANCH  30  32
ENDBRANCH  29  30
ENDBRANCH  26  29
ENDBRANCH   1  28
TORSDOF 8
ENDMDL
