MODEL 1
REMARK VINA RESULT:      -7.6      0.000      0.000
REMARK  Name = 10429470
REMARK  5 active torsions:
REMARK  status: ('A' for Active; 'I' for Inactive)
REMARK    1  A    between atoms: O_2  and  C_11
REMARK    2  A    between atoms: O_3  and  C_15
REMARK    3  A    between atoms: O_4  and  C_16
REMARK    4  A    between atoms: O_5  and  C_17
REMARK    5  A    between atoms: C_12  and  C_18
REMARK                            x       y       z     vdW  Elec       q    Type
REMARK                         _______ _______ _______ _____ _____    ______ ____
ROOT
ATOM      1  O   UNL     1     104.577 124.788 147.094  0.00  0.00    +0.000 OA
ATOM      2  O   UNL     1     103.078 123.077 145.305  0.00  0.00    +0.000 OA
ATOM      3  O   UNL     1     104.377 123.552 144.893  0.00  0.00    +0.000 OA
ATOM      4  C   UNL     1     103.816 123.921 146.190  0.00  0.00    +0.000 A 
ATOM      5  C   UNL     1     103.879 124.323 146.908  0.00  0.00    +0.000 A 
ATOM      6  C   UNL     1     103.265 124.282 147.459  0.00  0.00    +0.000 A 
ATOM      7  C   UNL     1     105.219 124.835 146.525  0.00  0.00    +0.000 A 
ATOM      8  C   UNL     1     103.140 123.478 146.023  0.00  0.00    +0.000 A 
ATOM      9  C   UNL     1     104.448 123.957 145.609  0.00  0.00    +0.000 A 
ATOM     10  C   UNL     1     105.154 124.417 145.777  0.00  0.00    +0.000 A 
ATOM     11  C   UNL     1     102.590 123.839 147.291  0.00  0.00    +0.000 A 
ATOM     12  C   UNL     1     102.528 123.437 146.573  0.00  0.00    +0.000 A 
ENDROOT
BRANCH   7  14
ATOM     13  O   UNL     1     107.916 126.609 147.209  0.00  0.00    +0.000 OA
ATOM     14  C   UNL     1     105.893 125.279 146.696  0.00  0.00    +0.000 A 
ATOM     15  C   UNL     1     106.531 124.927 147.084  0.00  0.00    +0.000 A 
ATOM     16  C   UNL     1     105.930 126.074 146.478  0.00  0.00    +0.000 A 
ATOM     17  C   UNL     1     107.205 125.371 147.255  0.00  0.00    +0.000 A 
ATOM     18  C   UNL     1     106.604 126.517 146.649  0.00  0.00    +0.000 A 
ATOM     19  C   UNL     1     107.242 126.166 147.038  0.00  0.00    +0.000 A 
ENDBRANCH   7  14
BRANCH   6  20
ATOM     20  O   UNL     1     103.327 124.684 148.177  0.00  0.00    +0.000 OA
ATOM     21  C   UNL     1     102.934 125.400 148.284  0.00  0.00    +0.000 C 
ENDBRANCH   6  20
BRANCH  10  22
ATOM     22  O   UNL     1     105.766 124.456 145.225  0.00  0.00    +0.000 OA
ATOM     23  C   UNL     1     105.596 124.424 144.418  0.00  0.00    +0.000 C 
ENDBRANCH  10  22
BRANCH  11  24
ATOM     24  O   UNL     1     101.976 123.798 147.842  0.00  0.00    +0.000 OA
ATOM     25  C   UNL     1     101.955 123.181 148.389  0.00  0.00    +0.000 C 
ENDBRANCH  11  24
BRANCH  12  26
ATOM     26  O   UNL     1     101.852 122.994 146.406  0.00  0.00    +0.000 OA
ATOM     27  C   UNL     1     101.295 123.277 145.868  0.00  0.00    +0.000 C 
ENDBRANCH  12  26
TORSDOF 5
ENDMDL
MODEL 2
REMARK VINA RESULT:      -7.5      1.025      4.593
REMARK  Name = 10429470
REMARK  5 active torsions:
REMARK  status: ('A' for Active; 'I' for Inactive)
REMARK    1  A    between atoms: O_2  and  C_11
REMARK    2  A    between atoms: O_3  and  C_15
REMARK    3  A    between atoms: O_4  and  C_16
REMARK    4  A    between atoms: O_5  and  C_17
REMARK    5  A    between atoms: C_12  and  C_18
REMARK                            x       y       z     vdW  Elec       q    Type
REMARK                         _______ _______ _______ _____ _____    ______ ____
ROOT
ATOM      1  O   UNL     1     104.171 124.506 146.198  0.00  0.00    +0.000 OA
ATOM      2  O   UNL     1     106.160 125.363 148.117  0.00  0.00    +0.000 OA
ATOM      3  O   UNL     1     104.927 124.786 148.598  0.00  0.00    +0.000 OA
ATOM      4  C   UNL     1     105.179 124.941 147.168  0.00  0.00    +0.000 A 
ATOM      5  C   UNL     1     104.935 124.851 146.385  0.00  0.00    +0.000 A 
ATOM      6  C   UNL     1     105.428 125.093 145.768  0.00  0.00    +0.000 A 
ATOM      7  C   UNL     1     103.653 124.252 146.835  0.00  0.00    +0.000 A 
ATOM      8  C   UNL     1     105.916 125.273 147.334  0.00  0.00    +0.000 A 
ATOM      9  C   UNL     1     104.675 124.692 147.818  0.00  0.00    +0.000 A 
ATOM     10  C   UNL     1     103.907 124.346 147.650  0.00  0.00    +0.000 A 
ATOM     11  C   UNL     1     106.164 125.425 145.936  0.00  0.00    +0.000 A 
ATOM     12  C   UNL     1     106.408 125.515 146.719  0.00  0.00    +0.000 A 
ENDROOT
BRANCH   7  14
ATOM     13  O   UNL     1     100.711 122.924 146.152  0.00  0.00    +0.000 OA
ATOM     14  C   UNL     1     102.916 123.920 146.664  0.00  0.00    +0.000 A 
ATOM     15  C   UNL     1     102.855 123.112 146.511  0.00  0.00    +0.000 A 
ATOM     16  C   UNL     1     102.243 124.396 146.646  0.00  0.00    +0.000 A 
ATOM     17  C   UNL     1     102.119 122.779 146.340  0.00  0.00    +0.000 A 
ATOM     18  C   UNL     1     101.508 124.065 146.475  0.00  0.00    +0.000 A 
ATOM     19  C   UNL     1     101.445 123.255 146.322  0.00  0.00    +0.000 A 
ENDBRANCH   7  14
BRANCH   6  20
ATOM     20  O   UNL     1     105.184 125.003 144.985  0.00  0.00    +0.000 OA
ATOM     21  C   UNL     1     105.489 124.390 144.527  0.00  0.00    +0.000 C 
ENDBRANCH   6  20
BRANCH  10  22
ATOM     22  O   UNL     1     103.416 124.104 148.268  0.00  0.00    +0.000 OA
ATOM     23  C   UNL     1     103.526 124.411 149.026  0.00  0.00    +0.000 C 
ENDBRANCH  10  22
BRANCH  11  24
ATOM     24  O   UNL     1     106.657 125.667 145.319  0.00  0.00    +0.000 OA
ATOM     25  C   UNL     1     106.597 126.434 145.021  0.00  0.00    +0.000 C 
ENDBRANCH  11  24
BRANCH  12  26
ATOM     26  O   UNL     1     107.145 125.847 146.885  0.00  0.00    +0.000 OA
ATOM     27  C   UNL     1     107.722 125.401 147.270  0.00  0.00    +0.000 C 
ENDBRANCH  12  26
TORSDOF 5
ENDMDL
MODEL 3
REMARK VINA RESULT:      -7.3     12.853     13.686
REMARK  Name = 10429470
REMARK  5 active torsions:
REMARK  status: ('A' for Active; 'I' for Inactive)
REMARK    1  A    between atoms: O_2  and  C_11
REMARK    2  A    between atoms: O_3  and  C_15
REMARK    3  A    between atoms: O_4  and  C_16
REMARK    4  A    between atoms: O_5  and  C_17
REMARK    5  A    between atoms: C_12  and  C_18
REMARK                            x       y       z     vdW  Elec       q    Type
REMARK                         _______ _______ _______ _____ _____    ______ ____
ROOT
ATOM      1  O   UNL     1     112.906 127.400 136.565  0.00  0.00    +0.000 OA
ATOM      2  O   UNL     1     110.301 127.802 135.372  0.00  0.00    +0.000 OA
ATOM      3  O   UNL     1     110.770 126.455 135.589  0.00  0.00    +0.000 OA
ATOM      4  C   UNL     1     111.588 127.606 135.961  0.00  0.00    +0.000 A 
ATOM      5  C   UNL     1     112.283 127.916 136.279  0.00  0.00    +0.000 A 
ATOM      6  C   UNL     1     112.386 128.734 136.324  0.00  0.00    +0.000 A 
ATOM      7  C   UNL     1     112.805 126.547 136.520  0.00  0.00    +0.000 A 
ATOM      8  C   UNL     1     110.996 128.113 135.689  0.00  0.00    +0.000 A 
ATOM      9  C   UNL     1     111.468 126.757 135.908  0.00  0.00    +0.000 A 
ATOM     10  C   UNL     1     112.081 126.224 136.189  0.00  0.00    +0.000 A 
ATOM     11  C   UNL     1     111.794 129.240 136.053  0.00  0.00    +0.000 A 
ATOM     12  C   UNL     1     111.099 128.930 135.735  0.00  0.00    +0.000 A 
ENDROOT
BRANCH   7  14
ATOM     13  O   UNL     1     115.179 124.533 137.612  0.00  0.00    +0.000 OA
ATOM     14  C   UNL     1     113.399 126.043 136.793  0.00  0.00    +0.000 A 
ATOM     15  C   UNL     1     113.426 125.832 137.590  0.00  0.00    +0.000 A 
ATOM     16  C   UNL     1     113.966 125.752 136.269  0.00  0.00    +0.000 A 
ATOM     17  C   UNL     1     114.019 125.328 137.863  0.00  0.00    +0.000 A 
ATOM     18  C   UNL     1     114.559 125.249 136.542  0.00  0.00    +0.000 A 
ATOM     19  C   UNL     1     114.586 125.036 137.340  0.00  0.00    +0.000 A 
ENDBRANCH   7  14
BRANCH   6  20
ATOM     20  O   UNL     1     113.082 129.045 136.642  0.00  0.00    +0.000 OA
ATOM     21  C   UNL     1     113.671 129.332 136.142  0.00  0.00    +0.000 C 
ENDBRANCH   6  20
BRANCH  10  22
ATOM     22  O   UNL     1     111.975 125.407 136.142  0.00  0.00    +0.000 OA
ATOM     23  C   UNL     1     111.218 125.094 136.044  0.00  0.00    +0.000 C 
ENDBRANCH  10  22
BRANCH  11  24
ATOM     24  O   UNL     1     111.898 130.058 136.099  0.00  0.00    +0.000 OA
ATOM     25  C   UNL     1     111.625 130.471 136.758  0.00  0.00    +0.000 C 
ENDBRANCH  11  24
BRANCH  12  26
ATOM     26  O   UNL     1     110.508 129.437 135.464  0.00  0.00    +0.000 OA
ATOM     27  C   UNL     1     110.370 129.514 134.655  0.00  0.00    +0.000 C 
ENDBRANCH  12  26
TORSDOF 5
ENDMDL
MODEL 4
REMARK VINA RESULT:      -7.3     12.558     13.291
REMARK  Name = 10429470
REMARK  5 active torsions:
REMARK  status: ('A' for Active; 'I' for Inactive)
REMARK    1  A    between atoms: O_2  and  C_11
REMARK    2  A    between atoms: O_3  and  C_15
REMARK    3  A    between atoms: O_4  and  C_16
REMARK    4  A    between atoms: O_5  and  C_17
REMARK    5  A    between atoms: C_12  and  C_18
REMARK                            x       y       z     vdW  Elec       q    Type
REMARK                         _______ _______ _______ _____ _____    ______ ____
ROOT
ATOM      1  O   UNL     1     112.136 126.829 136.387  0.00  0.00    +0.000 OA
ATOM      2  O   UNL     1     111.506 124.032 135.999  0.00  0.00    +0.000 OA
ATOM      3  O   UNL     1     110.659 125.030 135.390  0.00  0.00    +0.000 OA
ATOM      4  C   UNL     1     111.818 125.412 136.192  0.00  0.00    +0.000 A 
ATOM      5  C   UNL     1     112.301 125.996 136.518  0.00  0.00    +0.000 A 
ATOM      6  C   UNL     1     112.954 125.784 136.977  0.00  0.00    +0.000 A 
ATOM      7  C   UNL     1     111.457 127.057 135.910  0.00  0.00    +0.000 A 
ATOM      8  C   UNL     1     111.988 124.616 136.325  0.00  0.00    +0.000 A 
ATOM      9  C   UNL     1     111.137 125.620 135.713  0.00  0.00    +0.000 A 
ATOM     10  C   UNL     1     110.955 126.449 135.571  0.00  0.00    +0.000 A 
ATOM     11  C   UNL     1     113.123 124.988 137.109  0.00  0.00    +0.000 A 
ATOM     12  C   UNL     1     112.640 124.403 136.783  0.00  0.00    +0.000 A 
ENDROOT
BRANCH   7  14
ATOM     13  O   UNL     1     110.793 130.246 135.386  0.00  0.00    +0.000 OA
ATOM     14  C   UNL     1     111.291 127.855 135.779  0.00  0.00    +0.000 A 
ATOM     15  C   UNL     1     111.647 128.252 135.150  0.00  0.00    +0.000 A 
ATOM     16  C   UNL     1     110.769 128.255 136.278  0.00  0.00    +0.000 A 
ATOM     17  C   UNL     1     111.481 129.049 135.019  0.00  0.00    +0.000 A 
ATOM     18  C   UNL     1     110.603 129.051 136.147  0.00  0.00    +0.000 A 
ATOM     19  C   UNL     1     110.959 129.450 135.517  0.00  0.00    +0.000 A 
ENDBRANCH   7  14
BRANCH   6  20
ATOM     20  O   UNL     1     113.437 126.368 137.303  0.00  0.00    +0.000 OA
ATOM     21  C   UNL     1     113.363 126.567 138.099  0.00  0.00    +0.000 C 
ENDBRANCH   6  20
BRANCH  10  22
ATOM     22  O   UNL     1     110.302 126.658 135.112  0.00  0.00    +0.000 OA
ATOM     23  C   UNL     1     109.953 126.102 134.612  0.00  0.00    +0.000 C 
ENDBRANCH  10  22
BRANCH  11  24
ATOM     24  O   UNL     1     113.776 124.775 137.568  0.00  0.00    +0.000 OA
ATOM     25  C   UNL     1     114.509 124.654 137.210  0.00  0.00    +0.000 C 
ENDBRANCH  11  24
BRANCH  12  26
ATOM     26  O   UNL     1     112.810 123.607 136.916  0.00  0.00    +0.000 OA
ATOM     27  C   UNL     1     112.278 123.136 137.334  0.00  0.00    +0.000 C 
ENDBRANCH  12  26
TORSDOF 5
ENDMDL
MODEL 5
REMARK VINA RESULT:      -7.3      9.611     11.955
REMARK  Name = 10429470
REMARK  5 active torsions:
REMARK  status: ('A' for Active; 'I' for Inactive)
REMARK    1  A    between atoms: O_2  and  C_11
REMARK    2  A    between atoms: O_3  and  C_15
REMARK    3  A    between atoms: O_4  and  C_16
REMARK    4  A    between atoms: O_5  and  C_17
REMARK    5  A    between atoms: C_12  and  C_18
REMARK                            x       y       z     vdW  Elec       q    Type
REMARK                         _______ _______ _______ _____ _____    ______ ____
ROOT
ATOM      1  O   UNL     1     113.439 126.434 138.782  0.00  0.00    +0.000 OA
ATOM      2  O   UNL     1     110.724 126.402 139.783  0.00  0.00    +0.000 OA
ATOM      3  O   UNL     1     111.029 125.687 138.567  0.00  0.00    +0.000 OA
ATOM      4  C   UNL     1     112.065 126.419 139.291  0.00  0.00    +0.000 A 
ATOM      5  C   UNL     1     112.850 126.664 139.363  0.00  0.00    +0.000 A 
ATOM      6  C   UNL     1     113.077 127.137 140.001  0.00  0.00    +0.000 A 
ATOM      7  C   UNL     1     113.208 125.942 138.116  0.00  0.00    +0.000 A 
ATOM      8  C   UNL     1     111.508 126.647 139.856  0.00  0.00    +0.000 A 
ATOM      9  C   UNL     1     111.816 125.928 138.632  0.00  0.00    +0.000 A 
ATOM     10  C   UNL     1     112.391 125.687 138.041  0.00  0.00    +0.000 A 
ATOM     11  C   UNL     1     112.520 127.364 140.565  0.00  0.00    +0.000 A 
ATOM     12  C   UNL     1     111.736 127.119 140.492  0.00  0.00    +0.000 A 
ENDROOT
BRANCH   7  14
ATOM     13  O   UNL     1     115.447 125.038 135.867  0.00  0.00    +0.000 OA
ATOM     14  C   UNL     1     113.768 125.716 137.553  0.00  0.00    +0.000 A 
ATOM     15  C   UNL     1     114.204 125.024 137.660  0.00  0.00    +0.000 A 
ATOM     16  C   UNL     1     113.892 126.182 136.884  0.00  0.00    +0.000 A 
ATOM     17  C   UNL     1     114.764 124.798 137.098  0.00  0.00    +0.000 A 
ATOM     18  C   UNL     1     114.451 125.957 136.322  0.00  0.00    +0.000 A 
ATOM     19  C   UNL     1     114.888 125.264 136.429  0.00  0.00    +0.000 A 
ENDBRANCH   7  14
BRANCH   6  20
ATOM     20  O   UNL     1     113.862 127.382 140.073  0.00  0.00    +0.000 OA
ATOM     21  C   UNL     1     114.352 127.031 140.636  0.00  0.00    +0.000 C 
ENDBRANCH   6  20
BRANCH  10  22
ATOM     22  O   UNL     1     112.161 125.215 137.405  0.00  0.00    +0.000 OA
ATOM     23  C   UNL     1     111.462 124.779 137.447  0.00  0.00    +0.000 C 
ENDBRANCH  10  22
BRANCH  11  24
ATOM     24  O   UNL     1     112.748 127.836 141.203  0.00  0.00    +0.000 OA
ATOM     25  C   UNL     1     112.675 128.657 141.154  0.00  0.00    +0.000 C 
ENDBRANCH  11  24
BRANCH  12  26
ATOM     26  O   UNL     1     111.179 127.347 141.057  0.00  0.00    +0.000 OA
ATOM     27  C   UNL     1     110.825 126.780 141.540  0.00  0.00    +0.000 C 
ENDBRANCH  12  26
TORSDOF 5
ENDMDL
MODEL 6
REMARK VINA RESULT:      -7.3      8.977     10.954
REMARK  Name = 10429470
REMARK  5 active torsions:
REMARK  status: ('A' for Active; 'I' for Inactive)
REMARK    1  A    between atoms: O_2  and  C_11
REMARK    2  A    between atoms: O_3  and  C_15
REMARK    3  A    between atoms: O_4  and  C_16
REMARK    4  A    between atoms: O_5  and  C_17
REMARK    5  A    between atoms: C_12  and  C_18
REMARK                            x       y       z     vdW  Elec       q    Type
REMARK                         _______ _______ _______ _____ _____    ______ ____
ROOT
ATOM      1  O   UNL     1     111.938 131.411 145.205  0.00  0.00    +0.000 OA
ATOM      2  O   UNL     1     111.597 132.347 142.488  0.00  0.00    +0.000 OA
ATOM      3  O   UNL     1     111.914 133.303 143.522  0.00  0.00    +0.000 OA
ATOM      4  C   UNL     1     111.765 131.883 143.829  0.00  0.00    +0.000 A 
ATOM      5  C   UNL     1     111.772 131.264 144.375  0.00  0.00    +0.000 A 
ATOM      6  C   UNL     1     111.618 130.492 144.126  0.00  0.00    +0.000 A 
ATOM      7  C   UNL     1     112.098 132.213 145.470  0.00  0.00    +0.000 A 
ATOM      8  C   UNL     1     111.604 131.729 143.034  0.00  0.00    +0.000 A 
ATOM      9  C   UNL     1     111.923 132.690 144.075  0.00  0.00    +0.000 A 
ATOM     10  C   UNL     1     112.091 132.856 144.901  0.00  0.00    +0.000 A 
ATOM     11  C   UNL     1     111.458 130.339 143.332  0.00  0.00    +0.000 A 
ATOM     12  C   UNL     1     111.451 130.958 142.786  0.00  0.00    +0.000 A 
ENDROOT
BRANCH   7  14
ATOM     13  O   UNL     1     112.740 132.810 148.651  0.00  0.00    +0.000 OA
ATOM     14  C   UNL     1     112.258 132.362 146.266  0.00  0.00    +0.000 A 
ATOM     15  C   UNL     1     113.013 132.219 146.568  0.00  0.00    +0.000 A 
ATOM     16  C   UNL     1     111.665 132.655 146.759  0.00  0.00    +0.000 A 
ATOM     17  C   UNL     1     113.174 132.369 147.363  0.00  0.00    +0.000 A 
ATOM     18  C   UNL     1     111.825 132.804 147.553  0.00  0.00    +0.000 A 
ATOM     19  C   UNL     1     112.580 132.661 147.856  0.00  0.00    +0.000 A 
ENDBRANCH   7  14
BRANCH   6  20
ATOM     20  O   UNL     1     111.625 129.874 144.672  0.00  0.00    +0.000 OA
ATOM     21  C   UNL     1     110.915 129.581 144.972  0.00  0.00    +0.000 C 
ENDBRANCH   6  20
BRANCH  10  22
ATOM     22  O   UNL     1     112.244 133.629 145.147  0.00  0.00    +0.000 OA
ATOM     23  C   UNL     1     112.062 134.263 144.652  0.00  0.00    +0.000 C 
ENDBRANCH  10  22
BRANCH  11  24
ATOM     24  O   UNL     1     111.304 129.567 143.083  0.00  0.00    +0.000 OA
ATOM     25  C   UNL     1     111.920 129.094 142.804  0.00  0.00    +0.000 C 
ENDBRANCH  11  24
BRANCH  12  26
ATOM     26  O   UNL     1     111.290 130.804 141.991  0.00  0.00    +0.000 OA
ATOM     27  C   UNL     1     110.558 131.005 141.671  0.00  0.00    +0.000 C 
ENDBRANCH  12  26
TORSDOF 5
ENDMDL
MODEL 7
REMARK VINA RESULT:      -7.3      1.312      4.104
REMARK  Name = 10429470
REMARK  5 active torsions:
REMARK  status: ('A' for Active; 'I' for Inactive)
REMARK    1  A    between atoms: O_2  and  C_11
REMARK    2  A    between atoms: O_3  and  C_15
REMARK    3  A    between atoms: O_4  and  C_16
REMARK    4  A    between atoms: O_5  and  C_17
REMARK    5  A    between atoms: C_12  and  C_18
REMARK                            x       y       z     vdW  Elec       q    Type
REMARK                         _______ _______ _______ _____ _____    ______ ____
ROOT
ATOM      1  O   UNL     1     104.084 124.466 147.608  0.00  0.00    +0.000 OA
ATOM      2  O   UNL     1     106.706 125.001 146.506  0.00  0.00    +0.000 OA
ATOM      3  O   UNL     1     105.683 124.457 145.645  0.00  0.00    +0.000 OA
ATOM      4  C   UNL     1     105.412 124.737 147.052  0.00  0.00    +0.000 A 
ATOM      5  C   UNL     1     104.893 124.742 147.694  0.00  0.00    +0.000 A 
ATOM      6  C   UNL     1     105.149 125.013 148.430  0.00  0.00    +0.000 A 
ATOM      7  C   UNL     1     103.812 124.181 146.844  0.00  0.00    +0.000 A 
ATOM      8  C   UNL     1     106.187 125.005 147.148  0.00  0.00    +0.000 A 
ATOM      9  C   UNL     1     105.158 124.457 146.281  0.00  0.00    +0.000 A 
ATOM     10  C   UNL     1     104.352 124.177 146.176  0.00  0.00    +0.000 A 
ATOM     11  C   UNL     1     105.923 125.281 148.524  0.00  0.00    +0.000 A 
ATOM     12  C   UNL     1     106.442 125.277 147.883  0.00  0.00    +0.000 A 
ENDROOT
BRANCH   7  14
ATOM     13  O   UNL     1     100.710 123.116 146.480  0.00  0.00    +0.000 OA
ATOM     14  C   UNL     1     103.036 123.914 146.753  0.00  0.00    +0.000 A 
ATOM     15  C   UNL     1     102.425 124.456 146.636  0.00  0.00    +0.000 A 
ATOM     16  C   UNL     1     102.871 123.106 146.780  0.00  0.00    +0.000 A 
ATOM     17  C   UNL     1     101.649 124.190 146.545  0.00  0.00    +0.000 A 
ATOM     18  C   UNL     1     102.097 122.840 146.689  0.00  0.00    +0.000 A 
ATOM     19  C   UNL     1     101.485 123.382 146.571  0.00  0.00    +0.000 A 
ENDBRANCH   7  14
BRANCH   6  20
ATOM     20  O   UNL     1     104.630 125.017 149.072  0.00  0.00    +0.000 OA
ATOM     21  C   UNL     1     104.638 124.395 149.612  0.00  0.00    +0.000 C 
ENDBRANCH   6  20
BRANCH  10  22
ATOM     22  O   UNL     1     104.099 123.906 145.439  0.00  0.00    +0.000 OA
ATOM     23  C   UNL     1     104.648 123.768 144.840  0.00  0.00    +0.000 C 
ENDBRANCH  10  22
BRANCH  11  24
ATOM     24  O   UNL     1     106.179 125.553 149.261  0.00  0.00    +0.000 OA
ATOM     25  C   UNL     1     106.007 126.324 149.497  0.00  0.00    +0.000 C 
ENDBRANCH  11  24
BRANCH  12  26
ATOM     26  O   UNL     1     107.217 125.545 147.978  0.00  0.00    +0.000 OA
ATOM     27  C   UNL     1     107.836 125.004 148.043  0.00  0.00    +0.000 C 
ENDBRANCH  12  26
TORSDOF 5
ENDMDL
MODEL 8
REMARK VINA RESULT:      -7.3     12.310     14.193
REMARK  Name = 10429470
REMARK  5 active torsions:
REMARK  status: ('A' for Active; 'I' for Inactive)
REMARK    1  A    between atoms: O_2  and  C_11
REMARK    2  A    between atoms: O_3  and  C_15
REMARK    3  A    between atoms: O_4  and  C_16
REMARK    4  A    between atoms: O_5  and  C_17
REMARK    5  A    between atoms: C_12  and  C_18
REMARK                            x       y       z     vdW  Elec       q    Type
REMARK                         _______ _______ _______ _____ _____    ______ ____
ROOT
ATOM      1  O   UNL     1     113.537 127.852 136.151  0.00  0.00    +0.000 OA
ATOM      2  O   UNL     1     110.839 126.884 135.752  0.00  0.00    +0.000 OA
ATOM      3  O   UNL     1     111.189 128.199 135.270  0.00  0.00    +0.000 OA
ATOM      4  C   UNL     1     112.172 127.360 135.950  0.00  0.00    +0.000 A 
ATOM      5  C   UNL     1     112.936 127.244 136.238  0.00  0.00    +0.000 A 
ATOM      6  C   UNL     1     113.133 126.537 136.615  0.00  0.00    +0.000 A 
ATOM      7  C   UNL     1     113.339 128.591 135.758  0.00  0.00    +0.000 A 
ATOM      8  C   UNL     1     111.604 126.768 136.040  0.00  0.00    +0.000 A 
ATOM      9  C   UNL     1     111.955 128.091 135.555  0.00  0.00    +0.000 A 
ATOM     10  C   UNL     1     112.543 128.711 135.458  0.00  0.00    +0.000 A 
ATOM     11  C   UNL     1     112.564 125.946 136.705  0.00  0.00    +0.000 A 
ATOM     12  C   UNL     1     111.800 126.062 136.417  0.00  0.00    +0.000 A 
ENDROOT
BRANCH   7  14
ATOM     13  O   UNL     1     115.622 130.947 135.408  0.00  0.00    +0.000 OA
ATOM     14  C   UNL     1     113.910 129.180 135.670  0.00  0.00    +0.000 A 
ATOM     15  C   UNL     1     114.016 129.743 136.264  0.00  0.00    +0.000 A 
ATOM     16  C   UNL     1     114.375 129.207 134.989  0.00  0.00    +0.000 A 
ATOM     17  C   UNL     1     114.587 130.332 136.177  0.00  0.00    +0.000 A 
ATOM     18  C   UNL     1     114.945 129.795 134.901  0.00  0.00    +0.000 A 
ATOM     19  C   UNL     1     115.052 130.359 135.496  0.00  0.00    +0.000 A 
ENDBRANCH   7  14
BRANCH   6  20
ATOM     20  O   UNL     1     113.897 126.421 136.903  0.00  0.00    +0.000 OA
ATOM     21  C   UNL     1     114.424 125.938 136.492  0.00  0.00    +0.000 C 
ENDBRANCH   6  20
BRANCH  10  22
ATOM     22  O   UNL     1     112.344 129.417 135.080  0.00  0.00    +0.000 OA
ATOM     23  C   UNL     1     111.555 129.587 134.914  0.00  0.00    +0.000 C 
ENDBRANCH  10  22
BRANCH  11  24
ATOM     24  O   UNL     1     112.761 125.239 137.083  0.00  0.00    +0.000 OA
ATOM     25  C   UNL     1     112.634 125.156 137.894  0.00  0.00    +0.000 C 
ENDBRANCH  11  24
BRANCH  12  26
ATOM     26  O   UNL     1     111.232 125.470 136.507  0.00  0.00    +0.000 OA
ATOM     27  C   UNL     1     110.986 125.031 135.854  0.00  0.00    +0.000 C 
ENDBRANCH  12  26
TORSDOF 5
ENDMDL
MODEL 9
REMARK VINA RESULT:      -7.2      9.902     12.337
REMARK  Name = 10429470
REMARK  5 active torsions:
REMARK  status: ('A' for Active; 'I' for Inactive)
REMARK    1  A    between atoms: O_2  and  C_11
REMARK    2  A    between atoms: O_3  and  C_15
REMARK    3  A    between atoms: O_4  and  C_16
REMARK    4  A    between atoms: O_5  and  C_17
REMARK    5  A    between atoms: C_12  and  C_18
REMARK                            x       y       z     vdW  Elec       q    Type
REMARK                         _______ _______ _______ _____ _____    ______ ____
ROOT
ATOM      1  O   UNL     1     111.791 126.414 137.987  0.00  0.00    +0.000 OA
ATOM      2  O   UNL     1     114.354 126.232 139.318  0.00  0.00    +0.000 OA
ATOM      3  O   UNL     1     114.240 125.769 137.956  0.00  0.00    +0.000 OA
ATOM      4  C   UNL     1     113.088 126.323 138.663  0.00  0.00    +0.000 A 
ATOM      5  C   UNL     1     112.290 126.534 138.676  0.00  0.00    +0.000 A 
ATOM      6  C   UNL     1     111.962 126.865 139.357  0.00  0.00    +0.000 A 
ATOM      7  C   UNL     1     112.127 126.069 137.275  0.00  0.00    +0.000 A 
ATOM      8  C   UNL     1     113.557 126.443 139.331  0.00  0.00    +0.000 A 
ATOM      9  C   UNL     1     113.441 125.977 137.961  0.00  0.00    +0.000 A 
ATOM     10  C   UNL     1     112.957 125.849 137.261  0.00  0.00    +0.000 A 
ATOM     11  C   UNL     1     112.432 126.985 140.024  0.00  0.00    +0.000 A 
ATOM     12  C   UNL     1     113.229 126.774 140.011  0.00  0.00    +0.000 A 
ENDROOT
BRANCH   7  14
ATOM     13  O   UNL     1     110.238 125.592 134.612  0.00  0.00    +0.000 OA
ATOM     14  C   UNL     1     111.655 125.950 136.609  0.00  0.00    +0.000 A 
ATOM     15  C   UNL     1     111.247 125.239 136.514  0.00  0.00    +0.000 A 
ATOM     16  C   UNL     1     111.589 126.542 136.037  0.00  0.00    +0.000 A 
ATOM     17  C   UNL     1     110.775 125.119 135.848  0.00  0.00    +0.000 A 
ATOM     18  C   UNL     1     111.117 126.423 135.372  0.00  0.00    +0.000 A 
ATOM     19  C   UNL     1     110.709 125.711 135.277  0.00  0.00    +0.000 A 
ENDBRANCH   7  14
BRANCH   6  20
ATOM     20  O   UNL     1     111.165 127.076 139.370  0.00  0.00    +0.000 OA
ATOM     21  C   UNL     1     110.946 127.866 139.280  0.00  0.00    +0.000 C 
ENDBRANCH   6  20
BRANCH  10  22
ATOM     22  O   UNL     1     113.288 125.518 136.582  0.00  0.00    +0.000 OA
ATOM     23  C   UNL     1     114.004 125.110 136.628  0.00  0.00    +0.000 C 
ENDBRANCH  10  22
BRANCH  11  24
ATOM     24  O   UNL     1     112.103 127.317 140.705  0.00  0.00    +0.000 OA
ATOM     25  C   UNL     1     111.784 126.828 141.288  0.00  0.00    +0.000 C 
ENDBRANCH  11  24
BRANCH  12  26
ATOM     26  O   UNL     1     113.698 126.894 140.680  0.00  0.00    +0.000 OA
ATOM     27  C   UNL     1     114.262 127.496 140.686  0.00  0.00    +0.000 C 
ENDBRANCH  12  26
TORSDOF 5
ENDMDL
MODEL 10
REMARK VINA RESULT:      -7.2      6.589      7.762
REMARK  Name = 10429470
REMARK  5 active torsions:
REMARK  status: ('A' for Active; 'I' for Inactive)
REMARK    1  A    between atoms: O_2  and  C_11
REMARK    2  A    between atoms: O_3  and  C_15
REMARK    3  A    between atoms: O_4  and  C_16
REMARK    4  A    between atoms: O_5  and  C_17
REMARK    5  A    between atoms: C_12  and  C_18
REMARK                            x       y       z     vdW  Elec       q    Type
REMARK                         _______ _______ _______ _____ _____    ______ ____
ROOT
ATOM      1  O   UNL     1     103.492 130.172 142.381  0.00  0.00    +0.000 OA
ATOM      2  O   UNL     1     104.422 127.759 141.084  0.00  0.00    +0.000 OA
ATOM      3  O   UNL     1     103.445 128.581 140.411  0.00  0.00    +0.000 OA
ATOM      4  C   UNL     1     103.964 128.950 141.726  0.00  0.00    +0.000 A 
ATOM      5  C   UNL     1     103.982 129.467 142.369  0.00  0.00    +0.000 A 
ATOM      6  C   UNL     1     104.474 129.309 143.012  0.00  0.00    +0.000 A 
ATOM      7  C   UNL     1     102.977 130.343 141.713  0.00  0.00    +0.000 A 
ATOM      8  C   UNL     1     104.440 128.276 141.727  0.00  0.00    +0.000 A 
ATOM      9  C   UNL     1     103.456 129.103 141.050  0.00  0.00    +0.000 A 
ATOM     10  C   UNL     1     102.959 129.805 141.044  0.00  0.00    +0.000 A 
ATOM     11  C   UNL     1     104.949 128.634 143.012  0.00  0.00    +0.000 A 
ATOM     12  C   UNL     1     104.931 128.118 142.369  0.00  0.00    +0.000 A 
ENDROOT
BRANCH   7  14
ATOM     13  O   UNL     1     101.085 133.046 141.725  0.00  0.00    +0.000 OA
ATOM     14  C   UNL     1     102.503 131.019 141.717  0.00  0.00    +0.000 A 
ATOM     15  C   UNL     1     102.785 131.721 141.388  0.00  0.00    +0.000 A 
ATOM     16  C   UNL     1     101.748 130.992 142.048  0.00  0.00    +0.000 A 
ATOM     17  C   UNL     1     102.313 132.397 141.391  0.00  0.00    +0.000 A 
ATOM     18  C   UNL     1     101.275 131.667 142.051  0.00  0.00    +0.000 A 
ATOM     19  C   UNL     1     101.557 132.371 141.722  0.00  0.00    +0.000 A 
ENDBRANCH   7  14
BRANCH   6  20
ATOM     20  O   UNL     1     104.491 129.826 143.655  0.00  0.00    +0.000 OA
ATOM     21  C   UNL     1     105.110 130.364 143.735  0.00  0.00    +0.000 C 
ENDBRANCH   6  20
BRANCH  10  22
ATOM     22  O   UNL     1     102.468 129.960 140.400  0.00  0.00    +0.000 OA
ATOM     23  C   UNL     1     102.285 129.358 139.866  0.00  0.00    +0.000 C 
ENDBRANCH  10  22
BRANCH  11  24
ATOM     24  O   UNL     1     105.441 128.476 143.656  0.00  0.00    +0.000 OA
ATOM     25  C   UNL     1     105.177 127.989 144.267  0.00  0.00    +0.000 C 
ENDBRANCH  11  24
BRANCH  12  26
ATOM     26  O   UNL     1     105.407 127.443 142.370  0.00  0.00    +0.000 OA
ATOM     27  C   UNL     1     106.090 127.419 141.909  0.00  0.00    +0.000 C 
ENDBRANCH  12  26
TORSDOF 5
ENDMDL
