MODEL 1
REMARK VINA RESULT:      -8.1      0.000      0.000
REMARK  Name = 13915680
REMARK  4 active torsions:
REMARK  status: ('A' for Active; 'I' for Inactive)
REMARK    1  A    between atoms: O_2  and  C_14
REMARK    2  A    between atoms: O_3  and  C_18
REMARK    3  A    between atoms: O_8  and  C_24
REMARK    4  A    between atoms: C_11  and  C_13
REMARK                            x       y       z     vdW  Elec       q    Type
REMARK                         _______ _______ _______ _____ _____    ______ ____
ROOT
ATOM      1  O   UNL     1     105.099 124.382 147.502  0.00  0.00    +0.000 OA
ATOM      2  O   UNL     1     107.565 125.546 146.546  0.00  0.00    +0.000 OA
ATOM      3  O   UNL     1     106.410 125.442 145.689  0.00  0.00    +0.000 OA
ATOM      4  O   UNL     1     107.392 124.559 149.289  0.00  0.00    +0.000 OA
ATOM      5  C   UNL     1     106.319 124.957 147.031  0.00  0.00    +0.000 A 
ATOM      6  C   UNL     1     104.752 124.513 146.765  0.00  0.00    +0.000 A 
ATOM      7  C   UNL     1     105.882 124.604 147.635  0.00  0.00    +0.000 A 
ATOM      8  C   UNL     1     105.189 124.866 146.161  0.00  0.00    +0.000 A 
ATOM      9  C   UNL     1     105.973 125.089 146.294  0.00  0.00    +0.000 A 
ATOM     10  C   UNL     1     107.137 125.193 147.156  0.00  0.00    +0.000 A 
ATOM     11  C   UNL     1     106.232 124.462 148.407  0.00  0.00    +0.000 A 
ATOM     12  C   UNL     1     107.503 125.059 147.922  0.00  0.00    +0.000 A 
ATOM     13  C   UNL     1     107.048 124.691 148.551  0.00  0.00    +0.000 A 
ENDROOT
BRANCH   6  16
ATOM     14  O   UNL     1     103.522 125.399 147.416  0.00  0.00    +0.000 OA
ATOM     15  O   UNL     1     102.848 122.739 145.583  0.00  0.00    +0.000 OA
ATOM     16  C   UNL     1     103.969 124.291 146.632  0.00  0.00    +0.000 A 
ATOM     17  C   UNL     1     103.354 124.735 146.958  0.00  0.00    +0.000 A 
ATOM     18  C   UNL     1     103.800 123.626 146.174  0.00  0.00    +0.000 A 
ATOM     19  C   UNL     1     103.017 123.405 146.041  0.00  0.00    +0.000 A 
ATOM     20  C   UNL     1     102.570 124.513 146.825  0.00  0.00    +0.000 A 
ATOM     21  C   UNL     1     102.402 123.848 146.366  0.00  0.00    +0.000 A 
BRANCH  21  22
ATOM     22  O   UNL     1     101.618 123.626 146.234  0.00  0.00    +0.000 OA
ATOM     23  C   UNL     1     101.023 123.895 146.736  0.00  0.00    +0.000 C 
ENDBRANCH  21  22
ENDBRANCH   6  16
BRANCH   8  24
ATOM     24  O   UNL     1     104.843 124.998 145.424  0.00  0.00    +0.000 OA
ATOM     25  C   UNL     1     105.302 125.270 144.794  0.00  0.00    +0.000 C 
ENDBRANCH   8  24
BRANCH  12  26
ATOM     26  O   UNL     1     108.286 125.282 148.052  0.00  0.00    +0.000 OA
ATOM     27  C   UNL     1     108.882 124.712 148.056  0.00  0.00    +0.000 C 
ENDBRANCH  12  26
TORSDOF 4
ENDMDL
MODEL 2
REMARK VINA RESULT:      -8.0      6.530      8.108
REMARK  Name = 13915680
REMARK  4 active torsions:
REMARK  status: ('A' for Active; 'I' for Inactive)
REMARK    1  A    between atoms: O_2  and  C_14
REMARK    2  A    between atoms: O_3  and  C_18
REMARK    3  A    between atoms: O_8  and  C_24
REMARK    4  A    between atoms: C_11  and  C_13
REMARK                            x       y       z     vdW  Elec       q    Type
REMARK                         _______ _______ _______ _____ _____    ______ ____
ROOT
ATOM      1  O   UNL     1     103.616 129.997 142.259  0.00  0.00    +0.000 OA
ATOM      2  O   UNL     1     104.403 127.558 140.923  0.00  0.00    +0.000 OA
ATOM      3  O   UNL     1     103.519 128.504 140.287  0.00  0.00    +0.000 OA
ATOM      4  O   UNL     1     105.403 128.134 143.606  0.00  0.00    +0.000 OA
ATOM      5  C   UNL     1     104.006 128.791 141.600  0.00  0.00    +0.000 A 
ATOM      6  C   UNL     1     103.161 130.209 141.604  0.00  0.00    +0.000 A 
ATOM      7  C   UNL     1     104.038 129.289 142.257  0.00  0.00    +0.000 A 
ATOM      8  C   UNL     1     103.129 129.711 140.947  0.00  0.00    +0.000 A 
ATOM      9  C   UNL     1     103.551 129.002 140.944  0.00  0.00    +0.000 A 
ATOM     10  C   UNL     1     104.441 128.049 141.585  0.00  0.00    +0.000 A 
ATOM     11  C   UNL     1     104.508 129.079 142.946  0.00  0.00    +0.000 A 
ATOM     12  C   UNL     1     104.916 127.824 142.265  0.00  0.00    +0.000 A 
ATOM     13  C   UNL     1     104.949 128.343 142.950  0.00  0.00    +0.000 A 
ENDROOT
BRANCH   6  16
ATOM     14  O   UNL     1     103.922 131.623 141.228  0.00  0.00    +0.000 OA
ATOM     15  O   UNL     1     100.711 131.629 141.988  0.00  0.00    +0.000 OA
ATOM     16  C   UNL     1     102.739 130.917 141.606  0.00  0.00    +0.000 A 
ATOM     17  C   UNL     1     103.120 131.624 141.418  0.00  0.00    +0.000 A 
ATOM     18  C   UNL     1     101.936 130.919 141.796  0.00  0.00    +0.000 A 
ATOM     19  C   UNL     1     101.514 131.627 141.798  0.00  0.00    +0.000 A 
ATOM     20  C   UNL     1     102.697 132.334 141.420  0.00  0.00    +0.000 A 
ATOM     21  C   UNL     1     101.895 132.334 141.610  0.00  0.00    +0.000 A 
BRANCH  21  22
ATOM     22  O   UNL     1     101.472 133.044 141.611  0.00  0.00    +0.000 OA
ATOM     23  C   UNL     1     101.873 133.762 141.558  0.00  0.00    +0.000 C 
ENDBRANCH  21  22
ENDBRANCH   6  16
BRANCH   8  24
ATOM     24  O   UNL     1     102.675 129.922 140.291  0.00  0.00    +0.000 OA
ATOM     25  C   UNL     1     102.373 129.338 139.793  0.00  0.00    +0.000 C 
ENDBRANCH   8  24
BRANCH  12  26
ATOM     26  O   UNL     1     105.337 127.115 142.260  0.00  0.00    +0.000 OA
ATOM     27  C   UNL     1     106.151 127.119 142.121  0.00  0.00    +0.000 C 
ENDBRANCH  12  26
TORSDOF 4
ENDMDL
MODEL 3
REMARK VINA RESULT:      -8.0      1.049      2.189
REMARK  Name = 13915680
REMARK  4 active torsions:
REMARK  status: ('A' for Active; 'I' for Inactive)
REMARK    1  A    between atoms: O_2  and  C_14
REMARK    2  A    between atoms: O_3  and  C_18
REMARK    3  A    between atoms: O_8  and  C_24
REMARK    4  A    between atoms: C_11  and  C_13
REMARK                            x       y       z     vdW  Elec       q    Type
REMARK                         _______ _______ _______ _____ _____    ______ ____
ROOT
ATOM      1  O   UNL     1     104.463 124.523 146.422  0.00  0.00    +0.000 OA
ATOM      2  O   UNL     1     106.186 125.194 148.643  0.00  0.00    +0.000 OA
ATOM      3  O   UNL     1     104.870 124.646 148.860  0.00  0.00    +0.000 OA
ATOM      4  O   UNL     1     107.108 125.625 145.905  0.00  0.00    +0.000 OA
ATOM      5  C   UNL     1     105.316 124.855 147.519  0.00  0.00    +0.000 A 
ATOM      6  C   UNL     1     103.881 124.273 146.950  0.00  0.00    +0.000 A 
ATOM      7  C   UNL     1     105.180 124.814 146.706  0.00  0.00    +0.000 A 
ATOM      8  C   UNL     1     104.016 124.314 147.763  0.00  0.00    +0.000 A 
ATOM      9  C   UNL     1     104.734 124.605 148.047  0.00  0.00    +0.000 A 
ATOM     10  C   UNL     1     106.060 125.157 147.828  0.00  0.00    +0.000 A 
ATOM     11  C   UNL     1     105.779 125.072 146.145  0.00  0.00    +0.000 A 
ATOM     12  C   UNL     1     106.669 125.419 147.283  0.00  0.00    +0.000 A 
ATOM     13  C   UNL     1     106.528 125.376 146.436  0.00  0.00    +0.000 A 
ENDROOT
BRANCH   6  16
ATOM     14  O   UNL     1     103.834 122.828 146.155  0.00  0.00    +0.000 OA
ATOM     15  O   UNL     1     101.057 124.551 146.608  0.00  0.00    +0.000 OA
ATOM     16  C   UNL     1     103.164 123.981 146.666  0.00  0.00    +0.000 A 
ATOM     17  C   UNL     1     103.140 123.259 146.268  0.00  0.00    +0.000 A 
ATOM     18  C   UNL     1     102.469 124.412 146.779  0.00  0.00    +0.000 A 
ATOM     19  C   UNL     1     101.752 124.121 146.495  0.00  0.00    +0.000 A 
ATOM     20  C   UNL     1     102.422 122.967 145.984  0.00  0.00    +0.000 A 
ATOM     21  C   UNL     1     101.728 123.398 146.097  0.00  0.00    +0.000 A 
BRANCH  21  22
ATOM     22  O   UNL     1     101.010 123.106 145.813  0.00  0.00    +0.000 OA
ATOM     23  C   UNL     1     100.978 122.739 145.076  0.00  0.00    +0.000 C 
ENDBRANCH  21  22
ENDBRANCH   6  16
BRANCH   8  24
ATOM     24  O   UNL     1     103.434 124.064 148.291  0.00  0.00    +0.000 OA
ATOM     25  C   UNL     1     103.475 124.284 149.085  0.00  0.00    +0.000 C 
ENDBRANCH   8  24
BRANCH  12  26
ATOM     26  O   UNL     1     107.386 125.710 147.570  0.00  0.00    +0.000 OA
ATOM     27  C   UNL     1     108.024 125.198 147.682  0.00  0.00    +0.000 C 
ENDBRANCH  12  26
TORSDOF 4
ENDMDL
MODEL 4
REMARK VINA RESULT:      -7.9      1.404      3.232
REMARK  Name = 13915680
REMARK  4 active torsions:
REMARK  status: ('A' for Active; 'I' for Inactive)
REMARK    1  A    between atoms: O_2  and  C_14
REMARK    2  A    between atoms: O_3  and  C_18
REMARK    3  A    between atoms: O_8  and  C_24
REMARK    4  A    between atoms: C_11  and  C_13
REMARK                            x       y       z     vdW  Elec       q    Type
REMARK                         _______ _______ _______ _____ _____    ______ ____
ROOT
ATOM      1  O   UNL     1     106.791 125.333 146.119  0.00  0.00    +0.000 OA
ATOM      2  O   UNL     1     105.677 124.682 148.705  0.00  0.00    +0.000 OA
ATOM      3  O   UNL     1     104.827 124.879 147.556  0.00  0.00    +0.000 OA
ATOM      4  O   UNL     1     108.569 124.949 148.393  0.00  0.00    +0.000 OA
ATOM      5  C   UNL     1     106.242 125.011 147.398  0.00  0.00    +0.000 A 
ATOM      6  C   UNL     1     106.031 125.352 145.797  0.00  0.00    +0.000 A 
ATOM      7  C   UNL     1     106.896 125.162 146.919  0.00  0.00    +0.000 A 
ATOM      8  C   UNL     1     105.377 125.201 146.276  0.00  0.00    +0.000 A 
ATOM      9  C   UNL     1     105.482 125.030 147.077  0.00  0.00    +0.000 A 
ATOM     10  C   UNL     1     106.338 124.832 148.234  0.00  0.00    +0.000 A 
ATOM     11  C   UNL     1     107.693 125.145 147.242  0.00  0.00    +0.000 A 
ATOM     12  C   UNL     1     107.126 124.811 148.574  0.00  0.00    +0.000 A 
ATOM     13  C   UNL     1     107.808 124.968 148.074  0.00  0.00    +0.000 A 
ENDROOT
BRANCH   6  16
ATOM     14  O   UNL     1     106.267 124.175 144.665  0.00  0.00    +0.000 OA
ATOM     15  O   UNL     1     105.374 127.210 143.728  0.00  0.00    +0.000 OA
ATOM     16  C   UNL     1     105.926 125.522 144.998  0.00  0.00    +0.000 A 
ATOM     17  C   UNL     1     106.043 124.934 144.432  0.00  0.00    +0.000 A 
ATOM     18  C   UNL     1     105.703 126.281 144.762  0.00  0.00    +0.000 A 
ATOM     19  C   UNL     1     105.597 126.452 143.963  0.00  0.00    +0.000 A 
ATOM     20  C   UNL     1     105.938 125.104 143.631  0.00  0.00    +0.000 A 
ATOM     21  C   UNL     1     105.715 125.863 143.397  0.00  0.00    +0.000 A 
BRANCH  21  22
ATOM     22  O   UNL     1     105.610 126.033 142.596  0.00  0.00    +0.000 OA
ATOM     23  C   UNL     1     106.006 125.591 142.025  0.00  0.00    +0.000 C 
ENDBRANCH  21  22
ENDBRANCH   6  16
BRANCH   8  24
ATOM     24  O   UNL     1     104.617 125.220 145.956  0.00  0.00    +0.000 OA
ATOM     25  C   UNL     1     103.962 125.075 146.436  0.00  0.00    +0.000 C 
ENDBRANCH   8  24
BRANCH  12  26
ATOM     26  O   UNL     1     107.228 124.640 149.374  0.00  0.00    +0.000 OA
ATOM     27  C   UNL     1     107.417 123.872 149.612  0.00  0.00    +0.000 C 
ENDBRANCH  12  26
TORSDOF 4
ENDMDL
MODEL 5
REMARK VINA RESULT:      -7.9      0.915      4.696
REMARK  Name = 13915680
REMARK  4 active torsions:
REMARK  status: ('A' for Active; 'I' for Inactive)
REMARK    1  A    between atoms: O_2  and  C_14
REMARK    2  A    between atoms: O_3  and  C_18
REMARK    3  A    between atoms: O_8  and  C_24
REMARK    4  A    between atoms: C_11  and  C_13
REMARK                            x       y       z     vdW  Elec       q    Type
REMARK                         _______ _______ _______ _____ _____    ______ ____
ROOT
ATOM      1  O   UNL     1     104.498 124.298 146.788  0.00  0.00    +0.000 OA
ATOM      2  O   UNL     1     101.807 125.094 147.477  0.00  0.00    +0.000 OA
ATOM      3  O   UNL     1     102.948 125.842 147.946  0.00  0.00    +0.000 OA
ATOM      4  O   UNL     1     102.243 122.740 145.804  0.00  0.00    +0.000 OA
ATOM      5  C   UNL     1     103.167 124.691 147.128  0.00  0.00    +0.000 A 
ATOM      6  C   UNL     1     104.796 124.934 147.220  0.00  0.00    +0.000 A 
ATOM      7  C   UNL     1     103.684 124.176 146.742  0.00  0.00    +0.000 A 
ATOM      8  C   UNL     1     104.280 125.449 147.606  0.00  0.00    +0.000 A 
ATOM      9  C   UNL     1     103.464 125.327 147.560  0.00  0.00    +0.000 A 
ATOM     10  C   UNL     1     102.316 124.575 147.088  0.00  0.00    +0.000 A 
ATOM     11  C   UNL     1     103.385 123.509 146.289  0.00  0.00    +0.000 A 
ATOM     12  C   UNL     1     102.000 123.914 146.639  0.00  0.00    +0.000 A 
ATOM     13  C   UNL     1     102.538 123.377 146.237  0.00  0.00    +0.000 A 
ENDROOT
BRANCH   6  16
ATOM     14  O   UNL     1     105.684 124.149 148.368  0.00  0.00    +0.000 OA
ATOM     15  O   UNL     1     107.167 126.208 146.259  0.00  0.00    +0.000 OA
ATOM     16  C   UNL     1     105.610 125.056 147.267  0.00  0.00    +0.000 A 
ATOM     17  C   UNL     1     106.054 124.664 147.841  0.00  0.00    +0.000 A 
ATOM     18  C   UNL     1     105.982 125.571 146.740  0.00  0.00    +0.000 A 
ATOM     19  C   UNL     1     106.796 125.693 146.786  0.00  0.00    +0.000 A 
ATOM     20  C   UNL     1     106.869 124.786 147.887  0.00  0.00    +0.000 A 
ATOM     21  C   UNL     1     107.240 125.300 147.360  0.00  0.00    +0.000 A 
BRANCH  21  22
ATOM     22  O   UNL     1     108.055 125.422 147.406  0.00  0.00    +0.000 OA
ATOM     23  C   UNL     1     108.505 124.997 147.950  0.00  0.00    +0.000 C 
ENDBRANCH  21  22
ENDBRANCH   6  16
BRANCH   8  24
ATOM     24  O   UNL     1     104.577 126.086 148.038  0.00  0.00    +0.000 OA
ATOM     25  C   UNL     1     104.101 126.743 148.186  0.00  0.00    +0.000 C 
ENDBRANCH   8  24
BRANCH  12  26
ATOM     26  O   UNL     1     101.184 123.794 146.595  0.00  0.00    +0.000 OA
ATOM     27  C   UNL     1     100.827 123.213 147.058  0.00  0.00    +0.000 C 
ENDBRANCH  12  26
TORSDOF 4
ENDMDL
MODEL 6
REMARK VINA RESULT:      -7.8     12.280     13.788
REMARK  Name = 13915680
REMARK  4 active torsions:
REMARK  status: ('A' for Active; 'I' for Inactive)
REMARK    1  A    between atoms: O_2  and  C_14
REMARK    2  A    between atoms: O_3  and  C_18
REMARK    3  A    between atoms: O_8  and  C_24
REMARK    4  A    between atoms: C_11  and  C_13
REMARK                            x       y       z     vdW  Elec       q    Type
REMARK                         _______ _______ _______ _____ _____    ______ ____
ROOT
ATOM      1  O   UNL     1     113.403 126.781 136.659  0.00  0.00    +0.000 OA
ATOM      2  O   UNL     1     111.300 124.926 135.962  0.00  0.00    +0.000 OA
ATOM      3  O   UNL     1     111.151 126.341 135.731  0.00  0.00    +0.000 OA
ATOM      4  O   UNL     1     113.775 123.935 137.155  0.00  0.00    +0.000 OA
ATOM      5  C   UNL     1     112.364 125.863 136.315  0.00  0.00    +0.000 A 
ATOM      6  C   UNL     1     112.941 127.407 136.385  0.00  0.00    +0.000 A 
ATOM      7  C   UNL     1     113.115 126.009 136.624  0.00  0.00    +0.000 A 
ATOM      8  C   UNL     1     112.190 127.261 136.075  0.00  0.00    +0.000 A 
ATOM      9  C   UNL     1     111.902 126.488 136.040  0.00  0.00    +0.000 A 
ATOM     10  C   UNL     1     112.052 125.062 136.273  0.00  0.00    +0.000 A 
ATOM     11  C   UNL     1     113.606 125.365 136.914  0.00  0.00    +0.000 A 
ATOM     12  C   UNL     1     112.528 124.407 136.557  0.00  0.00    +0.000 A 
ATOM     13  C   UNL     1     113.311 124.559 136.880  0.00  0.00    +0.000 A 
ENDROOT
BRANCH   6  16
ATOM     14  O   UNL     1     112.851 128.258 137.795  0.00  0.00    +0.000 OA
ATOM     15  O   UNL     1     114.184 129.645 135.114  0.00  0.00    +0.000 OA
ATOM     16  C   UNL     1     113.229 128.179 136.419  0.00  0.00    +0.000 A 
ATOM     17  C   UNL     1     113.184 128.604 137.125  0.00  0.00    +0.000 A 
ATOM     18  C   UNL     1     113.562 128.526 135.749  0.00  0.00    +0.000 A 
ATOM     19  C   UNL     1     113.850 129.298 135.784  0.00  0.00    +0.000 A 
ATOM     20  C   UNL     1     113.472 129.377 137.160  0.00  0.00    +0.000 A 
ATOM     21  C   UNL     1     113.805 129.723 136.489  0.00  0.00    +0.000 A 
BRANCH  21  22
ATOM     22  O   UNL     1     114.094 130.496 136.525  0.00  0.00    +0.000 OA
ATOM     23  C   UNL     1     113.879 130.988 137.150  0.00  0.00    +0.000 C 
ENDBRANCH  21  22
ENDBRANCH   6  16
BRANCH   8  24
ATOM     24  O   UNL     1     111.728 127.886 135.800  0.00  0.00    +0.000 OA
ATOM     25  C   UNL     1     111.098 127.740 135.288  0.00  0.00    +0.000 C 
ENDBRANCH   8  24
BRANCH  12  26
ATOM     26  O   UNL     1     112.238 123.636 136.521  0.00  0.00    +0.000 OA
ATOM     27  C   UNL     1     111.921 123.282 137.196  0.00  0.00    +0.000 C 
ENDBRANCH  12  26
TORSDOF 4
ENDMDL
MODEL 7
REMARK VINA RESULT:      -7.8     11.421     12.894
REMARK  Name = 13915680
REMARK  4 active torsions:
REMARK  status: ('A' for Active; 'I' for Inactive)
REMARK    1  A    between atoms: O_2  and  C_14
REMARK    2  A    between atoms: O_3  and  C_18
REMARK    3  A    between atoms: O_8  and  C_24
REMARK    4  A    between atoms: C_11  and  C_13
REMARK                            x       y       z     vdW  Elec       q    Type
REMARK                         _______ _______ _______ _____ _____    ______ ____
ROOT
ATOM      1  O   UNL     1     110.019 126.960 136.279  0.00  0.00    +0.000 OA
ATOM      2  O   UNL     1     110.648 129.555 135.175  0.00  0.00    +0.000 OA
ATOM      3  O   UNL     1     111.687 128.599 135.469  0.00  0.00    +0.000 OA
ATOM      4  O   UNL     1     107.867 128.838 135.710  0.00  0.00    +0.000 OA
ATOM      5  C   UNL     1     110.328 128.243 135.733  0.00  0.00    +0.000 A 
ATOM      6  C   UNL     1     110.821 126.769 136.285  0.00  0.00    +0.000 A 
ATOM      7  C   UNL     1     109.772 127.697 136.003  0.00  0.00    +0.000 A 
ATOM      8  C   UNL     1     111.378 127.315 136.015  0.00  0.00    +0.000 A 
ATOM      9  C   UNL     1     111.131 128.053 135.739  0.00  0.00    +0.000 A 
ATOM     10  C   UNL     1     110.084 129.015 135.443  0.00  0.00    +0.000 A 
ATOM     11  C   UNL     1     108.933 127.884 136.001  0.00  0.00    +0.000 A 
ATOM     12  C   UNL     1     109.250 129.220 135.434  0.00  0.00    +0.000 A 
ATOM     13  C   UNL     1     108.671 128.650 135.715  0.00  0.00    +0.000 A 
ENDROOT
BRANCH   6  16
ATOM     14  O   UNL     1     110.806 125.463 135.276  0.00  0.00    +0.000 OA
ATOM     15  O   UNL     1     111.823 125.125 138.398  0.00  0.00    +0.000 OA
ATOM     16  C   UNL     1     111.068 126.032 136.561  0.00  0.00    +0.000 A 
ATOM     17  C   UNL     1     111.060 125.379 136.057  0.00  0.00    +0.000 A 
ATOM     18  C   UNL     1     111.322 125.947 137.341  0.00  0.00    +0.000 A 
ATOM     19  C   UNL     1     111.569 125.210 137.617  0.00  0.00    +0.000 A 
ATOM     20  C   UNL     1     111.307 124.641 136.332  0.00  0.00    +0.000 A 
ATOM     21  C   UNL     1     111.561 124.557 137.113  0.00  0.00    +0.000 A 
BRANCH  21  22
ATOM     22  O   UNL     1     111.808 123.819 137.389  0.00  0.00    +0.000 OA
ATOM     23  C   UNL     1     112.156 123.281 136.871  0.00  0.00    +0.000 C 
ENDBRANCH  21  22
ENDBRANCH   6  16
BRANCH   8  24
ATOM     24  O   UNL     1     112.180 127.125 136.021  0.00  0.00    +0.000 OA
ATOM     25  C   UNL     1     112.746 127.723 136.072  0.00  0.00    +0.000 C 
ENDBRANCH   8  24
BRANCH  12  26
ATOM     26  O   UNL     1     109.007 129.958 135.157  0.00  0.00    +0.000 OA
ATOM     27  C   UNL     1     108.792 130.549 135.692  0.00  0.00    +0.000 C 
ENDBRANCH  12  26
TORSDOF 4
ENDMDL
MODEL 8
REMARK VINA RESULT:      -7.8      9.403     10.874
REMARK  Name = 13915680
REMARK  4 active torsions:
REMARK  status: ('A' for Active; 'I' for Inactive)
REMARK    1  A    between atoms: O_2  and  C_14
REMARK    2  A    between atoms: O_3  and  C_18
REMARK    3  A    between atoms: O_8  and  C_24
REMARK    4  A    between atoms: C_11  and  C_13
REMARK                            x       y       z     vdW  Elec       q    Type
REMARK                         _______ _______ _______ _____ _____    ______ ____
ROOT
ATOM      1  O   UNL     1     111.615 131.597 145.216  0.00  0.00    +0.000 OA
ATOM      2  O   UNL     1     112.095 132.090 142.410  0.00  0.00    +0.000 OA
ATOM      3  O   UNL     1     112.034 133.176 143.357  0.00  0.00    +0.000 OA
ATOM      4  O   UNL     1     111.725 129.354 143.362  0.00  0.00    +0.000 OA
ATOM      5  C   UNL     1     111.852 131.840 143.829  0.00  0.00    +0.000 A 
ATOM      6  C   UNL     1     111.657 132.408 145.366  0.00  0.00    +0.000 A 
ATOM      7  C   UNL     1     111.712 131.313 144.448  0.00  0.00    +0.000 A 
ATOM      8  C   UNL     1     111.797 132.934 144.746  0.00  0.00    +0.000 A 
ATOM      9  C   UNL     1     111.894 132.650 143.977  0.00  0.00    +0.000 A 
ATOM     10  C   UNL     1     111.956 131.556 143.023  0.00  0.00    +0.000 A 
ATOM     11  C   UNL     1     111.666 130.467 144.306  0.00  0.00    +0.000 A 
ATOM     12  C   UNL     1     111.913 130.714 142.862  0.00  0.00    +0.000 A 
ATOM     13  C   UNL     1     111.767 130.165 143.508  0.00  0.00    +0.000 A 
ENDROOT
BRANCH   6  16
ATOM     14  O   UNL     1     112.892 132.288 146.452  0.00  0.00    +0.000 OA
ATOM     15  O   UNL     1     110.031 133.665 147.352  0.00  0.00    +0.000 OA
ATOM     16  C   UNL     1     111.559 132.692 146.133  0.00  0.00    +0.000 A 
ATOM     17  C   UNL     1     112.177 132.632 146.677  0.00  0.00    +0.000 A 
ATOM     18  C   UNL     1     110.844 133.036 146.359  0.00  0.00    +0.000 A 
ATOM     19  C   UNL     1     110.746 133.320 147.126  0.00  0.00    +0.000 A 
ATOM     20  C   UNL     1     112.079 132.916 147.446  0.00  0.00    +0.000 A 
ATOM     21  C   UNL     1     111.364 133.260 147.670  0.00  0.00    +0.000 A 
BRANCH  21  22
ATOM     22  O   UNL     1     111.267 133.545 148.439  0.00  0.00    +0.000 OA
ATOM     23  C   UNL     1     111.791 133.316 149.032  0.00  0.00    +0.000 C 
ENDBRANCH  21  22
ENDBRANCH   6  16
BRANCH   8  24
ATOM     24  O   UNL     1     111.839 133.745 144.894  0.00  0.00    +0.000 OA
ATOM     25  C   UNL     1     111.839 134.280 144.266  0.00  0.00    +0.000 C 
ENDBRANCH   8  24
BRANCH  12  26
ATOM     26  O   UNL     1     112.011 130.432 142.093  0.00  0.00    +0.000 OA
ATOM     27  C   UNL     1     112.730 130.098 141.864  0.00  0.00    +0.000 C 
ENDBRANCH  12  26
TORSDOF 4
ENDMDL
MODEL 9
REMARK VINA RESULT:      -7.8      1.925      2.464
REMARK  Name = 13915680
REMARK  4 active torsions:
REMARK  status: ('A' for Active; 'I' for Inactive)
REMARK    1  A    between atoms: O_2  and  C_14
REMARK    2  A    between atoms: O_3  and  C_18
REMARK    3  A    between atoms: O_8  and  C_24
REMARK    4  A    between atoms: C_11  and  C_13
REMARK                            x       y       z     vdW  Elec       q    Type
REMARK                         _______ _______ _______ _____ _____    ______ ____
ROOT
ATOM      1  O   UNL     1     103.983 125.231 146.685  0.00  0.00    +0.000 OA
ATOM      2  O   UNL     1     106.083 124.500 144.840  0.00  0.00    +0.000 OA
ATOM      3  O   UNL     1     105.045 123.564 145.196  0.00  0.00    +0.000 OA
ATOM      4  O   UNL     1     106.045 127.174 146.013  0.00  0.00    +0.000 OA
ATOM      5  C   UNL     1     105.021 124.871 145.773  0.00  0.00    +0.000 A 
ATOM      6  C   UNL     1     103.651 124.480 146.605  0.00  0.00    +0.000 A 
ATOM      7  C   UNL     1     104.667 125.427 146.270  0.00  0.00    +0.000 A 
ATOM      8  C   UNL     1     104.005 123.924 146.109  0.00  0.00    +0.000 A 
ATOM      9  C   UNL     1     104.691 124.120 145.693  0.00  0.00    +0.000 A 
ATOM     10  C   UNL     1     105.736 125.062 145.334  0.00  0.00    +0.000 A 
ATOM     11  C   UNL     1     105.003 126.213 146.362  0.00  0.00    +0.000 A 
ATOM     12  C   UNL     1     106.085 125.843 145.414  0.00  0.00    +0.000 A 
ATOM     13  C   UNL     1     105.716 126.422 145.931  0.00  0.00    +0.000 A 
ENDROOT
BRANCH   6  16
ATOM     14  O   UNL     1     103.738 124.113 148.212  0.00  0.00    +0.000 OA
ATOM     15  O   UNL     1     100.824 124.065 146.663  0.00  0.00    +0.000 OA
ATOM     16  C   UNL     1     102.966 124.285 147.021  0.00  0.00    +0.000 A 
ATOM     17  C   UNL     1     103.010 124.101 147.824  0.00  0.00    +0.000 A 
ATOM     18  C   UNL     1     102.238 124.272 146.634  0.00  0.00    +0.000 A 
ATOM     19  C   UNL     1     101.553 124.077 147.050  0.00  0.00    +0.000 A 
ATOM     20  C   UNL     1     102.324 123.905 148.241  0.00  0.00    +0.000 A 
ATOM     21  C   UNL     1     101.596 123.893 147.853  0.00  0.00    +0.000 A 
BRANCH  21  22
ATOM     22  O   UNL     1     100.911 123.697 148.270  0.00  0.00    +0.000 OA
ATOM     23  C   UNL     1     100.953 123.188 148.916  0.00  0.00    +0.000 C 
ENDBRANCH  21  22
ENDBRANCH   6  16
BRANCH   8  24
ATOM     24  O   UNL     1     103.674 123.173 146.028  0.00  0.00    +0.000 OA
ATOM     25  C   UNL     1     103.791 122.743 145.334  0.00  0.00    +0.000 C 
ENDBRANCH   8  24
BRANCH  12  26
ATOM     26  O   UNL     1     106.770 126.036 144.997  0.00  0.00    +0.000 OA
ATOM     27  C   UNL     1     106.728 126.539 144.345  0.00  0.00    +0.000 C 
ENDBRANCH  12  26
TORSDOF 4
ENDMDL
MODEL 10
REMARK VINA RESULT:      -7.7      1.143      4.383
REMARK  Name = 13915680
REMARK  4 active torsions:
REMARK  status: ('A' for Active; 'I' for Inactive)
REMARK    1  A    between atoms: O_2  and  C_14
REMARK    2  A    between atoms: O_3  and  C_18
REMARK    3  A    between atoms: O_8  and  C_24
REMARK    4  A    between atoms: C_11  and  C_13
REMARK                            x       y       z     vdW  Elec       q    Type
REMARK                         _______ _______ _______ _____ _____    ______ ____
ROOT
ATOM      1  O   UNL     1     104.493 124.887 146.981  0.00  0.00    +0.000 OA
ATOM      2  O   UNL     1     103.156 122.869 145.404  0.00  0.00    +0.000 OA
ATOM      3  O   UNL     1     104.382 123.478 144.950  0.00  0.00    +0.000 OA
ATOM      4  O   UNL     1     102.021 123.701 147.963  0.00  0.00    +0.000 OA
ATOM      5  C   UNL     1     103.831 123.889 146.203  0.00  0.00    +0.000 A 
ATOM      6  C   UNL     1     105.082 124.946 146.406  0.00  0.00    +0.000 A 
ATOM      7  C   UNL     1     103.868 124.359 146.880  0.00  0.00    +0.000 A 
ATOM      8  C   UNL     1     105.044 124.476 145.729  0.00  0.00    +0.000 A 
ATOM      9  C   UNL     1     104.419 123.947 145.627  0.00  0.00    +0.000 A 
ATOM     10  C   UNL     1     103.184 123.334 146.084  0.00  0.00    +0.000 A 
ATOM     11  C   UNL     1     103.261 124.306 147.487  0.00  0.00    +0.000 A 
ATOM     12  C   UNL     1     102.569 123.268 146.680  0.00  0.00    +0.000 A 
ATOM     13  C   UNL     1     102.608 123.758 147.386  0.00  0.00    +0.000 A 
ENDROOT
BRANCH   6  16
ATOM     14  O   UNL     1     104.850 126.558 146.141  0.00  0.00    +0.000 OA
ATOM     15  O   UNL     1     107.814 125.449 147.078  0.00  0.00    +0.000 OA
ATOM     16  C   UNL     1     105.706 125.474 146.508  0.00  0.00    +0.000 A 
ATOM     17  C   UNL     1     105.591 126.280 146.375  0.00  0.00    +0.000 A 
ATOM     18  C   UNL     1     106.448 125.197 146.742  0.00  0.00    +0.000 A 
ATOM     19  C   UNL     1     107.072 125.725 146.843  0.00  0.00    +0.000 A 
ATOM     20  C   UNL     1     106.216 126.809 146.476  0.00  0.00    +0.000 A 
ATOM     21  C   UNL     1     106.957 126.531 146.711  0.00  0.00    +0.000 A 
BRANCH  21  22
ATOM     22  O   UNL     1     107.582 127.061 146.812  0.00  0.00    +0.000 OA
ATOM     23  C   UNL     1     107.528 127.826 146.512  0.00  0.00    +0.000 C 
ENDBRANCH  21  22
ENDBRANCH   6  16
BRANCH   8  24
ATOM     24  O   UNL     1     105.632 124.535 145.153  0.00  0.00    +0.000 OA
ATOM     25  C   UNL     1     105.494 124.250 144.391  0.00  0.00    +0.000 C 
ENDBRANCH   8  24
BRANCH  12  26
ATOM     26  O   UNL     1     101.945 122.739 146.576  0.00  0.00    +0.000 OA
ATOM     27  C   UNL     1     101.216 123.010 146.300  0.00  0.00    +0.000 C 
ENDBRANCH  12  26
TORSDOF 4
ENDMDL
