MODEL 1
REMARK VINA RESULT:     -10.1      0.000      0.000
REMARK  Name = 124578359
REMARK  7 active torsions:
REMARK  status: ('A' for Active; 'I' for Inactive)
REMARK    1  A    between atoms: O_4  and  C_20
REMARK    2  A    between atoms: O_4  and  C_26
REMARK    3  A    between atoms: O_6  and  C_22
REMARK    4  A    between atoms: O_6  and  C_27
REMARK    5  A    between atoms: C_14  and  C_23
REMARK    6  A    between atoms: C_19  and  C_24
REMARK    7  A    between atoms: C_25  and  C_29
REMARK                            x       y       z     vdW  Elec       q    Type
REMARK                         _______ _______ _______ _____ _____    ______ ____
ROOT
ATOM      1  O   UNL     1     111.654 129.641 136.830  0.00  0.00    +0.000 OA
ATOM      2  O   UNL     1     113.221 131.520 137.212  0.00  0.00    +0.000 OA
ATOM      3  C   UNL     1     112.468 129.503 136.851  0.00  0.00    +0.000 C 
ATOM      4  C   UNL     1     110.206 131.332 137.021  0.00  0.00    +0.000 A 
ATOM      5  C   UNL     1     112.989 130.128 136.978  0.00  0.00    +0.000 C 
ATOM      6  C   UNL     1     111.363 130.406 136.935  0.00  0.00    +0.000 A 
ATOM      7  C   UNL     1     111.886 131.032 137.063  0.00  0.00    +0.000 A 
ATOM      8  C   UNL     1     110.514 130.537 136.911  0.00  0.00    +0.000 A 
ATOM      9  C   UNL     1     112.699 130.893 137.084  0.00  0.00    +0.000 C 
ATOM     10  C   UNL     1     110.749 131.983 137.153  0.00  0.00    +0.000 A 
ATOM     11  C   UNL     1     111.595 131.833 137.174  0.00  0.00    +0.000 A 
ENDROOT
BRANCH   3  13
ATOM     12  C   UNL     1     113.340 127.209 136.533  0.00  0.00    +0.000 A 
ATOM     13  C   UNL     1     112.759 128.738 136.745  0.00  0.00    +0.000 A 
ATOM     14  C   UNL     1     113.148 127.475 137.290  0.00  0.00    +0.000 A 
ATOM     15  C   UNL     1     113.242 127.706 135.883  0.00  0.00    +0.000 A 
ATOM     16  C   UNL     1     112.858 128.240 137.396  0.00  0.00    +0.000 A 
ATOM     17  C   UNL     1     112.951 128.470 135.989  0.00  0.00    +0.000 A 
BRANCH  12  18
ATOM     18  O   UNL     1     113.631 126.444 136.427  0.00  0.00    +0.000 OA
BRANCH  18  27
ATOM     19  O   UNL     1     112.345 125.870 136.186  0.00  0.00    +0.000 OA
ATOM     20  O   UNL     1     113.127 123.721 137.131  0.00  0.00    +0.000 OA
ATOM     21  O   UNL     1     111.581 123.863 136.574  0.00  0.00    +0.000 OA
ATOM     22  O   UNL     1     114.152 125.011 137.058  0.00  0.00    +0.000 OA
ATOM     23  C   UNL     1     112.866 124.437 136.816  0.00  0.00    +0.000 C 
ATOM     24  C   UNL     1     112.094 124.508 136.538  0.00  0.00    +0.000 C 
ATOM     25  C   UNL     1     113.380 125.082 136.780  0.00  0.00    +0.000 C 
ATOM     26  C   UNL     1     111.833 125.224 136.223  0.00  0.00    +0.000 C 
ATOM     27  C   UNL     1     113.119 125.798 136.464  0.00  0.00    +0.000 C 
BRANCH  26  29
ATOM     28  O   UNL     1     110.923 125.523 135.162  0.00  0.00    +0.000 OA
ATOM     29  C   UNL     1     111.060 125.296 135.944  0.00  0.00    +0.000 C 
ENDBRANCH  26  29
ENDBRANCH  18  27
ENDBRANCH  12  18
ENDBRANCH   3  13
BRANCH   4  30
ATOM     30  O   UNL     1     109.392 131.467 136.999  0.00  0.00    +0.000 OA
BRANCH  30  36
ATOM     31  O   UNL     1     109.411 131.996 135.627  0.00  0.00    +0.000 OA
ATOM     32  O   UNL     1     107.297 131.783 135.429  0.00  0.00    +0.000 OA
ATOM     33  O   UNL     1     107.638 131.367 136.634  0.00  0.00    +0.000 OA
ATOM     34  C   UNL     1     108.106 131.921 135.356  0.00  0.00    +0.000 C 
ATOM     35  C   UNL     1     108.223 131.643 136.123  0.00  0.00    +0.000 C 
ATOM     36  C   UNL     1     109.031 131.689 136.291  0.00  0.00    +0.000 C 
ATOM     37  C   UNL     1     108.840 132.140 135.049  0.00  0.00    +0.000 C 
BRANCH  34  39
ATOM     38  O   UNL     1     106.925 132.235 134.614  0.00  0.00    +0.000 OA
ATOM     39  C   UNL     1     107.745 132.143 134.649  0.00  0.00    +0.000 C 
ENDBRANCH  34  39
ENDBRANCH  30  36
ENDBRANCH   4  30
TORSDOF 7
ENDMDL
MODEL 2
REMARK VINA RESULT:      -9.6      1.756      7.162
REMARK  Name = 124578359
REMARK  7 active torsions:
REMARK  status: ('A' for Active; 'I' for Inactive)
REMARK    1  A    between atoms: O_4  and  C_20
REMARK    2  A    between atoms: O_4  and  C_26
REMARK    3  A    between atoms: O_6  and  C_22
REMARK    4  A    between atoms: O_6  and  C_27
REMARK    5  A    between atoms: C_14  and  C_23
REMARK    6  A    between atoms: C_19  and  C_24
REMARK    7  A    between atoms: C_25  and  C_29
REMARK                            x       y       z     vdW  Elec       q    Type
REMARK                         _______ _______ _______ _____ _____    ______ ____
ROOT
ATOM      1  O   UNL     1     110.432 127.190 136.259  0.00  0.00    +0.000 OA
ATOM      2  O   UNL     1     109.476 125.608 134.612  0.00  0.00    +0.000 OA
ATOM      3  C   UNL     1     109.868 127.450 135.716  0.00  0.00    +0.000 C 
ATOM      4  C   UNL     1     111.527 125.324 136.821  0.00  0.00    +0.000 A 
ATOM      5  C   UNL     1     109.549 126.923 135.168  0.00  0.00    +0.000 C 
ATOM      6  C   UNL     1     110.678 126.403 136.253  0.00  0.00    +0.000 A 
ATOM      7  C   UNL     1     110.359 125.875 135.704  0.00  0.00    +0.000 A 
ATOM      8  C   UNL     1     111.267 126.144 136.823  0.00  0.00    +0.000 A 
ATOM      9  C   UNL     1     109.795 126.136 135.161  0.00  0.00    +0.000 C 
ATOM     10  C   UNL     1     111.195 124.776 136.250  0.00  0.00    +0.000 A 
ATOM     11  C   UNL     1     110.607 125.052 135.687  0.00  0.00    +0.000 A 
ENDROOT
BRANCH   3  13
ATOM     12  C   UNL     1     109.130 129.812 135.734  0.00  0.00    +0.000 A 
ATOM     13  C   UNL     1     109.622 128.237 135.722  0.00  0.00    +0.000 A 
ATOM     14  C   UNL     1     108.698 129.242 136.146  0.00  0.00    +0.000 A 
ATOM     15  C   UNL     1     109.807 129.595 135.317  0.00  0.00    +0.000 A 
ATOM     16  C   UNL     1     108.943 128.455 136.140  0.00  0.00    +0.000 A 
ATOM     17  C   UNL     1     110.053 128.808 135.311  0.00  0.00    +0.000 A 
BRANCH  12  18
ATOM     18  O   UNL     1     108.884 130.600 135.741  0.00  0.00    +0.000 OA
BRANCH  18  27
ATOM     19  O   UNL     1     109.796 131.194 136.667  0.00  0.00    +0.000 OA
ATOM     20  O   UNL     1     107.898 132.237 137.866  0.00  0.00    +0.000 OA
ATOM     21  O   UNL     1     109.442 132.483 138.392  0.00  0.00    +0.000 OA
ATOM     22  O   UNL     1     107.619 131.295 136.540  0.00  0.00    +0.000 OA
ATOM     23  C   UNL     1     108.531 131.889 137.466  0.00  0.00    +0.000 C 
ATOM     24  C   UNL     1     109.302 132.012 137.729  0.00  0.00    +0.000 C 
ATOM     25  C   UNL     1     108.391 131.418 136.803  0.00  0.00    +0.000 C 
ATOM     26  C   UNL     1     109.935 131.664 137.330  0.00  0.00    +0.000 C 
ATOM     27  C   UNL     1     109.023 131.071 136.404  0.00  0.00    +0.000 C 
BRANCH  26  29
ATOM     28  O   UNL     1     111.288 132.037 137.062  0.00  0.00    +0.000 OA
ATOM     29  C   UNL     1     110.707 131.787 137.593  0.00  0.00    +0.000 C 
ENDBRANCH  26  29
ENDBRANCH  18  27
ENDBRANCH  12  18
ENDBRANCH   3  13
BRANCH   4  30
ATOM     30  O   UNL     1     112.091 125.068 137.365  0.00  0.00    +0.000 OA
BRANCH  30  36
ATOM     31  O   UNL     1     113.124 124.595 136.431  0.00  0.00    +0.000 OA
ATOM     32  O   UNL     1     114.698 125.306 137.684  0.00  0.00    +0.000 OA
ATOM     33  O   UNL     1     113.551 125.589 138.270  0.00  0.00    +0.000 OA
ATOM     34  C   UNL     1     114.208 124.983 137.105  0.00  0.00    +0.000 C 
ATOM     35  C   UNL     1     113.545 125.201 137.543  0.00  0.00    +0.000 C 
ATOM     36  C   UNL     1     112.874 124.961 137.127  0.00  0.00    +0.000 C 
ATOM     37  C   UNL     1     113.949 124.609 136.417  0.00  0.00    +0.000 C 
BRANCH  34  39
ATOM     38  O   UNL     1     115.300 125.326 136.247  0.00  0.00    +0.000 OA
ATOM     39  C   UNL     1     114.991 124.876 136.866  0.00  0.00    +0.000 C 
ENDBRANCH  34  39
ENDBRANCH  30  36
ENDBRANCH   4  30
TORSDOF 7
ENDMDL
MODEL 3
REMARK VINA RESULT:      -9.6      7.496      9.422
REMARK  Name = 124578359
REMARK  7 active torsions:
REMARK  status: ('A' for Active; 'I' for Inactive)
REMARK    1  A    between atoms: O_4  and  C_20
REMARK    2  A    between atoms: O_4  and  C_26
REMARK    3  A    between atoms: O_6  and  C_22
REMARK    4  A    between atoms: O_6  and  C_27
REMARK    5  A    between atoms: C_14  and  C_23
REMARK    6  A    between atoms: C_19  and  C_24
REMARK    7  A    between atoms: C_25  and  C_29
REMARK                            x       y       z     vdW  Elec       q    Type
REMARK                         _______ _______ _______ _____ _____    ______ ____
ROOT
ATOM      1  O   UNL     1     103.498 131.156 142.024  0.00  0.00    +0.000 OA
ATOM      2  O   UNL     1     101.070 131.096 141.547  0.00  0.00    +0.000 OA
ATOM      3  C   UNL     1     103.119 130.433 141.902  0.00  0.00    +0.000 C 
ATOM      4  C   UNL     1     103.030 133.340 142.080  0.00  0.00    +0.000 A 
ATOM      5  C   UNL     1     102.310 130.413 141.743  0.00  0.00    +0.000 C 
ATOM      6  C   UNL     1     103.068 131.858 141.987  0.00  0.00    +0.000 A 
ATOM      7  C   UNL     1     102.258 131.839 141.828  0.00  0.00    +0.000 A 
ATOM      8  C   UNL     1     103.474 132.605 142.117  0.00  0.00    +0.000 A 
ATOM      9  C   UNL     1     101.880 131.116 141.706  0.00  0.00    +0.000 C 
ATOM     10  C   UNL     1     102.188 133.319 141.914  0.00  0.00    +0.000 A 
ATOM     11  C   UNL     1     101.799 132.564 141.788  0.00  0.00    +0.000 A 
ENDROOT
BRANCH   3  13
ATOM     12  C   UNL     1     104.410 128.325 142.011  0.00  0.00    +0.000 A 
ATOM     13  C   UNL     1     103.549 129.730 141.938  0.00  0.00    +0.000 A 
ATOM     14  C   UNL     1     104.287 128.769 142.696  0.00  0.00    +0.000 A 
ATOM     15  C   UNL     1     104.104 128.583 141.291  0.00  0.00    +0.000 A 
ATOM     16  C   UNL     1     103.857 129.471 142.659  0.00  0.00    +0.000 A 
ATOM     17  C   UNL     1     103.673 129.286 141.255  0.00  0.00    +0.000 A 
BRANCH  12  18
ATOM     18  O   UNL     1     104.841 127.622 142.048  0.00  0.00    +0.000 OA
BRANCH  18  27
ATOM     19  O   UNL     1     106.133 128.213 141.895  0.00  0.00    +0.000 OA
ATOM     20  O   UNL     1     107.081 126.547 143.460  0.00  0.00    +0.000 OA
ATOM     21  O   UNL     1     108.056 127.692 142.785  0.00  0.00    +0.000 OA
ATOM     22  O   UNL     1     105.473 126.511 143.092  0.00  0.00    +0.000 OA
ATOM     23  C   UNL     1     106.765 127.102 142.939  0.00  0.00    +0.000 C 
ATOM     24  C   UNL     1     107.253 127.674 142.601  0.00  0.00    +0.000 C 
ATOM     25  C   UNL     1     105.960 127.084 142.755  0.00  0.00    +0.000 C 
ATOM     26  C   UNL     1     106.937 128.230 142.079  0.00  0.00    +0.000 C 
ATOM     27  C   UNL     1     105.645 127.639 142.233  0.00  0.00    +0.000 C 
BRANCH  26  29
ATOM     28  O   UNL     1     107.372 128.964 140.933  0.00  0.00    +0.000 OA
ATOM     29  C   UNL     1     107.424 128.803 141.741  0.00  0.00    +0.000 C 
ENDBRANCH  26  29
ENDBRANCH  18  27
ENDBRANCH  12  18
ENDBRANCH   3  13
BRANCH   4  30
ATOM     30  O   UNL     1     103.412 134.061 142.202  0.00  0.00    +0.000 OA
BRANCH  30  36
ATOM     31  O   UNL     1     103.228 134.619 140.854  0.00  0.00    +0.000 OA
ATOM     32  O   UNL     1     105.088 135.660 140.943  0.00  0.00    +0.000 OA
ATOM     33  O   UNL     1     104.932 135.008 142.078  0.00  0.00    +0.000 OA
ATOM     34  C   UNL     1     104.358 135.323 140.763  0.00  0.00    +0.000 C 
ATOM     35  C   UNL     1     104.347 134.953 141.500  0.00  0.00    +0.000 C 
ATOM     36  C   UNL     1     103.648 134.517 141.557  0.00  0.00    +0.000 C 
ATOM     37  C   UNL     1     103.666 135.117 140.363  0.00  0.00    +0.000 C 
BRANCH  34  39
ATOM     38  O   UNL     1     105.323 135.640 139.758  0.00  0.00    +0.000 OA
ATOM     39  C   UNL     1     104.594 135.779 140.117  0.00  0.00    +0.000 C 
ENDBRANCH  34  39
ENDBRANCH  30  36
ENDBRANCH   4  30
TORSDOF 7
ENDMDL
MODEL 4
REMARK VINA RESULT:      -9.5      8.539     11.672
REMARK  Name = 124578359
REMARK  7 active torsions:
REMARK  status: ('A' for Active; 'I' for Inactive)
REMARK    1  A    between atoms: O_4  and  C_20
REMARK    2  A    between atoms: O_4  and  C_26
REMARK    3  A    between atoms: O_6  and  C_22
REMARK    4  A    between atoms: O_6  and  C_27
REMARK    5  A    between atoms: C_14  and  C_23
REMARK    6  A    between atoms: C_19  and  C_24
REMARK    7  A    between atoms: C_25  and  C_29
REMARK                            x       y       z     vdW  Elec       q    Type
REMARK                         _______ _______ _______ _____ _____    ______ ____
ROOT
ATOM      1  O   UNL     1     104.697 128.010 142.709  0.00  0.00    +0.000 OA
ATOM      2  O   UNL     1     106.863 128.467 141.601  0.00  0.00    +0.000 OA
ATOM      3  C   UNL     1     104.770 128.649 142.192  0.00  0.00    +0.000 C 
ATOM      4  C   UNL     1     105.932 126.350 143.554  0.00  0.00    +0.000 A 
ATOM      5  C   UNL     1     105.491 128.801 141.823  0.00  0.00    +0.000 C 
ATOM      6  C   UNL     1     105.346 127.523 142.856  0.00  0.00    +0.000 A 
ATOM      7  C   UNL     1     106.069 127.676 142.487  0.00  0.00    +0.000 A 
ATOM      8  C   UNL     1     105.258 126.861 143.397  0.00  0.00    +0.000 A 
ATOM      9  C   UNL     1     106.141 128.315 141.970  0.00  0.00    +0.000 C 
ATOM     10  C   UNL     1     106.683 126.509 143.170  0.00  0.00    +0.000 A 
ATOM     11  C   UNL     1     106.753 127.176 142.632  0.00  0.00    +0.000 A 
ENDROOT
BRANCH   3  13
ATOM     12  C   UNL     1     102.821 130.109 141.749  0.00  0.00    +0.000 A 
ATOM     13  C   UNL     1     104.120 129.136 142.044  0.00  0.00    +0.000 A 
ATOM     14  C   UNL     1     103.080 129.581 141.170  0.00  0.00    +0.000 A 
ATOM     15  C   UNL     1     103.211 130.151 142.474  0.00  0.00    +0.000 A 
ATOM     16  C   UNL     1     103.729 129.094 141.318  0.00  0.00    +0.000 A 
ATOM     17  C   UNL     1     103.860 129.664 142.622  0.00  0.00    +0.000 A 
BRANCH  12  18
ATOM     18  O   UNL     1     102.171 130.596 141.601  0.00  0.00    +0.000 OA
BRANCH  18  27
ATOM     19  O   UNL     1     102.929 131.675 141.050  0.00  0.00    +0.000 OA
ATOM     20  O   UNL     1     101.311 133.293 141.993  0.00  0.00    +0.000 OA
ATOM     21  O   UNL     1     102.607 133.832 141.128  0.00  0.00    +0.000 OA
ATOM     22  O   UNL     1     101.093 131.675 142.230  0.00  0.00    +0.000 OA
ATOM     23  C   UNL     1     101.850 132.754 141.679  0.00  0.00    +0.000 C 
ATOM     24  C   UNL     1     102.498 133.023 141.246  0.00  0.00    +0.000 C 
ATOM     25  C   UNL     1     101.741 131.944 141.798  0.00  0.00    +0.000 C 
ATOM     26  C   UNL     1     103.038 132.484 140.932  0.00  0.00    +0.000 C 
ATOM     27  C   UNL     1     102.280 131.405 141.483  0.00  0.00    +0.000 C 
BRANCH  26  29
ATOM     28  O   UNL     1     103.867 132.408 139.771  0.00  0.00    +0.000 OA
ATOM     29  C   UNL     1     103.686 132.753 140.499  0.00  0.00    +0.000 C 
ENDBRANCH  26  29
ENDBRANCH  18  27
ENDBRANCH  12  18
ENDBRANCH   3  13
BRANCH   4  30
ATOM     30  O   UNL     1     105.856 125.712 144.071  0.00  0.00    +0.000 OA
BRANCH  30  36
ATOM     31  O   UNL     1     106.202 126.481 145.276  0.00  0.00    +0.000 OA
ATOM     32  O   UNL     1     106.745 124.715 146.344  0.00  0.00    +0.000 OA
ATOM     33  O   UNL     1     106.358 124.357 145.135  0.00  0.00    +0.000 OA
ATOM     34  C   UNL     1     106.575 125.472 146.067  0.00  0.00    +0.000 C 
ATOM     35  C   UNL     1     106.352 125.156 145.339  0.00  0.00    +0.000 C 
ATOM     36  C   UNL     1     106.121 125.779 144.850  0.00  0.00    +0.000 C 
ATOM     37  C   UNL     1     106.483 126.291 146.029  0.00  0.00    +0.000 C 
BRANCH  34  39
ATOM     38  O   UNL     1     107.614 125.327 147.038  0.00  0.00    +0.000 OA
ATOM     39  C   UNL     1     106.840 125.539 146.845  0.00  0.00    +0.000 C 
ENDBRANCH  34  39
ENDBRANCH  30  36
ENDBRANCH   4  30
TORSDOF 7
ENDMDL
MODEL 5
REMARK VINA RESULT:      -9.4      1.875      3.173
REMARK  Name = 124578359
REMARK  7 active torsions:
REMARK  status: ('A' for Active; 'I' for Inactive)
REMARK    1  A    between atoms: O_4  and  C_20
REMARK    2  A    between atoms: O_4  and  C_26
REMARK    3  A    between atoms: O_6  and  C_22
REMARK    4  A    between atoms: O_6  and  C_27
REMARK    5  A    between atoms: C_14  and  C_23
REMARK    6  A    between atoms: C_19  and  C_24
REMARK    7  A    between atoms: C_25  and  C_29
REMARK                            x       y       z     vdW  Elec       q    Type
REMARK                         _______ _______ _______ _____ _____    ______ ____
ROOT
ATOM      1  O   UNL     1     110.221 128.086 135.943  0.00  0.00    +0.000 OA
ATOM      2  O   UNL     1     107.758 128.070 135.692  0.00  0.00    +0.000 OA
ATOM      3  C   UNL     1     109.816 127.369 135.894  0.00  0.00    +0.000 C 
ATOM      4  C   UNL     1     109.811 130.283 135.925  0.00  0.00    +0.000 A 
ATOM      5  C   UNL     1     108.996 127.364 135.810  0.00  0.00    +0.000 C 
ATOM      6  C   UNL     1     109.805 128.798 135.908  0.00  0.00    +0.000 A 
ATOM      7  C   UNL     1     108.984 128.793 135.825  0.00  0.00    +0.000 A 
ATOM      8  C   UNL     1     110.239 129.538 135.961  0.00  0.00    +0.000 A 
ATOM      9  C   UNL     1     108.580 128.075 135.775  0.00  0.00    +0.000 C 
ATOM     10  C   UNL     1     108.956 130.277 135.838  0.00  0.00    +0.000 A 
ATOM     11  C   UNL     1     108.540 129.527 135.787  0.00  0.00    +0.000 A 
ENDROOT
BRANCH   3  13
ATOM     12  C   UNL     1     111.063 125.234 135.997  0.00  0.00    +0.000 A 
ATOM     13  C   UNL     1     110.231 126.657 135.928  0.00  0.00    +0.000 A 
ATOM     14  C   UNL     1     110.720 125.544 136.681  0.00  0.00    +0.000 A 
ATOM     15  C   UNL     1     110.990 125.634 135.280  0.00  0.00    +0.000 A 
ATOM     16  C   UNL     1     110.304 126.256 136.646  0.00  0.00    +0.000 A 
ATOM     17  C   UNL     1     110.574 126.346 135.246  0.00  0.00    +0.000 A 
BRANCH  12  18
ATOM     18  O   UNL     1     111.479 124.522 136.032  0.00  0.00    +0.000 OA
BRANCH  18  27
ATOM     19  O   UNL     1     112.763 125.122 136.209  0.00  0.00    +0.000 OA
ATOM     20  O   UNL     1     113.465 123.207 137.611  0.00  0.00    +0.000 OA
ATOM     21  O   UNL     1     114.515 124.445 137.320  0.00  0.00    +0.000 OA
ATOM     22  O   UNL     1     111.946 123.245 136.966  0.00  0.00    +0.000 OA
ATOM     23  C   UNL     1     113.231 123.845 137.143  0.00  0.00    +0.000 C 
ATOM     24  C   UNL     1     113.756 124.464 136.998  0.00  0.00    +0.000 C 
ATOM     25  C   UNL     1     112.471 123.864 136.821  0.00  0.00    +0.000 C 
ATOM     26  C   UNL     1     113.522 125.103 136.531  0.00  0.00    +0.000 C 
ATOM     27  C   UNL     1     112.238 124.502 136.354  0.00  0.00    +0.000 C 
BRANCH  26  29
ATOM     28  O   UNL     1     113.891 126.474 136.688  0.00  0.00    +0.000 OA
ATOM     29  C   UNL     1     114.047 125.722 136.386  0.00  0.00    +0.000 C 
ENDBRANCH  26  29
ENDBRANCH  18  27
ENDBRANCH  12  18
ENDBRANCH   3  13
BRANCH   4  30
ATOM     30  O   UNL     1     110.219 130.998 135.975  0.00  0.00    +0.000 OA
BRANCH  30  36
ATOM     31  O   UNL     1     110.365 131.029 137.438  0.00  0.00    +0.000 OA
ATOM     32  O   UNL     1     110.310 133.162 137.479  0.00  0.00    +0.000 OA
ATOM     33  O   UNL     1     110.195 132.776 136.223  0.00  0.00    +0.000 OA
ATOM     34  C   UNL     1     110.347 132.351 137.621  0.00  0.00    +0.000 C 
ATOM     35  C   UNL     1     110.270 132.205 136.814  0.00  0.00    +0.000 C 
ATOM     36  C   UNL     1     110.281 131.387 136.699  0.00  0.00    +0.000 C 
ATOM     37  C   UNL     1     110.406 131.624 138.008  0.00  0.00    +0.000 C 
BRANCH  34  39
ATOM     38  O   UNL     1     110.134 133.514 138.425  0.00  0.00    +0.000 OA
ATOM     39  C   UNL     1     110.409 132.740 138.346  0.00  0.00    +0.000 C 
ENDBRANCH  34  39
ENDBRANCH  30  36
ENDBRANCH   4  30
TORSDOF 7
ENDMDL
MODEL 6
REMARK VINA RESULT:      -9.4      1.380      6.696
REMARK  Name = 124578359
REMARK  7 active torsions:
REMARK  status: ('A' for Active; 'I' for Inactive)
REMARK    1  A    between atoms: O_4  and  C_20
REMARK    2  A    between atoms: O_4  and  C_26
REMARK    3  A    between atoms: O_6  and  C_22
REMARK    4  A    between atoms: O_6  and  C_27
REMARK    5  A    between atoms: C_14  and  C_23
REMARK    6  A    between atoms: C_19  and  C_24
REMARK    7  A    between atoms: C_25  and  C_29
REMARK                            x       y       z     vdW  Elec       q    Type
REMARK                         _______ _______ _______ _____ _____    ______ ____
ROOT
ATOM      1  O   UNL     1     112.716 128.872 136.724  0.00  0.00    +0.000 OA
ATOM      2  O   UNL     1     114.301 129.201 134.851  0.00  0.00    +0.000 OA
ATOM      3  C   UNL     1     112.721 129.584 136.307  0.00  0.00    +0.000 C 
ATOM      4  C   UNL     1     113.769 126.901 136.746  0.00  0.00    +0.000 A 
ATOM      5  C   UNL     1     113.249 129.694 135.683  0.00  0.00    +0.000 C 
ATOM      6  C   UNL     1     113.240 128.270 136.516  0.00  0.00    +0.000 A 
ATOM      7  C   UNL     1     113.769 128.379 135.892  0.00  0.00    +0.000 A 
ATOM      8  C   UNL     1     113.225 127.532 136.958  0.00  0.00    +0.000 A 
ATOM      9  C   UNL     1     113.772 129.091 135.476  0.00  0.00    +0.000 C 
ATOM     10  C   UNL     1     114.318 127.015 136.096  0.00  0.00    +0.000 A 
ATOM     11  C   UNL     1     114.318 127.759 135.666  0.00  0.00    +0.000 A 
ENDROOT
BRANCH   3  13
ATOM     12  C   UNL     1     111.151 131.393 136.931  0.00  0.00    +0.000 A 
ATOM     13  C   UNL     1     112.198 130.187 136.515  0.00  0.00    +0.000 A 
ATOM     14  C   UNL     1     111.928 131.408 137.209  0.00  0.00    +0.000 A 
ATOM     15  C   UNL     1     110.897 130.776 136.447  0.00  0.00    +0.000 A 
ATOM     16  C   UNL     1     112.451 130.805 137.001  0.00  0.00    +0.000 A 
ATOM     17  C   UNL     1     111.421 130.173 136.239  0.00  0.00    +0.000 A 
BRANCH  12  18
ATOM     18  O   UNL     1     110.627 131.995 137.139  0.00  0.00    +0.000 OA
BRANCH  18  27
ATOM     19  O   UNL     1     110.249 131.560 138.447  0.00  0.00    +0.000 OA
ATOM     20  O   UNL     1     107.878 132.039 137.920  0.00  0.00    +0.000 OA
ATOM     21  O   UNL     1     108.290 131.444 139.402  0.00  0.00    +0.000 OA
ATOM     22  O   UNL     1     109.047 132.314 136.788  0.00  0.00    +0.000 OA
ATOM     23  C   UNL     1     108.668 131.879 138.095  0.00  0.00    +0.000 C 
ATOM     24  C   UNL     1     108.874 131.582 138.836  0.00  0.00    +0.000 C 
ATOM     25  C   UNL     1     109.252 132.017 137.529  0.00  0.00    +0.000 C 
ATOM     26  C   UNL     1     109.664 131.423 139.012  0.00  0.00    +0.000 C 
ATOM     27  C   UNL     1     110.042 131.858 137.704  0.00  0.00    +0.000 C 
BRANCH  26  29
ATOM     28  O   UNL     1     110.453 131.503 140.201  0.00  0.00    +0.000 OA
ATOM     29  C   UNL     1     109.871 131.125 139.753  0.00  0.00    +0.000 C 
ENDBRANCH  26  29
ENDBRANCH  18  27
ENDBRANCH  12  18
ENDBRANCH   3  13
BRANCH   4  30
ATOM     30  O   UNL     1     113.762 126.190 137.164  0.00  0.00    +0.000 OA
BRANCH  30  36
ATOM     31  O   UNL     1     112.528 125.678 136.549  0.00  0.00    +0.000 OA
ATOM     32  O   UNL     1     113.056 123.656 136.982  0.00  0.00    +0.000 OA
ATOM     33  O   UNL     1     114.020 124.434 137.434  0.00  0.00    +0.000 OA
ATOM     34  C   UNL     1     112.721 124.373 136.750  0.00  0.00    +0.000 C 
ATOM     35  C   UNL     1     113.368 124.777 137.063  0.00  0.00    +0.000 C 
ATOM     36  C   UNL     1     113.249 125.584 136.938  0.00  0.00    +0.000 C 
ATOM     37  C   UNL     1     112.201 124.930 136.432  0.00  0.00    +0.000 C 
BRANCH  34  39
ATOM     38  O   UNL     1     111.992 123.185 137.067  0.00  0.00    +0.000 OA
ATOM     39  C   UNL     1     112.208 123.767 136.524  0.00  0.00    +0.000 C 
ENDBRANCH  34  39
ENDBRANCH  30  36
ENDBRANCH   4  30
TORSDOF 7
ENDMDL
MODEL 7
REMARK VINA RESULT:      -9.3      2.024      3.516
REMARK  Name = 124578359
REMARK  7 active torsions:
REMARK  status: ('A' for Active; 'I' for Inactive)
REMARK    1  A    between atoms: O_4  and  C_20
REMARK    2  A    between atoms: O_4  and  C_26
REMARK    3  A    between atoms: O_6  and  C_22
REMARK    4  A    between atoms: O_6  and  C_27
REMARK    5  A    between atoms: C_14  and  C_23
REMARK    6  A    between atoms: C_19  and  C_24
REMARK    7  A    between atoms: C_25  and  C_29
REMARK                            x       y       z     vdW  Elec       q    Type
REMARK                         _______ _______ _______ _____ _____    ______ ____
ROOT
ATOM      1  O   UNL     1     110.134 128.307 136.619  0.00  0.00    +0.000 OA
ATOM      2  O   UNL     1     107.925 128.669 135.560  0.00  0.00    +0.000 OA
ATOM      3  C   UNL     1     109.787 127.707 136.172  0.00  0.00    +0.000 C 
ATOM      4  C   UNL     1     109.713 130.400 137.284  0.00  0.00    +0.000 A 
ATOM      5  C   UNL     1     109.052 127.827 135.819  0.00  0.00    +0.000 C 
ATOM      6  C   UNL     1     109.744 129.028 136.714  0.00  0.00    +0.000 A 
ATOM      7  C   UNL     1     109.007 129.149 136.360  0.00  0.00    +0.000 A 
ATOM      8  C   UNL     1     110.115 129.646 137.182  0.00  0.00    +0.000 A 
ATOM      9  C   UNL     1     108.662 128.548 135.913  0.00  0.00    +0.000 C 
ATOM     10  C   UNL     1     108.947 130.525 136.916  0.00  0.00    +0.000 A 
ATOM     11  C   UNL     1     108.592 129.895 136.451  0.00  0.00    +0.000 A 
ENDROOT
BRANCH   3  13
ATOM     12  C   UNL     1     110.956 125.544 135.889  0.00  0.00    +0.000 A 
ATOM     13  C   UNL     1     110.177 126.986 136.078  0.00  0.00    +0.000 A 
ATOM     14  C   UNL     1     110.548 125.703 136.588  0.00  0.00    +0.000 A 
ATOM     15  C   UNL     1     110.975 126.105 135.285  0.00  0.00    +0.000 A 
ATOM     16  C   UNL     1     110.158 126.424 136.683  0.00  0.00    +0.000 A 
ATOM     17  C   UNL     1     110.585 126.826 135.379  0.00  0.00    +0.000 A 
BRANCH  12  18
ATOM     18  O   UNL     1     111.346 124.823 135.795  0.00  0.00    +0.000 OA
BRANCH  18  27
ATOM     19  O   UNL     1     112.652 125.268 136.168  0.00  0.00    +0.000 OA
ATOM     20  O   UNL     1     113.043 123.129 137.349  0.00  0.00    +0.000 OA
ATOM     21  O   UNL     1     114.217 124.286 137.328  0.00  0.00    +0.000 OA
ATOM     22  O   UNL     1     111.607 123.397 136.583  0.00  0.00    +0.000 OA
ATOM     23  C   UNL     1     112.913 123.842 136.955  0.00  0.00    +0.000 C 
ATOM     24  C   UNL     1     113.500 124.420 136.945  0.00  0.00    +0.000 C 
ATOM     25  C   UNL     1     112.194 123.975 136.572  0.00  0.00    +0.000 C 
ATOM     26  C   UNL     1     113.369 125.133 136.551  0.00  0.00    +0.000 C 
ATOM     27  C   UNL     1     112.064 124.688 136.178  0.00  0.00    +0.000 C 
BRANCH  26  29
ATOM     28  O   UNL     1     113.836 126.429 136.932  0.00  0.00    +0.000 OA
ATOM     29  C   UNL     1     113.957 125.712 136.540  0.00  0.00    +0.000 C 
ENDBRANCH  26  29
ENDBRANCH  18  27
ENDBRANCH  12  18
ENDBRANCH   3  13
BRANCH   4  30
ATOM     30  O   UNL     1     110.062 130.998 137.731  0.00  0.00    +0.000 OA
BRANCH  30  36
ATOM     31  O   UNL     1     109.748 130.341 139.009  0.00  0.00    +0.000 OA
ATOM     32  O   UNL     1     110.391 132.037 140.133  0.00  0.00    +0.000 OA
ATOM     33  O   UNL     1     110.551 132.312 138.853  0.00  0.00    +0.000 OA
ATOM     34  C   UNL     1     110.112 131.318 139.842  0.00  0.00    +0.000 C 
ATOM     35  C   UNL     1     110.246 131.578 139.071  0.00  0.00    +0.000 C 
ATOM     36  C   UNL     1     110.021 130.973 138.555  0.00  0.00    +0.000 C 
ATOM     37  C   UNL     1     109.804 130.553 139.804  0.00  0.00    +0.000 C 
BRANCH  34  39
ATOM     38  O   UNL     1     110.641 131.679 141.120  0.00  0.00    +0.000 OA
ATOM     39  C   UNL     1     110.070 131.293 140.665  0.00  0.00    +0.000 C 
ENDBRANCH  34  39
ENDBRANCH  30  36
ENDBRANCH   4  30
TORSDOF 7
ENDMDL
MODEL 8
REMARK VINA RESULT:      -9.3      1.552      2.108
REMARK  Name = 124578359
REMARK  7 active torsions:
REMARK  status: ('A' for Active; 'I' for Inactive)
REMARK    1  A    between atoms: O_4  and  C_20
REMARK    2  A    between atoms: O_4  and  C_26
REMARK    3  A    between atoms: O_6  and  C_22
REMARK    4  A    between atoms: O_6  and  C_27
REMARK    5  A    between atoms: C_14  and  C_23
REMARK    6  A    between atoms: C_19  and  C_24
REMARK    7  A    between atoms: C_25  and  C_29
REMARK                            x       y       z     vdW  Elec       q    Type
REMARK                         _______ _______ _______ _____ _____    ______ ____
ROOT
ATOM      1  O   UNL     1     112.151 129.345 137.088  0.00  0.00    +0.000 OA
ATOM      2  O   UNL     1     113.847 131.142 136.924  0.00  0.00    +0.000 OA
ATOM      3  C   UNL     1     112.938 129.157 136.924  0.00  0.00    +0.000 C 
ATOM      4  C   UNL     1     110.871 131.134 137.481  0.00  0.00    +0.000 A 
ATOM      5  C   UNL     1     113.503 129.755 136.870  0.00  0.00    +0.000 C 
ATOM      6  C   UNL     1     111.930 130.132 137.197  0.00  0.00    +0.000 A 
ATOM      7  C   UNL     1     112.495 130.731 137.142  0.00  0.00    +0.000 A 
ATOM      8  C   UNL     1     111.107 130.315 137.366  0.00  0.00    +0.000 A 
ATOM      9  C   UNL     1     113.281 130.542 136.979  0.00  0.00    +0.000 C 
ATOM     10  C   UNL     1     111.459 131.757 137.424  0.00  0.00    +0.000 A 
ATOM     11  C   UNL     1     112.277 131.555 137.253  0.00  0.00    +0.000 A 
ENDROOT
BRANCH   3  13
ATOM     12  C   UNL     1     113.602 126.795 136.598  0.00  0.00    +0.000 A 
ATOM     13  C   UNL     1     113.159 128.370 136.816  0.00  0.00    +0.000 A 
ATOM     14  C   UNL     1     113.555 127.303 135.949  0.00  0.00    +0.000 A 
ATOM     15  C   UNL     1     113.429 127.074 137.354  0.00  0.00    +0.000 A 
ATOM     16  C   UNL     1     113.333 128.090 136.058  0.00  0.00    +0.000 A 
ATOM     17  C   UNL     1     113.207 127.861 137.463  0.00  0.00    +0.000 A 
BRANCH  12  18
ATOM     18  O   UNL     1     113.824 126.008 136.489  0.00  0.00    +0.000 OA
BRANCH  18  27
ATOM     19  O   UNL     1     112.492 125.546 136.253  0.00  0.00    +0.000 OA
ATOM     20  O   UNL     1     113.084 123.345 137.219  0.00  0.00    +0.000 OA
ATOM     21  O   UNL     1     111.557 123.617 136.661  0.00  0.00    +0.000 OA
ATOM     22  O   UNL     1     114.218 124.541 137.134  0.00  0.00    +0.000 OA
ATOM     23  C   UNL     1     112.887 124.079 136.897  0.00  0.00    +0.000 C 
ATOM     24  C   UNL     1     112.123 124.214 136.618  0.00  0.00    +0.000 C 
ATOM     25  C   UNL     1     113.455 124.676 136.855  0.00  0.00    +0.000 C 
ATOM     26  C   UNL     1     111.926 124.948 136.296  0.00  0.00    +0.000 C 
ATOM     27  C   UNL     1     113.257 125.410 136.532  0.00  0.00    +0.000 C 
BRANCH  26  29
ATOM     28  O   UNL     1     111.048 125.365 135.248  0.00  0.00    +0.000 OA
ATOM     29  C   UNL     1     111.162 125.084 136.016  0.00  0.00    +0.000 C 
ENDBRANCH  26  29
ENDBRANCH  18  27
ENDBRANCH  12  18
ENDBRANCH   3  13
BRANCH   4  30
ATOM     30  O   UNL     1     110.084 131.319 137.644  0.00  0.00    +0.000 OA
BRANCH  30  36
ATOM     31  O   UNL     1     110.226 131.227 139.104  0.00  0.00    +0.000 OA
ATOM     32  O   UNL     1     108.134 130.897 139.367  0.00  0.00    +0.000 OA
ATOM     33  O   UNL     1     108.366 131.031 138.076  0.00  0.00    +0.000 OA
ATOM     34  C   UNL     1     108.948 131.013 139.425  0.00  0.00    +0.000 C 
ATOM     35  C   UNL     1     108.996 131.084 138.605  0.00  0.00    +0.000 C 
ATOM     36  C   UNL     1     109.787 131.216 138.406  0.00  0.00    +0.000 C 
ATOM     37  C   UNL     1     109.707 131.101 139.735  0.00  0.00    +0.000 C 
BRANCH  34  39
ATOM     38  O   UNL     1     107.863 131.096 140.353  0.00  0.00    +0.000 OA
ATOM     39  C   UNL     1     108.650 130.910 140.188  0.00  0.00    +0.000 C 
ENDBRANCH  34  39
ENDBRANCH  30  36
ENDBRANCH   4  30
TORSDOF 7
ENDMDL
MODEL 9
REMARK VINA RESULT:      -9.3      2.973      4.635
REMARK  Name = 124578359
REMARK  7 active torsions:
REMARK  status: ('A' for Active; 'I' for Inactive)
REMARK    1  A    between atoms: O_4  and  C_20
REMARK    2  A    between atoms: O_4  and  C_26
REMARK    3  A    between atoms: O_6  and  C_22
REMARK    4  A    between atoms: O_6  and  C_27
REMARK    5  A    between atoms: C_14  and  C_23
REMARK    6  A    between atoms: C_19  and  C_24
REMARK    7  A    between atoms: C_25  and  C_29
REMARK                            x       y       z     vdW  Elec       q    Type
REMARK                         _______ _______ _______ _____ _____    ______ ____
ROOT
ATOM      1  O   UNL     1     112.047 129.454 137.211  0.00  0.00    +0.000 OA
ATOM      2  O   UNL     1     113.562 129.252 135.264  0.00  0.00    +0.000 OA
ATOM      3  C   UNL     1     112.865 129.489 137.318  0.00  0.00    +0.000 C 
ATOM      4  C   UNL     1     110.550 129.210 135.569  0.00  0.00    +0.000 A 
ATOM      5  C   UNL     1     113.369 129.422 136.670  0.00  0.00    +0.000 C 
ATOM      6  C   UNL     1     111.735 129.352 136.455  0.00  0.00    +0.000 A 
ATOM      7  C   UNL     1     112.240 129.284 135.805  0.00  0.00    +0.000 A 
ATOM      8  C   UNL     1     110.882 129.317 136.356  0.00  0.00    +0.000 A 
ATOM      9  C   UNL     1     113.057 129.319 135.913  0.00  0.00    +0.000 C 
ATOM     10  C   UNL     1     111.076 129.140 134.894  0.00  0.00    +0.000 A 
ATOM     11  C   UNL     1     111.927 129.177 135.012  0.00  0.00    +0.000 A 
ENDROOT
BRANCH   3  13
ATOM     12  C   UNL     1     113.802 129.796 139.588  0.00  0.00    +0.000 A 
ATOM     13  C   UNL     1     113.177 129.592 138.075  0.00  0.00    +0.000 A 
ATOM     14  C   UNL     1     113.644 129.037 139.307  0.00  0.00    +0.000 A 
ATOM     15  C   UNL     1     113.648 130.453 139.114  0.00  0.00    +0.000 A 
ATOM     16  C   UNL     1     113.332 128.934 138.551  0.00  0.00    +0.000 A 
ATOM     17  C   UNL     1     113.335 130.350 138.357  0.00  0.00    +0.000 A 
BRANCH  12  18
ATOM     18  O   UNL     1     114.114 129.899 140.345  0.00  0.00    +0.000 OA
BRANCH  18  27
ATOM     19  O   UNL     1     112.984 129.601 141.168  0.00  0.00    +0.000 OA
ATOM     20  O   UNL     1     113.391 131.664 142.474  0.00  0.00    +0.000 OA
ATOM     21  O   UNL     1     112.126 130.679 142.860  0.00  0.00    +0.000 OA
ATOM     22  O   UNL     1     114.386 131.274 141.216  0.00  0.00    +0.000 OA
ATOM     23  C   UNL     1     113.256 130.976 142.038  0.00  0.00    +0.000 C 
ATOM     24  C   UNL     1     112.623 130.484 142.232  0.00  0.00    +0.000 C 
ATOM     25  C   UNL     1     113.753 130.782 141.409  0.00  0.00    +0.000 C 
ATOM     26  C   UNL     1     112.488 129.797 141.797  0.00  0.00    +0.000 C 
ATOM     27  C   UNL     1     113.618 130.094 140.974  0.00  0.00    +0.000 C 
BRANCH  26  29
ATOM     28  O   UNL     1     111.989 128.504 142.149  0.00  0.00    +0.000 OA
ATOM     29  C   UNL     1     111.855 129.304 141.990  0.00  0.00    +0.000 C 
ENDBRANCH  26  29
ENDBRANCH  18  27
ENDBRANCH  12  18
ENDBRANCH   3  13
BRANCH   4  30
ATOM     30  O   UNL     1     109.733 129.176 135.466  0.00  0.00    +0.000 OA
BRANCH  30  36
ATOM     31  O   UNL     1     109.546 130.631 135.363  0.00  0.00    +0.000 OA
ATOM     32  O   UNL     1     107.497 130.490 135.944  0.00  0.00    +0.000 OA
ATOM     33  O   UNL     1     108.003 129.272 135.933  0.00  0.00    +0.000 OA
ATOM     34  C   UNL     1     108.260 130.701 135.711  0.00  0.00    +0.000 C 
ATOM     35  C   UNL     1     108.486 129.909 135.732  0.00  0.00    +0.000 C 
ATOM     36  C   UNL     1     109.282 129.865 135.517  0.00  0.00    +0.000 C 
ATOM     37  C   UNL     1     108.914 131.148 135.482  0.00  0.00    +0.000 C 
BRANCH  34  39
ATOM     38  O   UNL     1     106.985 131.343 135.806  0.00  0.00    +0.000 OA
ATOM     39  C   UNL     1     107.808 131.390 135.762  0.00  0.00    +0.000 C 
ENDBRANCH  34  39
ENDBRANCH  30  36
ENDBRANCH   4  30
TORSDOF 7
ENDMDL
MODEL 10
REMARK VINA RESULT:      -9.3      7.616     10.935
REMARK  Name = 124578359
REMARK  7 active torsions:
REMARK  status: ('A' for Active; 'I' for Inactive)
REMARK    1  A    between atoms: O_4  and  C_20
REMARK    2  A    between atoms: O_4  and  C_26
REMARK    3  A    between atoms: O_6  and  C_22
REMARK    4  A    between atoms: O_6  and  C_27
REMARK    5  A    between atoms: C_14  and  C_23
REMARK    6  A    between atoms: C_19  and  C_24
REMARK    7  A    between atoms: C_25  and  C_29
REMARK                            x       y       z     vdW  Elec       q    Type
REMARK                         _______ _______ _______ _____ _____    ______ ____
ROOT
ATOM      1  O   UNL     1     104.676 127.678 141.774  0.00  0.00    +0.000 OA
ATOM      2  O   UNL     1     106.916 128.602 142.282  0.00  0.00    +0.000 OA
ATOM      3  C   UNL     1     104.775 128.492 141.872  0.00  0.00    +0.000 C 
ATOM      4  C   UNL     1     105.881 125.796 141.812  0.00  0.00    +0.000 A 
ATOM      5  C   UNL     1     105.521 128.799 142.042  0.00  0.00    +0.000 C 
ATOM      6  C   UNL     1     105.324 127.173 141.844  0.00  0.00    +0.000 A 
ATOM      7  C   UNL     1     106.071 127.481 142.014  0.00  0.00    +0.000 A 
ATOM      8  C   UNL     1     105.209 126.328 141.740  0.00  0.00    +0.000 A 
ATOM      9  C   UNL     1     106.169 128.294 142.112  0.00  0.00    +0.000 C 
ATOM     10  C   UNL     1     106.658 126.117 141.989  0.00  0.00    +0.000 A 
ATOM     11  C   UNL     1     106.754 126.965 142.090  0.00  0.00    +0.000 A 
ENDROOT
BRANCH   3  13
ATOM     12  C   UNL     1     102.830 130.007 141.660  0.00  0.00    +0.000 A 
ATOM     13  C   UNL     1     104.126 128.997 141.802  0.00  0.00    +0.000 A 
ATOM     14  C   UNL     1     103.052 129.531 141.024  0.00  0.00    +0.000 A 
ATOM     15  C   UNL     1     103.255 129.979 142.366  0.00  0.00    +0.000 A 
ATOM     16  C   UNL     1     103.700 129.025 141.095  0.00  0.00    +0.000 A 
ATOM     17  C   UNL     1     103.903 129.474 142.436  0.00  0.00    +0.000 A 
BRANCH  12  18
ATOM     18  O   UNL     1     102.182 130.513 141.589  0.00  0.00    +0.000 OA
BRANCH  18  27
ATOM     19  O   UNL     1     102.940 131.599 141.053  0.00  0.00    +0.000 OA
ATOM     20  O   UNL     1     101.369 133.207 142.088  0.00  0.00    +0.000 OA
ATOM     21  O   UNL     1     102.651 133.756 141.208  0.00  0.00    +0.000 OA
ATOM     22  O   UNL     1     101.134 131.585 142.279  0.00  0.00    +0.000 OA
ATOM     23  C   UNL     1     101.893 132.671 141.743  0.00  0.00    +0.000 C 
ATOM     24  C   UNL     1     102.533 132.946 141.303  0.00  0.00    +0.000 C 
ATOM     25  C   UNL     1     101.775 131.860 141.839  0.00  0.00    +0.000 C 
ATOM     26  C   UNL     1     103.057 132.410 140.958  0.00  0.00    +0.000 C 
ATOM     27  C   UNL     1     102.299 131.324 141.494  0.00  0.00    +0.000 C 
BRANCH  26  29
ATOM     28  O   UNL     1     103.826 132.398 139.753  0.00  0.00    +0.000 OA
ATOM     29  C   UNL     1     103.698 132.684 140.518  0.00  0.00    +0.000 C 
ENDBRANCH  26  29
ENDBRANCH  18  27
ENDBRANCH  12  18
ENDBRANCH   3  13
BRANCH   4  30
ATOM     30  O   UNL     1     105.779 124.984 141.713  0.00  0.00    +0.000 OA
BRANCH  30  36
ATOM     31  O   UNL     1     105.874 125.033 140.247  0.00  0.00    +0.000 OA
ATOM     32  O   UNL     1     104.947 123.122 140.042  0.00  0.00    +0.000 OA
ATOM     33  O   UNL     1     105.022 123.402 141.329  0.00  0.00    +0.000 OA
ATOM     34  C   UNL     1     105.311 123.857 139.962  0.00  0.00    +0.000 C 
ATOM     35  C   UNL     1     105.315 123.945 140.781  0.00  0.00    +0.000 C 
ATOM     36  C   UNL     1     105.663 124.673 140.958  0.00  0.00    +0.000 C 
ATOM     37  C   UNL     1     105.657 124.528 139.630  0.00  0.00    +0.000 C 
BRANCH  34  39
ATOM     38  O   UNL     1     104.496 123.145 139.027  0.00  0.00    +0.000 OA
ATOM     39  C   UNL     1     105.195 123.545 139.207  0.00  0.00    +0.000 C 
ENDBRANCH  34  39
ENDBRANCH  30  36
ENDBRANCH   4  30
TORSDOF 7
ENDMDL
