MODEL 1
REMARK VINA RESULT:      -9.5      0.000      0.000
REMARK  Name = 44259487
REMARK  5 active torsions:
REMARK  status: ('A' for Active; 'I' for Inactive)
REMARK    1  A    between atoms: O_11  and  C_32
REMARK    2  A    between atoms: O_12  and  C_33
REMARK    3  A    between atoms: C_16  and  C_19
REMARK    4  A    between atoms: C_18  and  C_20
REMARK    5  A    between atoms: C_27  and  C_29
REMARK                            x       y       z     vdW  Elec       q    Type
REMARK                         _______ _______ _______ _____ _____    ______ ____
ROOT
ATOM      1  O   UNL     1     105.272 124.321 143.385  0.00  0.00    +0.000 OA
ATOM      2  O   UNL     1     107.008 126.590 143.445  0.00  0.00    +0.000 OA
ATOM      3  O   UNL     1     105.916 125.577 145.911  0.00  0.00    +0.000 OA
ATOM      4  O   UNL     1     104.705 123.783 144.597  0.00  0.00    +0.000 OA
ATOM      5  O   UNL     1     104.541 123.848 146.278  0.00  0.00    +0.000 OA
ATOM      6  C   UNL     1     106.140 125.455 143.415  0.00  0.00    +0.000 A 
ATOM      7  C   UNL     1     105.668 124.906 143.811  0.00  0.00    +0.000 A 
ATOM      8  C   UNL     1     106.536 126.041 143.840  0.00  0.00    +0.000 A 
ATOM      9  C   UNL     1     105.592 124.943 144.631  0.00  0.00    +0.000 A 
ATOM     10  C   UNL     1     106.460 126.078 144.661  0.00  0.00    +0.000 A 
ATOM     11  C   UNL     1     105.988 125.528 145.056  0.00  0.00    +0.000 A 
ATOM     12  C   UNL     1     105.097 124.365 145.031  0.00  0.00    +0.000 A 
ATOM     13  C   UNL     1     105.426 125.008 146.328  0.00  0.00    +0.000 A 
ATOM     14  C   UNL     1     105.014 124.398 145.885  0.00  0.00    +0.000 A 
ENDROOT
BRANCH   6  21
ATOM     15  O   UNL     1     106.764 124.905 142.253  0.00  0.00    +0.000 OA
ATOM     16  O   UNL     1     105.198 126.411 142.455  0.00  0.00    +0.000 OA
ATOM     17  O   UNL     1     105.351 126.339 140.814  0.00  0.00    +0.000 OA
ATOM     18  O   UNL     1     106.445 125.310 140.133  0.00  0.00    +0.000 OA
ATOM     19  C   UNL     1     105.746 125.897 142.115  0.00  0.00    +0.000 C 
ATOM     20  C   UNL     1     105.822 125.861 141.294  0.00  0.00    +0.000 C 
ATOM     21  C   UNL     1     106.217 125.419 142.595  0.00  0.00    +0.000 C 
ATOM     22  C   UNL     1     106.369 125.346 140.953  0.00  0.00    +0.000 C 
ATOM     23  C   UNL     1     106.841 124.868 141.433  0.00  0.00    +0.000 C 
BRANCH  23  25
ATOM     24  O   UNL     1     108.141 124.275 141.420  0.00  0.00    +0.000 OA
ATOM     25  C   UNL     1     107.388 124.354 141.092  0.00  0.00    +0.000 C 
ENDBRANCH  23  25
ENDBRANCH   6  21
BRANCH  13  27
ATOM     26  O   UNL     1     105.127 125.168 149.611  0.00  0.00    +0.000 OA
ATOM     27  C   UNL     1     105.352 125.047 147.150  0.00  0.00    +0.000 A 
ATOM     28  C   UNL     1     105.902 124.668 147.633  0.00  0.00    +0.000 A 
ATOM     29  C   UNL     1     104.727 125.467 147.487  0.00  0.00    +0.000 A 
ATOM     30  C   UNL     1     104.652 125.507 148.307  0.00  0.00    +0.000 A 
ATOM     31  C   UNL     1     105.827 124.708 148.453  0.00  0.00    +0.000 A 
ATOM     32  C   UNL     1     105.202 125.127 148.791  0.00  0.00    +0.000 A 
BRANCH  30  33
ATOM     33  O   UNL     1     104.027 125.927 148.645  0.00  0.00    +0.000 OA
ATOM     34  C   UNL     1     103.822 126.670 148.348  0.00  0.00    +0.000 C 
ENDBRANCH  30  33
BRANCH  31  35
ATOM     35  O   UNL     1     106.378 124.328 148.937  0.00  0.00    +0.000 OA
ATOM     36  C   UNL     1     107.184 124.466 148.831  0.00  0.00    +0.000 C 
ENDBRANCH  31  35
ENDBRANCH  13  27
TORSDOF 5
ENDMDL
MODEL 2
REMARK VINA RESULT:      -9.4      1.788      5.823
REMARK  Name = 44259487
REMARK  5 active torsions:
REMARK  status: ('A' for Active; 'I' for Inactive)
REMARK    1  A    between atoms: O_11  and  C_32
REMARK    2  A    between atoms: O_12  and  C_33
REMARK    3  A    between atoms: C_16  and  C_19
REMARK    4  A    between atoms: C_18  and  C_20
REMARK    5  A    between atoms: C_27  and  C_29
REMARK                            x       y       z     vdW  Elec       q    Type
REMARK                         _______ _______ _______ _____ _____    ______ ____
ROOT
ATOM      1  O   UNL     1     106.340 124.709 146.076  0.00  0.00    +0.000 OA
ATOM      2  O   UNL     1     106.940 127.088 147.542  0.00  0.00    +0.000 OA
ATOM      3  O   UNL     1     106.318 127.273 144.735  0.00  0.00    +0.000 OA
ATOM      4  O   UNL     1     106.024 124.759 144.670  0.00  0.00    +0.000 OA
ATOM      5  O   UNL     1     105.802 125.667 143.262  0.00  0.00    +0.000 OA
ATOM      6  C   UNL     1     106.640 125.898 146.809  0.00  0.00    +0.000 A 
ATOM      7  C   UNL     1     106.437 125.528 146.100  0.00  0.00    +0.000 A 
ATOM      8  C   UNL     1     106.737 126.717 146.834  0.00  0.00    +0.000 A 
ATOM      9  C   UNL     1     106.330 125.976 145.417  0.00  0.00    +0.000 A 
ATOM     10  C   UNL     1     106.630 127.166 146.149  0.00  0.00    +0.000 A 
ATOM     11  C   UNL     1     106.427 126.795 145.441  0.00  0.00    +0.000 A 
ATOM     12  C   UNL     1     106.118 125.578 144.684  0.00  0.00    +0.000 A 
ATOM     13  C   UNL     1     106.106 126.893 143.994  0.00  0.00    +0.000 A 
ATOM     14  C   UNL     1     106.006 126.040 143.969  0.00  0.00    +0.000 A 
ENDROOT
BRANCH   6  21
ATOM     15  O   UNL     1     106.096 125.238 147.955  0.00  0.00    +0.000 OA
ATOM     16  O   UNL     1     108.156 125.424 147.257  0.00  0.00    +0.000 OA
ATOM     17  O   UNL     1     108.370 124.527 148.625  0.00  0.00    +0.000 OA
ATOM     18  O   UNL     1     107.068 124.105 149.546  0.00  0.00    +0.000 OA
ATOM     19  C   UNL     1     107.505 125.213 147.717  0.00  0.00    +0.000 C 
ATOM     20  C   UNL     1     107.612 124.764 148.402  0.00  0.00    +0.000 C 
ATOM     21  C   UNL     1     106.747 125.450 147.493  0.00  0.00    +0.000 C 
ATOM     22  C   UNL     1     106.960 124.553 148.862  0.00  0.00    +0.000 C 
ATOM     23  C   UNL     1     106.203 124.791 148.638  0.00  0.00    +0.000 C 
BRANCH  23  25
ATOM     24  O   UNL     1     104.866 125.038 149.081  0.00  0.00    +0.000 OA
ATOM     25  C   UNL     1     105.552 124.579 149.099  0.00  0.00    +0.000 C 
ENDBRANCH  23  25
ENDBRANCH   6  21
BRANCH  13  27
ATOM     26  O   UNL     1     105.680 128.700 141.265  0.00  0.00    +0.000 OA
ATOM     27  C   UNL     1     106.000 127.345 143.312  0.00  0.00    +0.000 A 
ATOM     28  C   UNL     1     106.623 127.440 142.778  0.00  0.00    +0.000 A 
ATOM     29  C   UNL     1     105.271 127.701 143.163  0.00  0.00    +0.000 A 
ATOM     30  C   UNL     1     105.165 128.153 142.481  0.00  0.00    +0.000 A 
ATOM     31  C   UNL     1     106.516 127.892 142.096  0.00  0.00    +0.000 A 
ATOM     32  C   UNL     1     105.787 128.248 141.947  0.00  0.00    +0.000 A 
BRANCH  30  33
ATOM     33  O   UNL     1     104.435 128.509 142.332  0.00  0.00    +0.000 OA
ATOM     34  C   UNL     1     104.152 129.095 142.839  0.00  0.00    +0.000 C 
ENDBRANCH  30  33
BRANCH  31  35
ATOM     35  O   UNL     1     107.138 127.987 141.563  0.00  0.00    +0.000 OA
ATOM     36  C   UNL     1     107.899 128.145 141.841  0.00  0.00    +0.000 C 
ENDBRANCH  31  35
ENDBRANCH  13  27
TORSDOF 5
ENDMDL
MODEL 3
REMARK VINA RESULT:      -9.1      8.166      9.172
REMARK  Name = 44259487
REMARK  5 active torsions:
REMARK  status: ('A' for Active; 'I' for Inactive)
REMARK    1  A    between atoms: O_11  and  C_32
REMARK    2  A    between atoms: O_12  and  C_33
REMARK    3  A    between atoms: C_16  and  C_19
REMARK    4  A    between atoms: C_18  and  C_20
REMARK    5  A    between atoms: C_27  and  C_29
REMARK                            x       y       z     vdW  Elec       q    Type
REMARK                         _______ _______ _______ _____ _____    ______ ____
ROOT
ATOM      1  O   UNL     1     111.870 132.679 143.059  0.00  0.00    +0.000 OA
ATOM      2  O   UNL     1     111.446 129.952 143.800  0.00  0.00    +0.000 OA
ATOM      3  O   UNL     1     111.208 132.015 145.797  0.00  0.00    +0.000 OA
ATOM      4  O   UNL     1     111.760 133.742 144.029  0.00  0.00    +0.000 OA
ATOM      5  O   UNL     1     111.460 134.233 145.618  0.00  0.00    +0.000 OA
ATOM      6  C   UNL     1     111.658 131.316 143.429  0.00  0.00    +0.000 A 
ATOM      7  C   UNL     1     111.690 132.115 143.633  0.00  0.00    +0.000 A 
ATOM      8  C   UNL     1     111.479 130.751 144.003  0.00  0.00    +0.000 A 
ATOM      9  C   UNL     1     111.543 132.349 144.410  0.00  0.00    +0.000 A 
ATOM     10  C   UNL     1     111.331 130.985 144.781  0.00  0.00    +0.000 A 
ATOM     11  C   UNL     1     111.364 131.784 144.983  0.00  0.00    +0.000 A 
ATOM     12  C   UNL     1     111.580 133.184 144.609  0.00  0.00    +0.000 A 
ATOM     13  C   UNL     1     111.240 132.845 146.014  0.00  0.00    +0.000 A 
ATOM     14  C   UNL     1     111.427 133.434 145.417  0.00  0.00    +0.000 A 
ENDROOT
BRANCH   6  21
ATOM     15  O   UNL     1     112.574 130.896 142.415  0.00  0.00    +0.000 OA
ATOM     16  O   UNL     1     110.416 131.217 142.348  0.00  0.00    +0.000 OA
ATOM     17  O   UNL     1     110.710 130.749 140.793  0.00  0.00    +0.000 OA
ATOM     18  O   UNL     1     112.246 130.379 140.320  0.00  0.00    +0.000 OA
ATOM     19  C   UNL     1     111.184 131.032 142.112  0.00  0.00    +0.000 C 
ATOM     20  C   UNL     1     111.331 130.798 141.334  0.00  0.00    +0.000 C 
ATOM     21  C   UNL     1     111.805 131.082 142.652  0.00  0.00    +0.000 C 
ATOM     22  C   UNL     1     112.099 130.613 141.098  0.00  0.00    +0.000 C 
ATOM     23  C   UNL     1     112.721 130.662 141.638  0.00  0.00    +0.000 C 
BRANCH  23  25
ATOM     24  O   UNL     1     114.092 131.034 141.485  0.00  0.00    +0.000 OA
ATOM     25  C   UNL     1     113.488 130.478 141.401  0.00  0.00    +0.000 C 
ENDBRANCH  23  25
ENDBRANCH   6  21
BRANCH  13  27
ATOM     26  O   UNL     1     110.647 133.768 149.127  0.00  0.00    +0.000 OA
ATOM     27  C   UNL     1     111.092 133.076 146.793  0.00  0.00    +0.000 A 
ATOM     28  C   UNL     1     111.690 133.024 147.360  0.00  0.00    +0.000 A 
ATOM     29  C   UNL     1     110.347 133.358 147.004  0.00  0.00    +0.000 A 
ATOM     30  C   UNL     1     110.198 133.589 147.782  0.00  0.00    +0.000 A 
ATOM     31  C   UNL     1     111.541 133.255 148.138  0.00  0.00    +0.000 A 
ATOM     32  C   UNL     1     110.795 133.537 148.349  0.00  0.00    +0.000 A 
BRANCH  30  33
ATOM     33  O   UNL     1     109.452 133.871 147.994  0.00  0.00    +0.000 OA
ATOM     34  C   UNL     1     108.774 133.503 147.700  0.00  0.00    +0.000 C 
ENDBRANCH  30  33
BRANCH  31  35
ATOM     35  O   UNL     1     112.138 133.203 148.705  0.00  0.00    +0.000 OA
ATOM     36  C   UNL     1     112.742 132.647 148.619  0.00  0.00    +0.000 C 
ENDBRANCH  31  35
ENDBRANCH  13  27
TORSDOF 5
ENDMDL
MODEL 4
REMARK VINA RESULT:      -9.0      1.518      1.965
REMARK  Name = 44259487
REMARK  5 active torsions:
REMARK  status: ('A' for Active; 'I' for Inactive)
REMARK    1  A    between atoms: O_11  and  C_32
REMARK    2  A    between atoms: O_12  and  C_33
REMARK    3  A    between atoms: C_16  and  C_19
REMARK    4  A    between atoms: C_18  and  C_20
REMARK    5  A    between atoms: C_27  and  C_29
REMARK                            x       y       z     vdW  Elec       q    Type
REMARK                         _______ _______ _______ _____ _____    ______ ____
ROOT
ATOM      1  O   UNL     1     106.744 125.549 144.128  0.00  0.00    +0.000 OA
ATOM      2  O   UNL     1     105.457 128.100 144.139  0.00  0.00    +0.000 OA
ATOM      3  O   UNL     1     104.981 126.265 146.308  0.00  0.00    +0.000 OA
ATOM      4  O   UNL     1     106.533 124.602 145.195  0.00  0.00    +0.000 OA
ATOM      5  O   UNL     1     105.788 124.206 146.660  0.00  0.00    +0.000 OA
ATOM      6  C   UNL     1     106.101 126.825 144.133  0.00  0.00    +0.000 A 
ATOM      7  C   UNL     1     106.239 126.093 144.488  0.00  0.00    +0.000 A 
ATOM      8  C   UNL     1     105.596 127.369 144.493  0.00  0.00    +0.000 A 
ATOM      9  C   UNL     1     105.874 125.905 145.203  0.00  0.00    +0.000 A 
ATOM     10  C   UNL     1     105.230 127.181 145.209  0.00  0.00    +0.000 A 
ATOM     11  C   UNL     1     105.369 126.449 145.563  0.00  0.00    +0.000 A 
ATOM     12  C   UNL     1     106.026 125.139 145.563  0.00  0.00    +0.000 A 
ATOM     13  C   UNL     1     105.122 125.505 146.683  0.00  0.00    +0.000 A 
ATOM     14  C   UNL     1     105.648 124.938 146.307  0.00  0.00    +0.000 A 
ENDROOT
BRANCH   6  21
ATOM     15  O   UNL     1     107.219 127.352 143.416  0.00  0.00    +0.000 OA
ATOM     16  O   UNL     1     105.329 126.521 142.707  0.00  0.00    +0.000 OA
ATOM     17  O   UNL     1     106.060 126.897 141.276  0.00  0.00    +0.000 OA
ATOM     18  O   UNL     1     107.563 127.575 141.272  0.00  0.00    +0.000 OA
ATOM     19  C   UNL     1     106.080 126.861 142.705  0.00  0.00    +0.000 C 
ATOM     20  C   UNL     1     106.446 127.049 141.989  0.00  0.00    +0.000 C 
ATOM     21  C   UNL     1     106.467 127.012 143.418  0.00  0.00    +0.000 C 
ATOM     22  C   UNL     1     107.198 127.388 141.988  0.00  0.00    +0.000 C 
ATOM     23  C   UNL     1     107.584 127.539 142.701  0.00  0.00    +0.000 C 
BRANCH  23  25
ATOM     24  O   UNL     1     108.603 128.297 143.358  0.00  0.00    +0.000 OA
ATOM     25  C   UNL     1     108.336 127.879 142.699  0.00  0.00    +0.000 C 
ENDBRANCH  23  25
ENDBRANCH   6  21
BRANCH  13  27
ATOM     26  O   UNL     1     103.649 124.766 149.542  0.00  0.00    +0.000 OA
ATOM     27  C   UNL     1     104.754 125.320 147.398  0.00  0.00    +0.000 A 
ATOM     28  C   UNL     1     105.119 125.513 148.112  0.00  0.00    +0.000 A 
ATOM     29  C   UNL     1     104.021 124.943 147.399  0.00  0.00    +0.000 A 
ATOM     30  C   UNL     1     103.652 124.758 148.113  0.00  0.00    +0.000 A 
ATOM     31  C   UNL     1     104.751 125.329 148.827  0.00  0.00    +0.000 A 
ATOM     32  C   UNL     1     104.017 124.951 148.827  0.00  0.00    +0.000 A 
BRANCH  30  33
ATOM     33  O   UNL     1     102.918 124.381 148.114  0.00  0.00    +0.000 OA
ATOM     34  C   UNL     1     102.349 124.587 147.553  0.00  0.00    +0.000 C 
ENDBRANCH  30  33
BRANCH  31  35
ATOM     35  O   UNL     1     105.116 125.521 149.541  0.00  0.00    +0.000 OA
ATOM     36  C   UNL     1     105.539 126.226 149.611  0.00  0.00    +0.000 C 
ENDBRANCH  31  35
ENDBRANCH  13  27
TORSDOF 5
ENDMDL
MODEL 5
REMARK VINA RESULT:      -9.0      8.536     10.144
REMARK  Name = 44259487
REMARK  5 active torsions:
REMARK  status: ('A' for Active; 'I' for Inactive)
REMARK    1  A    between atoms: O_11  and  C_32
REMARK    2  A    between atoms: O_12  and  C_33
REMARK    3  A    between atoms: C_16  and  C_19
REMARK    4  A    between atoms: C_18  and  C_20
REMARK    5  A    between atoms: C_27  and  C_29
REMARK                            x       y       z     vdW  Elec       q    Type
REMARK                         _______ _______ _______ _____ _____    ______ ____
ROOT
ATOM      1  O   UNL     1     113.831 125.973 139.175  0.00  0.00    +0.000 OA
ATOM      2  O   UNL     1     112.292 127.310 137.173  0.00  0.00    +0.000 OA
ATOM      3  O   UNL     1     113.040 128.728 139.566  0.00  0.00    +0.000 OA
ATOM      4  O   UNL     1     114.226 126.647 140.387  0.00  0.00    +0.000 OA
ATOM      5  O   UNL     1     114.223 128.043 141.340  0.00  0.00    +0.000 OA
ATOM      6  C   UNL     1     113.062 126.641 138.174  0.00  0.00    +0.000 A 
ATOM      7  C   UNL     1     113.444 126.649 138.905  0.00  0.00    +0.000 A 
ATOM      8  C   UNL     1     112.674 127.317 137.903  0.00  0.00    +0.000 A 
ATOM      9  C   UNL     1     113.439 127.333 139.365  0.00  0.00    +0.000 A 
ATOM     10  C   UNL     1     112.669 128.002 138.365  0.00  0.00    +0.000 A 
ATOM     11  C   UNL     1     113.052 128.009 139.095  0.00  0.00    +0.000 A 
ATOM     12  C   UNL     1     113.841 127.329 140.125  0.00  0.00    +0.000 A 
ATOM     13  C   UNL     1     113.437 128.742 140.328  0.00  0.00    +0.000 A 
ATOM     14  C   UNL     1     113.840 128.038 140.609  0.00  0.00    +0.000 A 
ENDROOT
BRANCH   6  21
ATOM     15  O   UNL     1     113.697 125.807 137.202  0.00  0.00    +0.000 OA
ATOM     16  O   UNL     1     111.809 125.571 138.273  0.00  0.00    +0.000 OA
ATOM     17  O   UNL     1     111.818 124.202 137.351  0.00  0.00    +0.000 OA
ATOM     18  O   UNL     1     113.079 123.904 136.331  0.00  0.00    +0.000 OA
ATOM     19  C   UNL     1     112.440 125.422 137.763  0.00  0.00    +0.000 C 
ATOM     20  C   UNL     1     112.444 124.737 137.302  0.00  0.00    +0.000 C 
ATOM     21  C   UNL     1     113.066 125.957 137.713  0.00  0.00    +0.000 C 
ATOM     22  C   UNL     1     113.075 124.588 136.791  0.00  0.00    +0.000 C 
ATOM     23  C   UNL     1     113.701 125.123 136.741  0.00  0.00    +0.000 C 
BRANCH  23  25
ATOM     24  O   UNL     1     114.957 125.509 136.179  0.00  0.00    +0.000 OA
ATOM     25  C   UNL     1     114.331 124.974 136.231  0.00  0.00    +0.000 C 
ENDBRANCH  23  25
ENDBRANCH   6  21
BRANCH  13  27
ATOM     26  O   UNL     1     113.412 131.488 142.160  0.00  0.00    +0.000 OA
ATOM     27  C   UNL     1     113.430 129.429 140.787  0.00  0.00    +0.000 A 
ATOM     28  C   UNL     1     112.844 129.539 141.357  0.00  0.00    +0.000 A 
ATOM     29  C   UNL     1     114.010 130.005 140.674  0.00  0.00    +0.000 A 
ATOM     30  C   UNL     1     114.004 130.692 141.131  0.00  0.00    +0.000 A 
ATOM     31  C   UNL     1     112.838 130.225 141.815  0.00  0.00    +0.000 A 
ATOM     32  C   UNL     1     113.418 130.802 141.702  0.00  0.00    +0.000 A 
BRANCH  30  33
ATOM     33  O   UNL     1     114.583 131.268 141.019  0.00  0.00    +0.000 OA
ATOM     34  C   UNL     1     115.280 131.079 140.618  0.00  0.00    +0.000 C 
ENDBRANCH  30  33
BRANCH  31  35
ATOM     35  O   UNL     1     112.253 130.335 142.385  0.00  0.00    +0.000 OA
ATOM     36  C   UNL     1     111.477 130.098 142.232  0.00  0.00    +0.000 C 
ENDBRANCH  31  35
ENDBRANCH  13  27
TORSDOF 5
ENDMDL
MODEL 6
REMARK VINA RESULT:      -8.9      9.139     11.262
REMARK  Name = 44259487
REMARK  5 active torsions:
REMARK  status: ('A' for Active; 'I' for Inactive)
REMARK    1  A    between atoms: O_11  and  C_32
REMARK    2  A    between atoms: O_12  and  C_33
REMARK    3  A    between atoms: C_16  and  C_19
REMARK    4  A    between atoms: C_18  and  C_20
REMARK    5  A    between atoms: C_27  and  C_29
REMARK                            x       y       z     vdW  Elec       q    Type
REMARK                         _______ _______ _______ _____ _____    ______ ____
ROOT
ATOM      1  O   UNL     1     112.987 129.417 139.080  0.00  0.00    +0.000 OA
ATOM      2  O   UNL     1     114.110 127.919 141.239  0.00  0.00    +0.000 OA
ATOM      3  O   UNL     1     113.508 126.589 138.755  0.00  0.00    +0.000 OA
ATOM      4  O   UNL     1     112.672 128.789 137.821  0.00  0.00    +0.000 OA
ATOM      5  O   UNL     1     112.636 127.400 136.859  0.00  0.00    +0.000 OA
ATOM      6  C   UNL     1     113.549 128.669 140.160  0.00  0.00    +0.000 A 
ATOM      7  C   UNL     1     113.261 128.702 139.387  0.00  0.00    +0.000 A 
ATOM      8  C   UNL     1     113.822 127.953 140.467  0.00  0.00    +0.000 A 
ATOM      9  C   UNL     1     113.246 128.021 138.923  0.00  0.00    +0.000 A 
ATOM     10  C   UNL     1     113.807 127.271 140.002  0.00  0.00    +0.000 A 
ATOM     11  C   UNL     1     113.519 127.306 139.230  0.00  0.00    +0.000 A 
ATOM     12  C   UNL     1     112.943 128.069 138.119  0.00  0.00    +0.000 A 
ATOM     13  C   UNL     1     113.209 126.619 137.950  0.00  0.00    +0.000 A 
ATOM     14  C   UNL     1     112.925 127.363 137.630  0.00  0.00    +0.000 A 
ENDROOT
BRANCH   6  21
ATOM     15  O   UNL     1     114.210 129.862 140.587  0.00  0.00    +0.000 OA
ATOM     16  O   UNL     1     112.287 129.007 141.168  0.00  0.00    +0.000 OA
ATOM     17  O   UNL     1     112.317 130.370 142.098  0.00  0.00    +0.000 OA
ATOM     18  O   UNL     1     113.608 131.392 142.021  0.00  0.00    +0.000 OA
ATOM     19  C   UNL     1     112.933 129.519 141.129  0.00  0.00    +0.000 C 
ATOM     20  C   UNL     1     112.948 130.200 141.594  0.00  0.00    +0.000 C 
ATOM     21  C   UNL     1     113.564 129.349 140.625  0.00  0.00    +0.000 C 
ATOM     22  C   UNL     1     113.594 130.712 141.555  0.00  0.00    +0.000 C 
ATOM     23  C   UNL     1     114.225 130.542 141.051  0.00  0.00    +0.000 C 
BRANCH  23  25
ATOM     24  O   UNL     1     115.570 130.810 140.650  0.00  0.00    +0.000 OA
ATOM     25  C   UNL     1     114.870 131.054 141.013  0.00  0.00    +0.000 C 
ENDBRANCH  23  25
ENDBRANCH   6  21
BRANCH  13  27
ATOM     26  O   UNL     1     113.157 123.886 136.101  0.00  0.00    +0.000 OA
ATOM     27  C   UNL     1     113.196 125.935 137.488  0.00  0.00    +0.000 A 
ATOM     28  C   UNL     1     112.531 125.446 137.493  0.00  0.00    +0.000 A 
ATOM     29  C   UNL     1     113.847 125.741 137.020  0.00  0.00    +0.000 A 
ATOM     30  C   UNL     1     113.834 125.058 136.558  0.00  0.00    +0.000 A 
ATOM     31  C   UNL     1     112.518 124.763 137.030  0.00  0.00    +0.000 A 
ATOM     32  C   UNL     1     113.170 124.569 136.563  0.00  0.00    +0.000 A 
BRANCH  30  33
ATOM     33  O   UNL     1     114.486 124.864 136.091  0.00  0.00    +0.000 OA
ATOM     34  C   UNL     1     115.240 125.122 136.307  0.00  0.00    +0.000 C 
ENDBRANCH  30  33
BRANCH  31  35
ATOM     35  O   UNL     1     111.854 124.274 137.036  0.00  0.00    +0.000 OA
ATOM     36  C   UNL     1     111.380 124.229 137.709  0.00  0.00    +0.000 C 
ENDBRANCH  31  35
ENDBRANCH  13  27
TORSDOF 5
ENDMDL
MODEL 7
REMARK VINA RESULT:      -8.6      9.299     10.907
REMARK  Name = 44259487
REMARK  5 active torsions:
REMARK  status: ('A' for Active; 'I' for Inactive)
REMARK    1  A    between atoms: O_11  and  C_32
REMARK    2  A    between atoms: O_12  and  C_33
REMARK    3  A    between atoms: C_16  and  C_19
REMARK    4  A    between atoms: C_18  and  C_20
REMARK    5  A    between atoms: C_27  and  C_29
REMARK                            x       y       z     vdW  Elec       q    Type
REMARK                         _______ _______ _______ _____ _____    ______ ____
ROOT
ATOM      1  O   UNL     1     110.754 129.824 135.907  0.00  0.00    +0.000 OA
ATOM      2  O   UNL     1     108.901 128.955 137.902  0.00  0.00    +0.000 OA
ATOM      3  O   UNL     1     111.241 127.366 137.354  0.00  0.00    +0.000 OA
ATOM      4  O   UNL     1     111.937 129.057 135.603  0.00  0.00    +0.000 OA
ATOM      5  O   UNL     1     112.903 127.700 135.891  0.00  0.00    +0.000 OA
ATOM      6  C   UNL     1     109.827 129.390 136.904  0.00  0.00    +0.000 A 
ATOM      7  C   UNL     1     110.524 129.275 136.478  0.00  0.00    +0.000 A 
ATOM      8  C   UNL     1     109.597 128.841 137.475  0.00  0.00    +0.000 A 
ATOM      9  C   UNL     1     110.991 128.611 136.623  0.00  0.00    +0.000 A 
ATOM     10  C   UNL     1     110.065 128.176 137.621  0.00  0.00    +0.000 A 
ATOM     11  C   UNL     1     110.762 128.062 137.194  0.00  0.00    +0.000 A 
ATOM     12  C   UNL     1     111.716 128.502 136.172  0.00  0.00    +0.000 A 
ATOM     13  C   UNL     1     111.967 127.241 136.913  0.00  0.00    +0.000 A 
ATOM     14  C   UNL     1     112.206 127.813 136.319  0.00  0.00    +0.000 A 
ENDROOT
BRANCH   6  21
ATOM     15  O   UNL     1     109.510 130.760 137.160  0.00  0.00    +0.000 OA
ATOM     16  O   UNL     1     108.592 129.307 135.814  0.00  0.00    +0.000 OA
ATOM     17  O   UNL     1     107.656 130.635 135.524  0.00  0.00    +0.000 OA
ATOM     18  O   UNL     1     107.957 132.046 136.325  0.00  0.00    +0.000 OA
ATOM     19  C   UNL     1     108.742 130.012 136.215  0.00  0.00    +0.000 C 
ATOM     20  C   UNL     1     108.274 130.677 136.070  0.00  0.00    +0.000 C 
ATOM     21  C   UNL     1     109.360 130.054 136.760  0.00  0.00    +0.000 C 
ATOM     22  C   UNL     1     108.425 131.382 136.470  0.00  0.00    +0.000 C 
ATOM     23  C   UNL     1     109.042 131.423 137.016  0.00  0.00    +0.000 C 
BRANCH  23  25
ATOM     24  O   UNL     1     109.238 132.135 138.239  0.00  0.00    +0.000 OA
ATOM     25  C   UNL     1     109.192 132.128 137.416  0.00  0.00    +0.000 C 
ENDBRANCH  23  25
ENDBRANCH   6  21
BRANCH  13  27
ATOM     26  O   UNL     1     113.826 124.577 137.501  0.00  0.00    +0.000 OA
ATOM     27  C   UNL     1     112.432 126.575 137.061  0.00  0.00    +0.000 A 
ATOM     28  C   UNL     1     113.027 126.605 137.632  0.00  0.00    +0.000 A 
ATOM     29  C   UNL     1     112.302 125.879 136.636  0.00  0.00    +0.000 A 
ATOM     30  C   UNL     1     112.767 125.214 136.783  0.00  0.00    +0.000 A 
ATOM     31  C   UNL     1     113.491 125.939 137.779  0.00  0.00    +0.000 A 
ATOM     32  C   UNL     1     113.361 125.243 137.354  0.00  0.00    +0.000 A 
BRANCH  30  33
ATOM     33  O   UNL     1     112.637 124.518 136.359  0.00  0.00    +0.000 OA
ATOM     34  C   UNL     1     111.866 124.255 136.226  0.00  0.00    +0.000 C 
ENDBRANCH  30  33
BRANCH  31  35
ATOM     35  O   UNL     1     114.086 125.968 138.350  0.00  0.00    +0.000 OA
ATOM     36  C   UNL     1     113.942 126.331 139.077  0.00  0.00    +0.000 C 
ENDBRANCH  31  35
ENDBRANCH  13  27
TORSDOF 5
ENDMDL
