MODEL 1
REMARK VINA RESULT:      -7.9      0.000      0.000
REMARK  Name = 10914422
REMARK  4 active torsions:
REMARK  status: ('A' for Active; 'I' for Inactive)
REMARK    1  A    between atoms: O_2  and  C_14
REMARK    2  A    between atoms: O_3  and  C_17
REMARK    3  A    between atoms: O_5  and  C_19
REMARK    4  A    between atoms: C_8  and  C_10
REMARK                            x       y       z     vdW  Elec       q    Type
REMARK                         _______ _______ _______ _____ _____    ______ ____
ROOT
ATOM      1  O   UNL     1     105.075 124.364 147.448  0.00  0.00    +0.000 OA
ATOM      2  O   UNL     1     107.272 125.923 146.403  0.00  0.00    +0.000 OA
ATOM      3  O   UNL     1     105.992 125.902 145.739  0.00  0.00    +0.000 OA
ATOM      4  C   UNL     1     106.162 125.135 146.933  0.00  0.00    +0.000 A 
ATOM      5  C   UNL     1     104.598 124.619 146.825  0.00  0.00    +0.000 A 
ATOM      6  C   UNL     1     105.856 124.622 147.502  0.00  0.00    +0.000 A 
ATOM      7  C   UNL     1     105.686 125.389 146.309  0.00  0.00    +0.000 A 
ATOM      8  C   UNL     1     104.904 125.131 146.255  0.00  0.00    +0.000 A 
ATOM      9  C   UNL     1     106.975 125.411 146.977  0.00  0.00    +0.000 A 
ATOM     10  C   UNL     1     106.343 124.350 148.157  0.00  0.00    +0.000 A 
ATOM     11  C   UNL     1     107.158 124.615 148.218  0.00  0.00    +0.000 A 
ATOM     12  C   UNL     1     107.476 125.149 147.625  0.00  0.00    +0.000 A 
ENDROOT
BRANCH   5  13
ATOM     13  C   UNL     1     103.817 124.361 146.771  0.00  0.00    +0.000 A 
ATOM     14  C   UNL     1     103.628 123.717 146.291  0.00  0.00    +0.000 A 
ATOM     15  C   UNL     1     103.224 124.746 147.196  0.00  0.00    +0.000 A 
ATOM     16  C   UNL     1     102.443 124.489 147.142  0.00  0.00    +0.000 A 
ATOM     17  C   UNL     1     102.845 123.459 146.236  0.00  0.00    +0.000 A 
ATOM     18  C   UNL     1     102.254 123.845 146.662  0.00  0.00    +0.000 A 
BRANCH  14  19
ATOM     19  O   UNL     1     104.219 123.331 145.865  0.00  0.00    +0.000 OA
ATOM     20  C   UNL     1     104.021 122.739 145.327  0.00  0.00    +0.000 C 
ENDBRANCH  14  19
BRANCH  16  21
ATOM     21  O   UNL     1     101.851 124.874 147.568  0.00  0.00    +0.000 OA
ATOM     22  C   UNL     1     101.410 124.461 148.129  0.00  0.00    +0.000 C 
ENDBRANCH  16  21
ENDBRANCH   5  13
BRANCH  11  23
ATOM     23  O   UNL     1     107.632 124.359 148.843  0.00  0.00    +0.000 OA
ATOM     24  C   UNL     1     107.474 124.614 149.612  0.00  0.00    +0.000 C 
ENDBRANCH  11  23
TORSDOF 4
ENDMDL
MODEL 2
REMARK VINA RESULT:      -7.6      1.111      4.247
REMARK  Name = 10914422
REMARK  4 active torsions:
REMARK  status: ('A' for Active; 'I' for Inactive)
REMARK    1  A    between atoms: O_2  and  C_14
REMARK    2  A    between atoms: O_3  and  C_17
REMARK    3  A    between atoms: O_5  and  C_19
REMARK    4  A    between atoms: C_8  and  C_10
REMARK                            x       y       z     vdW  Elec       q    Type
REMARK                         _______ _______ _______ _____ _____    ______ ____
ROOT
ATOM      1  O   UNL     1     104.099 124.473 147.811  0.00  0.00    +0.000 OA
ATOM      2  O   UNL     1     102.738 123.520 145.447  0.00  0.00    +0.000 OA
ATOM      3  O   UNL     1     104.087 124.027 145.377  0.00  0.00    +0.000 OA
ATOM      4  C   UNL     1     103.425 124.002 146.644  0.00  0.00    +0.000 A 
ATOM      5  C   UNL     1     104.766 124.647 147.357  0.00  0.00    +0.000 A 
ATOM      6  C   UNL     1     103.430 124.151 147.455  0.00  0.00    +0.000 A 
ATOM      7  C   UNL     1     104.091 124.175 146.189  0.00  0.00    +0.000 A 
ATOM      8  C   UNL     1     104.762 124.499 146.546  0.00  0.00    +0.000 A 
ATOM      9  C   UNL     1     102.733 123.665 146.259  0.00  0.00    +0.000 A 
ATOM     10  C   UNL     1     102.742 123.974 147.939  0.00  0.00    +0.000 A 
ATOM     11  C   UNL     1     102.041 123.637 147.573  0.00  0.00    +0.000 A 
ATOM     12  C   UNL     1     102.037 123.482 146.728  0.00  0.00    +0.000 A 
ENDROOT
BRANCH   5  13
ATOM     13  C   UNL     1     105.436 124.970 147.714  0.00  0.00    +0.000 A 
ATOM     14  C   UNL     1     105.520 125.789 147.768  0.00  0.00    +0.000 A 
ATOM     15  C   UNL     1     106.022 124.474 148.016  0.00  0.00    +0.000 A 
ATOM     16  C   UNL     1     106.692 124.797 148.373  0.00  0.00    +0.000 A 
ATOM     17  C   UNL     1     106.191 126.112 148.125  0.00  0.00    +0.000 A 
ATOM     18  C   UNL     1     106.776 125.616 148.427  0.00  0.00    +0.000 A 
BRANCH  14  19
ATOM     19  O   UNL     1     104.934 126.285 147.466  0.00  0.00    +0.000 OA
ATOM     20  C   UNL     1     105.013 127.103 147.531  0.00  0.00    +0.000 C 
ENDBRANCH  14  19
BRANCH  16  21
ATOM     21  O   UNL     1     107.278 124.302 148.675  0.00  0.00    +0.000 OA
ATOM     22  C   UNL     1     107.622 124.467 149.406  0.00  0.00    +0.000 C 
ENDBRANCH  16  21
ENDBRANCH   5  13
BRANCH  11  23
ATOM     23  O   UNL     1     101.376 123.465 148.030  0.00  0.00    +0.000 OA
ATOM     24  C   UNL     1     101.321 122.739 148.420  0.00  0.00    +0.000 C 
ENDBRANCH  11  23
TORSDOF 4
ENDMDL
MODEL 3
REMARK VINA RESULT:      -7.4     12.633     14.223
REMARK  Name = 10914422
REMARK  4 active torsions:
REMARK  status: ('A' for Active; 'I' for Inactive)
REMARK    1  A    between atoms: O_2  and  C_14
REMARK    2  A    between atoms: O_3  and  C_17
REMARK    3  A    between atoms: O_5  and  C_19
REMARK    4  A    between atoms: C_8  and  C_10
REMARK                            x       y       z     vdW  Elec       q    Type
REMARK                         _______ _______ _______ _____ _____    ______ ____
ROOT
ATOM      1  O   UNL     1     112.275 127.213 136.035  0.00  0.00    +0.000 OA
ATOM      2  O   UNL     1     112.499 124.406 136.683  0.00  0.00    +0.000 OA
ATOM      3  O   UNL     1     113.556 125.331 137.007  0.00  0.00    +0.000 OA
ATOM      4  C   UNL     1     112.384 125.825 136.355  0.00  0.00    +0.000 A 
ATOM      5  C   UNL     1     113.021 127.347 136.364  0.00  0.00    +0.000 A 
ATOM      6  C   UNL     1     111.958 126.452 136.031  0.00  0.00    +0.000 A 
ATOM      7  C   UNL     1     113.129 125.958 136.683  0.00  0.00    +0.000 A 
ATOM      8  C   UNL     1     113.447 126.720 136.687  0.00  0.00    +0.000 A 
ATOM      9  C   UNL     1     112.064 125.027 136.357  0.00  0.00    +0.000 A 
ATOM     10  C   UNL     1     111.180 126.325 135.686  0.00  0.00    +0.000 A 
ATOM     11  C   UNL     1     110.844 125.535 135.679  0.00  0.00    +0.000 A 
ATOM     12  C   UNL     1     111.289 124.881 136.016  0.00  0.00    +0.000 A 
ENDROOT
BRANCH   5  13
ATOM     13  C   UNL     1     113.338 128.108 136.368  0.00  0.00    +0.000 A 
ATOM     14  C   UNL     1     113.176 128.619 136.995  0.00  0.00    +0.000 A 
ATOM     15  C   UNL     1     113.819 128.359 135.746  0.00  0.00    +0.000 A 
ATOM     16  C   UNL     1     114.137 129.119 135.750  0.00  0.00    +0.000 A 
ATOM     17  C   UNL     1     113.494 129.381 137.000  0.00  0.00    +0.000 A 
ATOM     18  C   UNL     1     113.975 129.630 136.377  0.00  0.00    +0.000 A 
BRANCH  14  19
ATOM     19  O   UNL     1     112.696 128.370 137.617  0.00  0.00    +0.000 OA
ATOM     20  C   UNL     1     112.533 128.880 138.243  0.00  0.00    +0.000 C 
ENDBRANCH  14  19
BRANCH  16  21
ATOM     21  O   UNL     1     114.618 129.370 135.128  0.00  0.00    +0.000 OA
ATOM     22  C   UNL     1     114.972 130.114 135.154  0.00  0.00    +0.000 C 
ENDBRANCH  16  21
ENDBRANCH   5  13
BRANCH  11  23
ATOM     23  O   UNL     1     110.099 125.404 135.350  0.00  0.00    +0.000 OA
ATOM     24  C   UNL     1     109.885 125.782 134.649  0.00  0.00    +0.000 C 
ENDBRANCH  11  23
TORSDOF 4
ENDMDL
MODEL 4
REMARK VINA RESULT:      -7.3     10.054     11.507
REMARK  Name = 10914422
REMARK  4 active torsions:
REMARK  status: ('A' for Active; 'I' for Inactive)
REMARK    1  A    between atoms: O_2  and  C_14
REMARK    2  A    between atoms: O_3  and  C_17
REMARK    3  A    between atoms: O_5  and  C_19
REMARK    4  A    between atoms: C_8  and  C_10
REMARK                            x       y       z     vdW  Elec       q    Type
REMARK                         _______ _______ _______ _____ _____    ______ ____
ROOT
ATOM      1  O   UNL     1     112.064 126.151 138.114  0.00  0.00    +0.000 OA
ATOM      2  O   UNL     1     111.211 126.293 140.871  0.00  0.00    +0.000 OA
ATOM      3  O   UNL     1     110.380 125.678 139.865  0.00  0.00    +0.000 OA
ATOM      4  C   UNL     1     111.644 126.222 139.478  0.00  0.00    +0.000 A 
ATOM      5  C   UNL     1     111.362 125.765 137.917  0.00  0.00    +0.000 A 
ATOM      6  C   UNL     1     112.205 126.379 138.894  0.00  0.00    +0.000 A 
ATOM      7  C   UNL     1     110.942 125.836 139.282  0.00  0.00    +0.000 A 
ATOM      8  C   UNL     1     110.801 125.607 138.501  0.00  0.00    +0.000 A 
ATOM      9  C   UNL     1     111.778 126.455 140.295  0.00  0.00    +0.000 A 
ATOM     10  C   UNL     1     112.941 126.781 139.086  0.00  0.00    +0.000 A 
ATOM     11  C   UNL     1     113.093 127.022 139.897  0.00  0.00    +0.000 A 
ATOM     12  C   UNL     1     112.507 126.857 140.505  0.00  0.00    +0.000 A 
ENDROOT
BRANCH   5  13
ATOM     13  C   UNL     1     111.222 125.536 137.138  0.00  0.00    +0.000 A 
ATOM     14  C   UNL     1     111.481 124.800 136.871  0.00  0.00    +0.000 A 
ATOM     15  C   UNL     1     110.822 126.043 136.624  0.00  0.00    +0.000 A 
ATOM     16  C   UNL     1     110.681 125.815 135.845  0.00  0.00    +0.000 A 
ATOM     17  C   UNL     1     111.340 124.570 136.090  0.00  0.00    +0.000 A 
ATOM     18  C   UNL     1     110.940 125.078 135.578  0.00  0.00    +0.000 A 
BRANCH  14  19
ATOM     19  O   UNL     1     111.880 124.292 137.383  0.00  0.00    +0.000 OA
ATOM     20  C   UNL     1     112.144 123.558 137.115  0.00  0.00    +0.000 C 
ENDBRANCH  14  19
BRANCH  16  21
ATOM     21  O   UNL     1     110.281 126.322 135.331  0.00  0.00    +0.000 OA
ATOM     22  C   UNL     1     109.841 126.014 134.706  0.00  0.00    +0.000 C 
ENDBRANCH  16  21
ENDBRANCH   5  13
BRANCH  11  23
ATOM     23  O   UNL     1     113.795 127.407 140.090  0.00  0.00    +0.000 OA
ATOM     24  C   UNL     1     114.340 127.045 140.593  0.00  0.00    +0.000 C 
ENDBRANCH  11  23
TORSDOF 4
ENDMDL
MODEL 5
REMARK VINA RESULT:      -7.3     11.806     13.482
REMARK  Name = 10914422
REMARK  4 active torsions:
REMARK  status: ('A' for Active; 'I' for Inactive)
REMARK    1  A    between atoms: O_2  and  C_14
REMARK    2  A    between atoms: O_3  and  C_17
REMARK    3  A    between atoms: O_5  and  C_19
REMARK    4  A    between atoms: C_8  and  C_10
REMARK                            x       y       z     vdW  Elec       q    Type
REMARK                         _______ _______ _______ _____ _____    ______ ____
ROOT
ATOM      1  O   UNL     1     112.109 126.656 136.433  0.00  0.00    +0.000 OA
ATOM      2  O   UNL     1     110.073 125.332 134.867  0.00  0.00    +0.000 OA
ATOM      3  O   UNL     1     110.910 124.592 135.779  0.00  0.00    +0.000 OA
ATOM      4  C   UNL     1     111.102 126.003 135.659  0.00  0.00    +0.000 A 
ATOM      5  C   UNL     1     112.317 125.934 136.773  0.00  0.00    +0.000 A 
ATOM      6  C   UNL     1     111.502 126.691 135.877  0.00  0.00    +0.000 A 
ATOM      7  C   UNL     1     111.310 125.280 135.997  0.00  0.00    +0.000 A 
ATOM      8  C   UNL     1     111.918 125.246 136.555  0.00  0.00    +0.000 A 
ATOM      9  C   UNL     1     110.467 126.026 135.079  0.00  0.00    +0.000 A 
ATOM     10  C   UNL     1     111.294 127.450 135.530  0.00  0.00    +0.000 A 
ATOM     11  C   UNL     1     110.662 127.492 134.950  0.00  0.00    +0.000 A 
ATOM     12  C   UNL     1     110.246 126.775 134.723  0.00  0.00    +0.000 A 
ENDROOT
BRANCH   5  13
ATOM     13  C   UNL     1     112.924 125.899 137.330  0.00  0.00    +0.000 A 
ATOM     14  C   UNL     1     113.677 125.649 137.103  0.00  0.00    +0.000 A 
ATOM     15  C   UNL     1     112.780 126.114 138.113  0.00  0.00    +0.000 A 
ATOM     16  C   UNL     1     113.387 126.079 138.670  0.00  0.00    +0.000 A 
ATOM     17  C   UNL     1     114.286 125.614 137.661  0.00  0.00    +0.000 A 
ATOM     18  C   UNL     1     114.140 125.829 138.444  0.00  0.00    +0.000 A 
BRANCH  14  19
ATOM     19  O   UNL     1     113.824 125.434 136.321  0.00  0.00    +0.000 OA
ATOM     20  C   UNL     1     114.581 125.208 136.089  0.00  0.00    +0.000 C 
ENDBRANCH  14  19
BRANCH  16  21
ATOM     21  O   UNL     1     113.242 126.294 139.453  0.00  0.00    +0.000 OA
ATOM     22  C   UNL     1     113.741 126.829 139.834  0.00  0.00    +0.000 C 
ENDBRANCH  16  21
ENDBRANCH   5  13
BRANCH  11  23
ATOM     23  O   UNL     1     110.457 128.216 134.612  0.00  0.00    +0.000 OA
ATOM     24  C   UNL     1     109.921 128.713 134.996  0.00  0.00    +0.000 C 
ENDBRANCH  11  23
TORSDOF 4
ENDMDL
MODEL 6
REMARK VINA RESULT:      -7.3     11.387     13.108
REMARK  Name = 10914422
REMARK  4 active torsions:
REMARK  status: ('A' for Active; 'I' for Inactive)
REMARK    1  A    between atoms: O_2  and  C_14
REMARK    2  A    between atoms: O_3  and  C_17
REMARK    3  A    between atoms: O_5  and  C_19
REMARK    4  A    between atoms: C_8  and  C_10
REMARK                            x       y       z     vdW  Elec       q    Type
REMARK                         _______ _______ _______ _____ _____    ______ ____
ROOT
ATOM      1  O   UNL     1     111.411 125.955 136.903  0.00  0.00    +0.000 OA
ATOM      2  O   UNL     1     109.166 126.282 135.114  0.00  0.00    +0.000 OA
ATOM      3  O   UNL     1     110.272 125.421 134.772  0.00  0.00    +0.000 OA
ATOM      4  C   UNL     1     110.301 126.117 136.020  0.00  0.00    +0.000 A 
ATOM      5  C   UNL     1     111.763 125.436 136.366  0.00  0.00    +0.000 A 
ATOM      6  C   UNL     1     110.680 126.295 136.730  0.00  0.00    +0.000 A 
ATOM      7  C   UNL     1     110.651 125.599 135.482  0.00  0.00    +0.000 A 
ATOM      8  C   UNL     1     111.383 125.258 135.656  0.00  0.00    +0.000 A 
ATOM      9  C   UNL     1     109.538 126.465 135.827  0.00  0.00    +0.000 A 
ATOM     10  C   UNL     1     110.324 126.834 137.298  0.00  0.00    +0.000 A 
ATOM     11  C   UNL     1     109.563 127.191 137.123  0.00  0.00    +0.000 A 
ATOM     12  C   UNL     1     109.167 127.006 136.382  0.00  0.00    +0.000 A 
ENDROOT
BRANCH   5  13
ATOM     13  C   UNL     1     112.494 125.096 136.539  0.00  0.00    +0.000 A 
ATOM     14  C   UNL     1     112.530 124.329 136.843  0.00  0.00    +0.000 A 
ATOM     15  C   UNL     1     113.189 125.521 136.410  0.00  0.00    +0.000 A 
ATOM     16  C   UNL     1     113.919 125.181 136.583  0.00  0.00    +0.000 A 
ATOM     17  C   UNL     1     113.262 123.988 137.016  0.00  0.00    +0.000 A 
ATOM     18  C   UNL     1     113.956 124.414 136.886  0.00  0.00    +0.000 A 
BRANCH  14  19
ATOM     19  O   UNL     1     111.836 123.903 136.973  0.00  0.00    +0.000 OA
ATOM     20  C   UNL     1     111.872 123.139 137.280  0.00  0.00    +0.000 C 
ENDBRANCH  14  19
BRANCH  16  21
ATOM     21  O   UNL     1     114.615 125.606 136.453  0.00  0.00    +0.000 OA
ATOM     22  C   UNL     1     115.220 125.278 135.999  0.00  0.00    +0.000 C 
ENDBRANCH  16  21
ENDBRANCH   5  13
BRANCH  11  23
ATOM     23  O   UNL     1     109.214 127.709 137.662  0.00  0.00    +0.000 OA
ATOM     24  C   UNL     1     109.543 128.455 137.790  0.00  0.00    +0.000 C 
ENDBRANCH  11  23
TORSDOF 4
ENDMDL
MODEL 7
REMARK VINA RESULT:      -7.3      7.320      8.396
REMARK  Name = 10914422
REMARK  4 active torsions:
REMARK  status: ('A' for Active; 'I' for Inactive)
REMARK    1  A    between atoms: O_2  and  C_14
REMARK    2  A    between atoms: O_3  and  C_17
REMARK    3  A    between atoms: O_5  and  C_19
REMARK    4  A    between atoms: C_8  and  C_10
REMARK                            x       y       z     vdW  Elec       q    Type
REMARK                         _______ _______ _______ _____ _____    ______ ____
ROOT
ATOM      1  O   UNL     1     103.467 130.379 142.151  0.00  0.00    +0.000 OA
ATOM      2  O   UNL     1     103.965 127.954 140.662  0.00  0.00    +0.000 OA
ATOM      3  O   UNL     1     102.989 128.916 140.214  0.00  0.00    +0.000 OA
ATOM      4  C   UNL     1     103.714 129.180 141.416  0.00  0.00    +0.000 A 
ATOM      5  C   UNL     1     102.901 130.604 141.595  0.00  0.00    +0.000 A 
ATOM      6  C   UNL     1     103.874 129.668 142.062  0.00  0.00    +0.000 A 
ATOM      7  C   UNL     1     103.148 129.404 140.860  0.00  0.00    +0.000 A 
ATOM      8  C   UNL     1     102.741 130.116 140.949  0.00  0.00    +0.000 A 
ATOM      9  C   UNL     1     104.131 128.435 141.311  0.00  0.00    +0.000 A 
ATOM     10  C   UNL     1     104.462 129.445 142.648  0.00  0.00    +0.000 A 
ATOM     11  C   UNL     1     104.888 128.704 142.560  0.00  0.00    +0.000 A 
ATOM     12  C   UNL     1     104.722 128.196 141.887  0.00  0.00    +0.000 A 
ENDROOT
BRANCH   5  13
ATOM     13  C   UNL     1     102.494 131.316 141.685  0.00  0.00    +0.000 A 
ATOM     14  C   UNL     1     102.769 131.998 141.311  0.00  0.00    +0.000 A 
ATOM     15  C   UNL     1     101.811 131.346 142.148  0.00  0.00    +0.000 A 
ATOM     16  C   UNL     1     101.405 132.058 142.237  0.00  0.00    +0.000 A 
ATOM     17  C   UNL     1     102.362 132.711 141.401  0.00  0.00    +0.000 A 
ATOM     18  C   UNL     1     101.680 132.740 141.863  0.00  0.00    +0.000 A 
BRANCH  14  19
ATOM     19  O   UNL     1     103.451 131.968 140.848  0.00  0.00    +0.000 OA
ATOM     20  C   UNL     1     103.748 132.657 140.506  0.00  0.00    +0.000 C 
ENDBRANCH  14  19
BRANCH  16  21
ATOM     21  O   UNL     1     100.722 132.089 142.700  0.00  0.00    +0.000 OA
ATOM     22  C   UNL     1     100.710 132.542 143.388  0.00  0.00    +0.000 C 
ENDBRANCH  16  21
ENDBRANCH   5  13
BRANCH  11  23
ATOM     23  O   UNL     1     105.454 128.483 143.118  0.00  0.00    +0.000 OA
ATOM     24  C   UNL     1     105.232 128.037 143.777  0.00  0.00    +0.000 C 
ENDBRANCH  11  23
TORSDOF 4
ENDMDL
MODEL 8
REMARK VINA RESULT:      -7.3     12.337     13.943
REMARK  Name = 10914422
REMARK  4 active torsions:
REMARK  status: ('A' for Active; 'I' for Inactive)
REMARK    1  A    between atoms: O_2  and  C_14
REMARK    2  A    between atoms: O_3  and  C_17
REMARK    3  A    between atoms: O_5  and  C_19
REMARK    4  A    between atoms: C_8  and  C_10
REMARK                            x       y       z     vdW  Elec       q    Type
REMARK                         _______ _______ _______ _____ _____    ______ ____
ROOT
ATOM      1  O   UNL     1     112.679 126.670 136.378  0.00  0.00    +0.000 OA
ATOM      2  O   UNL     1     110.246 125.506 135.341  0.00  0.00    +0.000 OA
ATOM      3  O   UNL     1     110.477 126.928 135.277  0.00  0.00    +0.000 OA
ATOM      4  C   UNL     1     111.476 126.093 135.866  0.00  0.00    +0.000 A 
ATOM      5  C   UNL     1     112.414 127.420 136.156  0.00  0.00    +0.000 A 
ATOM      6  C   UNL     1     112.210 126.007 136.233  0.00  0.00    +0.000 A 
ATOM      7  C   UNL     1     111.211 126.842 135.644  0.00  0.00    +0.000 A 
ATOM      8  C   UNL     1     111.680 127.506 135.789  0.00  0.00    +0.000 A 
ATOM      9  C   UNL     1     110.978 125.410 135.709  0.00  0.00    +0.000 A 
ATOM     10  C   UNL     1     112.497 125.232 136.469  0.00  0.00    +0.000 A 
ATOM     11  C   UNL     1     112.014 124.538 136.320  0.00  0.00    +0.000 A 
ATOM     12  C   UNL     1     111.249 124.628 135.938  0.00  0.00    +0.000 A 
ENDROOT
BRANCH   5  13
ATOM     13  C   UNL     1     112.883 128.082 136.301  0.00  0.00    +0.000 A 
ATOM     14  C   UNL     1     112.802 128.497 137.009  0.00  0.00    +0.000 A 
ATOM     15  C   UNL     1     113.432 128.332 135.737  0.00  0.00    +0.000 A 
ATOM     16  C   UNL     1     113.900 128.994 135.882  0.00  0.00    +0.000 A 
ATOM     17  C   UNL     1     113.271 129.161 137.155  0.00  0.00    +0.000 A 
ATOM     18  C   UNL     1     113.820 129.409 136.591  0.00  0.00    +0.000 A 
BRANCH  14  19
ATOM     19  O   UNL     1     112.254 128.249 137.573  0.00  0.00    +0.000 OA
ATOM     20  C   UNL     1     112.183 128.655 138.287  0.00  0.00    +0.000 C 
ENDBRANCH  14  19
BRANCH  16  21
ATOM     21  O   UNL     1     114.449 129.244 135.319  0.00  0.00    +0.000 OA
ATOM     22  C   UNL     1     114.793 129.990 135.380  0.00  0.00    +0.000 C 
ENDBRANCH  16  21
ENDBRANCH   5  13
BRANCH  11  23
ATOM     23  O   UNL     1     112.281 123.790 136.543  0.00  0.00    +0.000 OA
ATOM     24  C   UNL     1     111.983 123.432 137.224  0.00  0.00    +0.000 C 
ENDBRANCH  11  23
TORSDOF 4
ENDMDL
MODEL 9
REMARK VINA RESULT:      -7.2     10.545     12.452
REMARK  Name = 10914422
REMARK  4 active torsions:
REMARK  status: ('A' for Active; 'I' for Inactive)
REMARK    1  A    between atoms: O_2  and  C_14
REMARK    2  A    between atoms: O_3  and  C_17
REMARK    3  A    between atoms: O_5  and  C_19
REMARK    4  A    between atoms: C_8  and  C_10
REMARK                            x       y       z     vdW  Elec       q    Type
REMARK                         _______ _______ _______ _____ _____    ______ ____
ROOT
ATOM      1  O   UNL     1     112.484 126.172 138.265  0.00  0.00    +0.000 OA
ATOM      2  O   UNL     1     114.183 124.327 136.831  0.00  0.00    +0.000 OA
ATOM      3  O   UNL     1     114.720 125.196 137.849  0.00  0.00    +0.000 OA
ATOM      4  C   UNL     1     113.323 125.260 137.555  0.00  0.00    +0.000 A 
ATOM      5  C   UNL     1     113.136 126.435 138.698  0.00  0.00    +0.000 A 
ATOM      6  C   UNL     1     112.578 125.585 137.694  0.00  0.00    +0.000 A 
ATOM      7  C   UNL     1     113.975 125.521 137.988  0.00  0.00    +0.000 A 
ATOM      8  C   UNL     1     113.881 126.110 138.560  0.00  0.00    +0.000 A 
ATOM      9  C   UNL     1     113.434 124.647 136.962  0.00  0.00    +0.000 A 
ATOM     10  C   UNL     1     111.891 125.321 137.249  0.00  0.00    +0.000 A 
ATOM     11  C   UNL     1     111.983 124.709 136.653  0.00  0.00    +0.000 A 
ATOM     12  C   UNL     1     112.759 124.370 136.508  0.00  0.00    +0.000 A 
ENDROOT
BRANCH   5  13
ATOM     13  C   UNL     1     113.042 127.022 139.269  0.00  0.00    +0.000 A 
ATOM     14  C   UNL     1     113.092 127.817 139.055  0.00  0.00    +0.000 A 
ATOM     15  C   UNL     1     112.899 126.815 140.055  0.00  0.00    +0.000 A 
ATOM     16  C   UNL     1     112.806 127.402 140.626  0.00  0.00    +0.000 A 
ATOM     17  C   UNL     1     112.999 128.406 139.627  0.00  0.00    +0.000 A 
ATOM     18  C   UNL     1     112.855 128.197 140.412  0.00  0.00    +0.000 A 
BRANCH  14  19
ATOM     19  O   UNL     1     113.235 128.025 138.270  0.00  0.00    +0.000 OA
ATOM     20  C   UNL     1     113.237 128.819 138.047  0.00  0.00    +0.000 C 
ENDBRANCH  14  19
BRANCH  16  21
ATOM     21  O   UNL     1     112.663 127.195 141.412  0.00  0.00    +0.000 OA
ATOM     22  C   UNL     1     112.057 127.564 141.833  0.00  0.00    +0.000 C 
ENDBRANCH  16  21
ENDBRANCH   5  13
BRANCH  11  23
ATOM     23  O   UNL     1     111.329 124.449 136.222  0.00  0.00    +0.000 OA
ATOM     24  C   UNL     1     110.939 124.967 135.711  0.00  0.00    +0.000 C 
ENDBRANCH  11  23
TORSDOF 4
ENDMDL
MODEL 10
REMARK VINA RESULT:      -7.2     11.327     12.639
REMARK  Name = 10914422
REMARK  4 active torsions:
REMARK  status: ('A' for Active; 'I' for Inactive)
REMARK    1  A    between atoms: O_2  and  C_14
REMARK    2  A    between atoms: O_3  and  C_17
REMARK    3  A    between atoms: O_5  and  C_19
REMARK    4  A    between atoms: C_8  and  C_10
REMARK                            x       y       z     vdW  Elec       q    Type
REMARK                         _______ _______ _______ _____ _____    ______ ____
ROOT
ATOM      1  O   UNL     1     111.998 125.951 136.625  0.00  0.00    +0.000 OA
ATOM      2  O   UNL     1     113.126 123.356 137.212  0.00  0.00    +0.000 OA
ATOM      3  O   UNL     1     111.701 123.576 137.257  0.00  0.00    +0.000 OA
ATOM      4  C   UNL     1     112.557 124.669 136.915  0.00  0.00    +0.000 A 
ATOM      5  C   UNL     1     111.240 125.651 136.756  0.00  0.00    +0.000 A 
ATOM      6  C   UNL     1     112.656 125.460 136.704  0.00  0.00    +0.000 A 
ATOM      7  C   UNL     1     111.800 124.368 137.046  0.00  0.00    +0.000 A 
ATOM      8  C   UNL     1     111.142 124.859 136.967  0.00  0.00    +0.000 A 
ATOM      9  C   UNL     1     113.235 124.146 137.001  0.00  0.00    +0.000 A 
ATOM     10  C   UNL     1     113.439 125.785 136.564  0.00  0.00    +0.000 A 
ATOM     11  C   UNL     1     114.128 125.278 136.645  0.00  0.00    +0.000 A 
ATOM     12  C   UNL     1     114.025 124.453 136.865  0.00  0.00    +0.000 A 
ENDROOT
BRANCH   5  13
ATOM     13  C   UNL     1     110.583 126.141 136.677  0.00  0.00    +0.000 A 
ATOM     14  C   UNL     1     110.164 126.159 135.966  0.00  0.00    +0.000 A 
ATOM     15  C   UNL     1     110.342 126.615 137.309  0.00  0.00    +0.000 A 
ATOM     16  C   UNL     1     109.684 127.106 137.230  0.00  0.00    +0.000 A 
ATOM     17  C   UNL     1     109.506 126.650 135.887  0.00  0.00    +0.000 A 
ATOM     18  C   UNL     1     109.266 127.123 136.519  0.00  0.00    +0.000 A 
BRANCH  14  19
ATOM     19  O   UNL     1     110.404 125.686 135.334  0.00  0.00    +0.000 OA
ATOM     20  C   UNL     1     110.007 125.728 134.614  0.00  0.00    +0.000 C 
ENDBRANCH  14  19
BRANCH  16  21
ATOM     21  O   UNL     1     109.443 127.579 137.861  0.00  0.00    +0.000 OA
ATOM     22  C   UNL     1     109.656 128.376 137.884  0.00  0.00    +0.000 C 
ENDBRANCH  16  21
ENDBRANCH   5  13
BRANCH  11  23
ATOM     23  O   UNL     1     114.884 125.581 136.513  0.00  0.00    +0.000 OA
ATOM     24  C   UNL     1     115.229 125.518 135.766  0.00  0.00    +0.000 C 
ENDBRANCH  11  23
TORSDOF 4
ENDMDL
