MODEL 1
REMARK VINA RESULT:     -10.2      0.000      0.000
REMARK  Name = 160711
REMARK  3 active torsions:
REMARK  status: ('A' for Active; 'I' for Inactive)
REMARK    1  A    between atoms: C_12  and  C_16
REMARK    2  A    between atoms: C_15  and  C_17
REMARK    3  A    between atoms: C_22  and  C_26
REMARK                            x       y       z     vdW  Elec       q    Type
REMARK                         _______ _______ _______ _____ _____    ______ ____
ROOT
ATOM      1  O   UNL     1     104.235 124.573 138.772  0.00  0.00    +0.000 OA
ATOM      2  O   UNL     1     106.085 123.973 140.916  0.00  0.00    +0.000 OA
ATOM      3  O   UNL     1     105.000 126.605 140.666  0.00  0.00    +0.000 OA
ATOM      4  O   UNL     1     105.727 122.928 139.988  0.00  0.00    +0.000 OA
ATOM      5  C   UNL     1     105.542 125.290 140.791  0.00  0.00    +0.000 A 
ATOM      6  C   UNL     1     105.599 124.511 140.522  0.00  0.00    +0.000 A 
ATOM      7  C   UNL     1     105.057 125.828 140.397  0.00  0.00    +0.000 A 
ATOM      8  C   UNL     1     105.171 124.272 139.858  0.00  0.00    +0.000 A 
ATOM      9  C   UNL     1     104.686 124.811 139.464  0.00  0.00    +0.000 A 
ATOM     10  C   UNL     1     104.290 123.765 138.487  0.00  0.00    +0.000 C 
ATOM     11  C   UNL     1     104.629 125.588 139.734  0.00  0.00    +0.000 A 
ATOM     12  C   UNL     1     104.796 123.204 138.897  0.00  0.00    +0.000 C 
ATOM     13  C   UNL     1     105.239 123.459 139.587  0.00  0.00    +0.000 C 
ENDROOT
BRANCH   5  19
ATOM     14  O   UNL     1     105.638 125.458 142.207  0.00  0.00    +0.000 OA
ATOM     15  O   UNL     1     107.062 125.908 140.615  0.00  0.00    +0.000 OA
ATOM     16  O   UNL     1     107.918 126.385 141.942  0.00  0.00    +0.000 OA
ATOM     17  O   UNL     1     107.254 126.244 143.445  0.00  0.00    +0.000 OA
ATOM     18  C   UNL     1     106.730 125.837 141.366  0.00  0.00    +0.000 C 
ATOM     19  C   UNL     1     105.970 125.528 141.454  0.00  0.00    +0.000 C 
ATOM     20  C   UNL     1     107.158 126.076 142.031  0.00  0.00    +0.000 C 
ATOM     21  C   UNL     1     106.826 126.005 142.782  0.00  0.00    +0.000 C 
ATOM     22  C   UNL     1     106.066 125.696 142.870  0.00  0.00    +0.000 C 
BRANCH  22  24
ATOM     23  O   UNL     1     105.287 124.958 143.814  0.00  0.00    +0.000 OA
ATOM     24  C   UNL     1     105.734 125.625 143.622  0.00  0.00    +0.000 C 
ENDBRANCH  22  24
ENDBRANCH   5  19
BRANCH  10  26
ATOM     25  O   UNL     1     102.572 122.818 135.833  0.00  0.00    +0.000 OA
ATOM     26  C   UNL     1     103.861 123.528 137.823  0.00  0.00    +0.000 A 
ATOM     27  C   UNL     1     104.255 123.313 137.132  0.00  0.00    +0.000 A 
ATOM     28  C   UNL     1     103.037 123.507 137.851  0.00  0.00    +0.000 A 
ATOM     29  C   UNL     1     103.826 123.076 136.468  0.00  0.00    +0.000 A 
ATOM     30  C   UNL     1     102.608 123.271 137.188  0.00  0.00    +0.000 A 
ATOM     31  C   UNL     1     103.002 123.055 136.496  0.00  0.00    +0.000 A 
ENDBRANCH  10  26
TORSDOF 3
ENDMDL
MODEL 2
REMARK VINA RESULT:      -9.6      3.872      5.755
REMARK  Name = 160711
REMARK  3 active torsions:
REMARK  status: ('A' for Active; 'I' for Inactive)
REMARK    1  A    between atoms: C_12  and  C_16
REMARK    2  A    between atoms: C_15  and  C_17
REMARK    3  A    between atoms: C_22  and  C_26
REMARK                            x       y       z     vdW  Elec       q    Type
REMARK                         _______ _______ _______ _____ _____    ______ ____
ROOT
ATOM      1  O   UNL     1     103.710 129.936 142.328  0.00  0.00    +0.000 OA
ATOM      2  O   UNL     1     104.678 127.517 141.067  0.00  0.00    +0.000 OA
ATOM      3  O   UNL     1     105.746 128.336 143.588  0.00  0.00    +0.000 OA
ATOM      4  O   UNL     1     103.658 128.291 140.403  0.00  0.00    +0.000 OA
ATOM      5  C   UNL     1     105.213 127.927 142.328  0.00  0.00    +0.000 A 
ATOM      6  C   UNL     1     104.697 128.052 141.695  0.00  0.00    +0.000 A 
ATOM      7  C   UNL     1     105.232 128.461 142.957  0.00  0.00    +0.000 A 
ATOM      8  C   UNL     1     104.202 128.711 141.692  0.00  0.00    +0.000 A 
ATOM      9  C   UNL     1     104.221 129.246 142.320  0.00  0.00    +0.000 A 
ATOM     10  C   UNL     1     103.171 130.072 141.672  0.00  0.00    +0.000 C 
ATOM     11  C   UNL     1     104.736 129.120 142.952  0.00  0.00    +0.000 A 
ATOM     12  C   UNL     1     103.151 129.516 141.018  0.00  0.00    +0.000 C 
ATOM     13  C   UNL     1     103.670 128.831 141.027  0.00  0.00    +0.000 C 
ENDROOT
BRANCH   5  19
ATOM     14  O   UNL     1     105.444 126.555 142.655  0.00  0.00    +0.000 OA
ATOM     15  O   UNL     1     106.730 128.030 141.688  0.00  0.00    +0.000 OA
ATOM     16  O   UNL     1     107.720 126.710 141.696  0.00  0.00    +0.000 OA
ATOM     17  O   UNL     1     107.192 125.287 142.343  0.00  0.00    +0.000 OA
ATOM     18  C   UNL     1     106.467 127.319 142.012  0.00  0.00    +0.000 C 
ATOM     19  C   UNL     1     105.708 127.267 142.332  0.00  0.00    +0.000 C 
ATOM     20  C   UNL     1     106.961 126.658 142.016  0.00  0.00    +0.000 C 
ATOM     21  C   UNL     1     106.698 125.947 142.339  0.00  0.00    +0.000 C 
ATOM     22  C   UNL     1     105.939 125.895 142.659  0.00  0.00    +0.000 C 
BRANCH  22  24
ATOM     23  O   UNL     1     105.291 125.181 143.714  0.00  0.00    +0.000 OA
ATOM     24  C   UNL     1     105.675 125.184 142.983  0.00  0.00    +0.000 C 
ENDBRANCH  22  24
ENDBRANCH   5  19
BRANCH  10  26
ATOM     25  O   UNL     1     101.192 132.713 141.667  0.00  0.00    +0.000 OA
ATOM     26  C   UNL     1     102.677 130.732 141.671  0.00  0.00    +0.000 A 
ATOM     27  C   UNL     1     102.954 131.456 141.388  0.00  0.00    +0.000 A 
ATOM     28  C   UNL     1     101.904 130.669 141.952  0.00  0.00    +0.000 A 
ATOM     29  C   UNL     1     102.460 132.116 141.387  0.00  0.00    +0.000 A 
ATOM     30  C   UNL     1     101.409 131.329 141.950  0.00  0.00    +0.000 A 
ATOM     31  C   UNL     1     101.687 132.053 141.668  0.00  0.00    +0.000 A 
ENDBRANCH  10  26
TORSDOF 3
ENDMDL
MODEL 3
REMARK VINA RESULT:      -9.6      4.786      6.592
REMARK  Name = 160711
REMARK  3 active torsions:
REMARK  status: ('A' for Active; 'I' for Inactive)
REMARK    1  A    between atoms: C_12  and  C_16
REMARK    2  A    between atoms: C_15  and  C_17
REMARK    3  A    between atoms: C_22  and  C_26
REMARK                            x       y       z     vdW  Elec       q    Type
REMARK                         _______ _______ _______ _____ _____    ______ ____
ROOT
ATOM      1  O   UNL     1     106.193 127.295 144.786  0.00  0.00    +0.000 OA
ATOM      2  O   UNL     1     106.535 124.699 146.021  0.00  0.00    +0.000 OA
ATOM      3  O   UNL     1     106.722 127.068 147.609  0.00  0.00    +0.000 OA
ATOM      4  O   UNL     1     106.272 124.771 144.605  0.00  0.00    +0.000 OA
ATOM      5  C   UNL     1     106.629 125.884 146.816  0.00  0.00    +0.000 A 
ATOM      6  C   UNL     1     106.510 125.521 146.083  0.00  0.00    +0.000 A 
ATOM      7  C   UNL     1     106.604 126.706 146.878  0.00  0.00    +0.000 A 
ATOM      8  C   UNL     1     106.367 125.982 145.414  0.00  0.00    +0.000 A 
ATOM      9  C   UNL     1     106.342 126.804 145.477  0.00  0.00    +0.000 A 
ATOM     10  C   UNL     1     106.070 126.924 144.022  0.00  0.00    +0.000 C 
ATOM     11  C   UNL     1     106.460 127.166 146.208  0.00  0.00    +0.000 A 
ATOM     12  C   UNL     1     106.096 126.068 143.957  0.00  0.00    +0.000 C 
ATOM     13  C   UNL     1     106.245 125.593 144.657  0.00  0.00    +0.000 C 
ENDROOT
BRANCH   5  19
ATOM     14  O   UNL     1     106.139 125.138 147.932  0.00  0.00    +0.000 OA
ATOM     15  O   UNL     1     108.178 125.531 147.260  0.00  0.00    +0.000 OA
ATOM     16  O   UNL     1     108.464 124.609 148.598  0.00  0.00    +0.000 OA
ATOM     17  O   UNL     1     107.200 124.041 149.492  0.00  0.00    +0.000 OA
ATOM     18  C   UNL     1     107.547 125.247 147.707  0.00  0.00    +0.000 C 
ATOM     19  C   UNL     1     106.772 125.423 147.485  0.00  0.00    +0.000 C 
ATOM     20  C   UNL     1     107.689 124.786 148.376  0.00  0.00    +0.000 C 
ATOM     21  C   UNL     1     107.057 124.501 148.823  0.00  0.00    +0.000 C 
ATOM     22  C   UNL     1     106.283 124.677 148.601  0.00  0.00    +0.000 C 
BRANCH  22  24
ATOM     23  O   UNL     1     104.913 124.762 149.000  0.00  0.00    +0.000 OA
ATOM     24  C   UNL     1     105.650 124.393 149.048  0.00  0.00    +0.000 C 
ENDBRANCH  22  24
ENDBRANCH   5  19
BRANCH  10  26
ATOM     25  O   UNL     1     105.498 128.775 141.350  0.00  0.00    +0.000 OA
ATOM     26  C   UNL     1     105.926 127.386 143.354  0.00  0.00    +0.000 A 
ATOM     27  C   UNL     1     105.163 127.651 143.190  0.00  0.00    +0.000 A 
ATOM     28  C   UNL     1     106.548 127.585 142.849  0.00  0.00    +0.000 A 
ATOM     29  C   UNL     1     105.019 128.113 142.523  0.00  0.00    +0.000 A 
ATOM     30  C   UNL     1     106.405 128.048 142.181  0.00  0.00    +0.000 A 
ATOM     31  C   UNL     1     105.641 128.312 142.018  0.00  0.00    +0.000 A 
ENDBRANCH  10  26
TORSDOF 3
ENDMDL
MODEL 4
REMARK VINA RESULT:      -9.4      8.174      9.222
REMARK  Name = 160711
REMARK  3 active torsions:
REMARK  status: ('A' for Active; 'I' for Inactive)
REMARK    1  A    between atoms: C_12  and  C_16
REMARK    2  A    between atoms: C_15  and  C_17
REMARK    3  A    between atoms: C_22  and  C_26
REMARK                            x       y       z     vdW  Elec       q    Type
REMARK                         _______ _______ _______ _____ _____    ______ ____
ROOT
ATOM      1  O   UNL     1     113.193 127.261 138.418  0.00  0.00    +0.000 OA
ATOM      2  O   UNL     1     114.077 128.262 140.986  0.00  0.00    +0.000 OA
ATOM      3  O   UNL     1     112.861 130.038 139.107  0.00  0.00    +0.000 OA
ATOM      4  O   UNL     1     114.262 126.864 140.679  0.00  0.00    +0.000 OA
ATOM      5  C   UNL     1     113.469 129.150 140.046  0.00  0.00    +0.000 A 
ATOM      6  C   UNL     1     113.729 128.394 140.250  0.00  0.00    +0.000 A 
ATOM      7  C   UNL     1     113.120 129.283 139.310  0.00  0.00    +0.000 A 
ATOM      8  C   UNL     1     113.640 127.770 139.717  0.00  0.00    +0.000 A 
ATOM      9  C   UNL     1     113.291 127.903 138.981  0.00  0.00    +0.000 A 
ATOM     10  C   UNL     1     113.462 126.471 138.624  0.00  0.00    +0.000 C 
ATOM     11  C   UNL     1     113.032 128.658 138.778  0.00  0.00    +0.000 A 
ATOM     12  C   UNL     1     113.825 126.334 139.390  0.00  0.00    +0.000 C 
ATOM     13  C   UNL     1     113.914 126.987 139.940  0.00  0.00    +0.000 C 
ENDROOT
BRANCH   5  19
ATOM     14  O   UNL     1     112.984 129.906 141.158  0.00  0.00    +0.000 OA
ATOM     15  O   UNL     1     114.791 130.133 139.955  0.00  0.00    +0.000 OA
ATOM     16  O   UNL     1     114.968 131.380 141.021  0.00  0.00    +0.000 OA
ATOM     17  O   UNL     1     113.823 131.643 142.178  0.00  0.00    +0.000 OA
ATOM     18  C   UNL     1     114.219 130.265 140.533  0.00  0.00    +0.000 C 
ATOM     19  C   UNL     1     113.558 129.774 140.579  0.00  0.00    +0.000 C 
ATOM     20  C   UNL     1     114.307 130.888 141.067  0.00  0.00    +0.000 C 
ATOM     21  C   UNL     1     113.735 131.020 141.645  0.00  0.00    +0.000 C 
ATOM     22  C   UNL     1     113.073 130.529 141.691  0.00  0.00    +0.000 C 
BRANCH  22  24
ATOM     23  O   UNL     1     111.726 130.399 142.150  0.00  0.00    +0.000 OA
ATOM     24  C   UNL     1     112.500 130.661 142.269  0.00  0.00    +0.000 C 
ENDBRANCH  22  24
ENDBRANCH   5  19
BRANCH  10  26
ATOM     25  O   UNL     1     113.101 123.982 136.486  0.00  0.00    +0.000 OA
ATOM     26  C   UNL     1     113.372 125.849 138.090  0.00  0.00    +0.000 A 
ATOM     27  C   UNL     1     114.027 125.555 137.684  0.00  0.00    +0.000 A 
ATOM     28  C   UNL     1     112.626 125.521 137.960  0.00  0.00    +0.000 A 
ATOM     29  C   UNL     1     113.937 124.933 137.150  0.00  0.00    +0.000 A 
ATOM     30  C   UNL     1     112.536 124.899 137.426  0.00  0.00    +0.000 A 
ATOM     31  C   UNL     1     113.191 124.605 137.021  0.00  0.00    +0.000 A 
ENDBRANCH  10  26
TORSDOF 3
ENDMDL
MODEL 5
REMARK VINA RESULT:      -9.4      7.586      8.857
REMARK  Name = 160711
REMARK  3 active torsions:
REMARK  status: ('A' for Active; 'I' for Inactive)
REMARK    1  A    between atoms: C_12  and  C_16
REMARK    2  A    between atoms: C_15  and  C_17
REMARK    3  A    between atoms: C_22  and  C_26
REMARK                            x       y       z     vdW  Elec       q    Type
REMARK                         _______ _______ _______ _____ _____    ______ ____
ROOT
ATOM      1  O   UNL     1     113.099 126.122 138.842  0.00  0.00    +0.000 OA
ATOM      2  O   UNL     1     112.797 128.999 138.960  0.00  0.00    +0.000 OA
ATOM      3  O   UNL     1     114.048 127.607 141.121  0.00  0.00    +0.000 OA
ATOM      4  O   UNL     1     112.309 128.291 137.802  0.00  0.00    +0.000 OA
ATOM      5  C   UNL     1     113.423 128.303 140.041  0.00  0.00    +0.000 A 
ATOM      6  C   UNL     1     113.056 128.293 139.302  0.00  0.00    +0.000 A 
ATOM      7  C   UNL     1     113.682 127.598 140.383  0.00  0.00    +0.000 A 
ATOM      8  C   UNL     1     112.948 127.578 138.905  0.00  0.00    +0.000 A 
ATOM      9  C   UNL     1     113.206 126.873 139.246  0.00  0.00    +0.000 A 
ATOM     10  C   UNL     1     112.718 126.106 138.072  0.00  0.00    +0.000 C 
ATOM     11  C   UNL     1     113.573 126.883 139.985  0.00  0.00    +0.000 A 
ATOM     12  C   UNL     1     112.448 126.840 137.717  0.00  0.00    +0.000 C 
ATOM     13  C   UNL     1     112.564 127.581 138.135  0.00  0.00    +0.000 C 
ENDROOT
BRANCH   5  19
ATOM     14  O   UNL     1     114.191 129.486 140.272  0.00  0.00    +0.000 OA
ATOM     15  O   UNL     1     112.323 128.798 141.167  0.00  0.00    +0.000 OA
ATOM     16  O   UNL     1     112.540 130.228 141.960  0.00  0.00    +0.000 OA
ATOM     17  O   UNL     1     113.858 131.163 141.627  0.00  0.00    +0.000 OA
ATOM     18  C   UNL     1     112.981 129.265 141.001  0.00  0.00    +0.000 C 
ATOM     19  C   UNL     1     113.531 129.018 140.438  0.00  0.00    +0.000 C 
ATOM     20  C   UNL     1     113.090 129.981 141.397  0.00  0.00    +0.000 C 
ATOM     21  C   UNL     1     113.749 130.448 141.231  0.00  0.00    +0.000 C 
ATOM     22  C   UNL     1     114.299 130.201 140.669  0.00  0.00    +0.000 C 
BRANCH  22  24
ATOM     23  O   UNL     1     115.707 130.324 140.460  0.00  0.00    +0.000 OA
ATOM     24  C   UNL     1     114.958 130.668 140.502  0.00  0.00    +0.000 C 
ENDBRANCH  22  24
ENDBRANCH   5  19
BRANCH  10  26
ATOM     25  O   UNL     1     112.288 123.241 136.491  0.00  0.00    +0.000 OA
ATOM     26  C   UNL     1     112.610 125.390 137.677  0.00  0.00    +0.000 A 
ATOM     27  C   UNL     1     113.240 125.042 137.274  0.00  0.00    +0.000 A 
ATOM     28  C   UNL     1     111.873 125.020 137.685  0.00  0.00    +0.000 A 
ATOM     29  C   UNL     1     113.133 124.326 136.878  0.00  0.00    +0.000 A 
ATOM     30  C   UNL     1     111.766 124.304 137.290  0.00  0.00    +0.000 A 
ATOM     31  C   UNL     1     112.395 123.957 136.887  0.00  0.00    +0.000 A 
ENDBRANCH  10  26
TORSDOF 3
ENDMDL
MODEL 6
REMARK VINA RESULT:      -9.4      6.998      8.259
REMARK  Name = 160711
REMARK  3 active torsions:
REMARK  status: ('A' for Active; 'I' for Inactive)
REMARK    1  A    between atoms: C_12  and  C_16
REMARK    2  A    between atoms: C_15  and  C_17
REMARK    3  A    between atoms: C_22  and  C_26
REMARK                            x       y       z     vdW  Elec       q    Type
REMARK                         _______ _______ _______ _____ _____    ______ ____
ROOT
ATOM      1  O   UNL     1     110.843 126.830 136.854  0.00  0.00    +0.000 OA
ATOM      2  O   UNL     1     110.206 129.066 135.130  0.00  0.00    +0.000 OA
ATOM      3  O   UNL     1     109.216 129.007 137.810  0.00  0.00    +0.000 OA
ATOM      4  O   UNL     1     111.024 127.996 134.614  0.00  0.00    +0.000 OA
ATOM      5  C   UNL     1     109.710 129.036 136.470  0.00  0.00    +0.000 A 
ATOM      6  C   UNL     1     110.145 128.688 135.861  0.00  0.00    +0.000 A 
ATOM      7  C   UNL     1     109.650 128.659 137.202  0.00  0.00    +0.000 A 
ATOM      8  C   UNL     1     110.519 127.963 135.984  0.00  0.00    +0.000 A 
ATOM      9  C   UNL     1     110.458 127.586 136.715  0.00  0.00    +0.000 A 
ATOM     10  C   UNL     1     111.297 126.463 136.224  0.00  0.00    +0.000 C 
ATOM     11  C   UNL     1     110.024 127.934 137.323  0.00  0.00    +0.000 A 
ATOM     12  C   UNL     1     111.360 126.856 135.463  0.00  0.00    +0.000 C 
ATOM     13  C   UNL     1     110.969 127.611 135.341  0.00  0.00    +0.000 C 
ENDROOT
BRANCH   5  19
ATOM     14  O   UNL     1     109.750 130.465 136.477  0.00  0.00    +0.000 OA
ATOM     15  O   UNL     1     108.140 129.082 135.968  0.00  0.00    +0.000 OA
ATOM     16  O   UNL     1     107.393 130.533 135.723  0.00  0.00    +0.000 OA
ATOM     17  O   UNL     1     108.218 131.938 135.980  0.00  0.00    +0.000 OA
ATOM     18  C   UNL     1     108.551 129.784 136.096  0.00  0.00    +0.000 C 
ATOM     19  C   UNL     1     109.337 129.761 136.348  0.00  0.00    +0.000 C 
ATOM     20  C   UNL     1     108.179 130.510 135.974  0.00  0.00    +0.000 C 
ATOM     21  C   UNL     1     108.591 131.213 136.102  0.00  0.00    +0.000 C 
ATOM     22  C   UNL     1     109.376 131.190 136.354  0.00  0.00    +0.000 C 
BRANCH  22  24
ATOM     23  O   UNL     1     110.490 131.884 136.918  0.00  0.00    +0.000 OA
ATOM     24  C   UNL     1     109.789 131.892 136.483  0.00  0.00    +0.000 C 
ENDBRANCH  22  24
ENDBRANCH   5  19
BRANCH  10  26
ATOM     25  O   UNL     1     112.788 123.561 136.723  0.00  0.00    +0.000 OA
ATOM     26  C   UNL     1     111.670 125.738 136.349  0.00  0.00    +0.000 A 
ATOM     27  C   UNL     1     112.441 125.714 136.641  0.00  0.00    +0.000 A 
ATOM     28  C   UNL     1     111.271 125.035 136.182  0.00  0.00    +0.000 A 
ATOM     29  C   UNL     1     112.814 124.989 136.765  0.00  0.00    +0.000 A 
ATOM     30  C   UNL     1     111.644 124.310 136.307  0.00  0.00    +0.000 A 
ATOM     31  C   UNL     1     112.415 124.286 136.598  0.00  0.00    +0.000 A 
ENDBRANCH  10  26
TORSDOF 3
ENDMDL
MODEL 7
REMARK VINA RESULT:      -9.4      4.580      7.349
REMARK  Name = 160711
REMARK  3 active torsions:
REMARK  status: ('A' for Active; 'I' for Inactive)
REMARK    1  A    between atoms: C_12  and  C_16
REMARK    2  A    between atoms: C_15  and  C_17
REMARK    3  A    between atoms: C_22  and  C_26
REMARK                            x       y       z     vdW  Elec       q    Type
REMARK                         _______ _______ _______ _____ _____    ______ ____
ROOT
ATOM      1  O   UNL     1     106.469 125.422 146.171  0.00  0.00    +0.000 OA
ATOM      2  O   UNL     1     106.757 127.914 144.728  0.00  0.00    +0.000 OA
ATOM      3  O   UNL     1     105.567 125.655 143.445  0.00  0.00    +0.000 OA
ATOM      4  O   UNL     1     107.221 127.839 146.091  0.00  0.00    +0.000 OA
ATOM      5  C   UNL     1     106.162 126.784 144.086  0.00  0.00    +0.000 A 
ATOM      6  C   UNL     1     106.511 127.127 144.751  0.00  0.00    +0.000 A 
ATOM      7  C   UNL     1     105.916 125.997 144.109  0.00  0.00    +0.000 A 
ATOM      8  C   UNL     1     106.613 126.683 145.438  0.00  0.00    +0.000 A 
ATOM      9  C   UNL     1     106.367 125.896 145.461  0.00  0.00    +0.000 A 
ATOM     10  C   UNL     1     106.831 125.774 146.866  0.00  0.00    +0.000 C 
ATOM     11  C   UNL     1     106.019 125.553 144.797  0.00  0.00    +0.000 A 
ATOM     12  C   UNL     1     107.088 126.593 146.842  0.00  0.00    +0.000 C 
ATOM     13  C   UNL     1     106.978 127.051 146.124  0.00  0.00    +0.000 C 
ENDROOT
BRANCH   5  19
ATOM     14  O   UNL     1     105.371 127.671 143.293  0.00  0.00    +0.000 OA
ATOM     15  O   UNL     1     107.333 126.790 142.923  0.00  0.00    +0.000 OA
ATOM     16  O   UNL     1     107.128 127.680 141.549  0.00  0.00    +0.000 OA
ATOM     17  O   UNL     1     105.751 128.564 141.338  0.00  0.00    +0.000 OA
ATOM     18  C   UNL     1     106.645 127.232 142.817  0.00  0.00    +0.000 C 
ATOM     19  C   UNL     1     106.060 127.229 143.399  0.00  0.00    +0.000 C 
ATOM     20  C   UNL     1     106.542 127.677 142.131  0.00  0.00    +0.000 C 
ATOM     21  C   UNL     1     105.854 128.119 142.025  0.00  0.00    +0.000 C 
ATOM     22  C   UNL     1     105.268 128.116 142.606  0.00  0.00    +0.000 C 
BRANCH  22  24
ATOM     23  O   UNL     1     104.265 128.987 143.131  0.00  0.00    +0.000 OA
ATOM     24  C   UNL     1     104.580 128.558 142.500  0.00  0.00    +0.000 C 
ENDBRANCH  22  24
ENDBRANCH   5  19
BRANCH  10  26
ATOM     25  O   UNL     1     107.236 123.987 149.612  0.00  0.00    +0.000 OA
ATOM     26  C   UNL     1     106.933 125.327 147.553  0.00  0.00    +0.000 A 
ATOM     27  C   UNL     1     107.689 125.103 147.791  0.00  0.00    +0.000 A 
ATOM     28  C   UNL     1     106.277 125.105 148.001  0.00  0.00    +0.000 A 
ATOM     29  C   UNL     1     107.791 124.656 148.477  0.00  0.00    +0.000 A 
ATOM     30  C   UNL     1     106.378 124.658 148.687  0.00  0.00    +0.000 A 
ATOM     31  C   UNL     1     107.135 124.434 148.926  0.00  0.00    +0.000 A 
ENDBRANCH  10  26
TORSDOF 3
ENDMDL
MODEL 8
REMARK VINA RESULT:      -9.3      6.969      8.633
REMARK  Name = 160711
REMARK  3 active torsions:
REMARK  status: ('A' for Active; 'I' for Inactive)
REMARK    1  A    between atoms: C_12  and  C_16
REMARK    2  A    between atoms: C_15  and  C_17
REMARK    3  A    between atoms: C_22  and  C_26
REMARK                            x       y       z     vdW  Elec       q    Type
REMARK                         _______ _______ _______ _____ _____    ______ ____
ROOT
ATOM      1  O   UNL     1     111.942 126.698 137.288  0.00  0.00    +0.000 OA
ATOM      2  O   UNL     1     111.280 129.390 136.456  0.00  0.00    +0.000 OA
ATOM      3  O   UNL     1     109.251 127.694 137.540  0.00  0.00    +0.000 OA
ATOM      4  O   UNL     1     112.639 128.928 136.313  0.00  0.00    +0.000 OA
ATOM      5  C   UNL     1     110.265 128.542 136.998  0.00  0.00    +0.000 A 
ATOM      6  C   UNL     1     111.050 128.664 136.774  0.00  0.00    +0.000 A 
ATOM      7  C   UNL     1     110.035 127.816 137.316  0.00  0.00    +0.000 A 
ATOM      8  C   UNL     1     111.604 128.060 136.867  0.00  0.00    +0.000 A 
ATOM      9  C   UNL     1     111.374 127.334 137.185  0.00  0.00    +0.000 A 
ATOM     10  C   UNL     1     112.760 126.819 137.056  0.00  0.00    +0.000 C 
ATOM     11  C   UNL     1     110.590 127.213 137.409  0.00  0.00    +0.000 A 
ATOM     12  C   UNL     1     113.000 127.574 136.725  0.00  0.00    +0.000 C 
ATOM     13  C   UNL     1     112.418 128.199 136.630  0.00  0.00    +0.000 C 
ENDROOT
BRANCH   5  19
ATOM     14  O   UNL     1     109.610 129.708 137.500  0.00  0.00    +0.000 OA
ATOM     15  O   UNL     1     109.360 128.626 135.621  0.00  0.00    +0.000 OA
ATOM     16  O   UNL     1     108.252 129.835 135.434  0.00  0.00    +0.000 OA
ATOM     17  O   UNL     1     108.050 130.958 136.624  0.00  0.00    +0.000 OA
ATOM     18  C   UNL     1     109.258 129.188 136.216  0.00  0.00    +0.000 C 
ATOM     19  C   UNL     1     109.711 129.146 136.904  0.00  0.00    +0.000 C 
ATOM     20  C   UNL     1     108.705 129.792 136.123  0.00  0.00    +0.000 C 
ATOM     21  C   UNL     1     108.603 130.354 136.717  0.00  0.00    +0.000 C 
ATOM     22  C   UNL     1     109.056 130.312 137.406  0.00  0.00    +0.000 C 
BRANCH  22  24
ATOM     23  O   UNL     1     108.729 130.635 138.759  0.00  0.00    +0.000 OA
ATOM     24  C   UNL     1     108.955 130.874 138.002  0.00  0.00    +0.000 C 
ENDBRANCH  22  24
ENDBRANCH   5  19
BRANCH  10  26
ATOM     25  O   UNL     1     114.970 124.397 137.435  0.00  0.00    +0.000 OA
ATOM     26  C   UNL     1     113.313 126.213 137.151  0.00  0.00    +0.000 A 
ATOM     27  C   UNL     1     113.681 126.100 137.880  0.00  0.00    +0.000 A 
ATOM     28  C   UNL     1     113.498 125.721 136.516  0.00  0.00    +0.000 A 
ATOM     29  C   UNL     1     114.233 125.495 137.975  0.00  0.00    +0.000 A 
ATOM     30  C   UNL     1     114.050 125.115 136.611  0.00  0.00    +0.000 A 
ATOM     31  C   UNL     1     114.418 125.002 137.340  0.00  0.00    +0.000 A 
ENDBRANCH  10  26
TORSDOF 3
ENDMDL
MODEL 9
REMARK VINA RESULT:      -9.2      7.505     10.141
REMARK  Name = 160711
REMARK  3 active torsions:
REMARK  status: ('A' for Active; 'I' for Inactive)
REMARK    1  A    between atoms: C_12  and  C_16
REMARK    2  A    between atoms: C_15  and  C_17
REMARK    3  A    between atoms: C_22  and  C_26
REMARK                            x       y       z     vdW  Elec       q    Type
REMARK                         _______ _______ _______ _____ _____    ______ ____
ROOT
ATOM      1  O   UNL     1     113.411 128.867 139.426  0.00  0.00    +0.000 OA
ATOM      2  O   UNL     1     113.589 125.981 139.297  0.00  0.00    +0.000 OA
ATOM      3  O   UNL     1     112.383 127.430 137.150  0.00  0.00    +0.000 OA
ATOM      4  O   UNL     1     114.116 126.663 140.454  0.00  0.00    +0.000 OA
ATOM      5  C   UNL     1     112.986 126.706 138.223  0.00  0.00    +0.000 A 
ATOM      6  C   UNL     1     113.358 126.697 138.960  0.00  0.00    +0.000 A 
ATOM      7  C   UNL     1     112.755 127.422 137.886  0.00  0.00    +0.000 A 
ATOM      8  C   UNL     1     113.500 127.406 139.358  0.00  0.00    +0.000 A 
ATOM      9  C   UNL     1     113.269 128.122 139.020  0.00  0.00    +0.000 A 
ATOM     10  C   UNL     1     113.799 128.865 140.193  0.00  0.00    +0.000 C 
ATOM     11  C   UNL     1     112.897 128.130 138.285  0.00  0.00    +0.000 A 
ATOM     12  C   UNL     1     114.039 128.118 140.544  0.00  0.00    +0.000 C 
ATOM     13  C   UNL     1     113.889 127.384 140.124  0.00  0.00    +0.000 C 
ENDROOT
BRANCH   5  19
ATOM     14  O   UNL     1     113.419 125.687 137.320  0.00  0.00    +0.000 OA
ATOM     15  O   UNL     1     111.556 125.909 138.436  0.00  0.00    +0.000 OA
ATOM     16  O   UNL     1     111.275 124.492 137.640  0.00  0.00    +0.000 OA
ATOM     17  O   UNL     1     112.422 123.872 136.630  0.00  0.00    +0.000 OA
ATOM     18  C   UNL     1     112.130 125.599 137.932  0.00  0.00    +0.000 C 
ATOM     19  C   UNL     1     112.844 125.997 137.825  0.00  0.00    +0.000 C 
ATOM     20  C   UNL     1     111.989 124.890 137.533  0.00  0.00    +0.000 C 
ATOM     21  C   UNL     1     112.563 124.580 137.028  0.00  0.00    +0.000 C 
ATOM     22  C   UNL     1     113.277 124.978 136.922  0.00  0.00    +0.000 C 
BRANCH  22  24
ATOM     23  O   UNL     1     114.580 125.048 136.339  0.00  0.00    +0.000 OA
ATOM     24  C   UNL     1     113.851 124.668 136.417  0.00  0.00    +0.000 C 
ENDBRANCH  22  24
ENDBRANCH   5  19
BRANCH  10  26
ATOM     25  O   UNL     1     114.360 131.704 141.779  0.00  0.00    +0.000 OA
ATOM     26  C   UNL     1     113.939 129.574 140.589  0.00  0.00    +0.000 A 
ATOM     27  C   UNL     1     114.631 129.999 140.443  0.00  0.00    +0.000 A 
ATOM     28  C   UNL     1     113.387 129.860 141.132  0.00  0.00    +0.000 A 
ATOM     29  C   UNL     1     114.771 130.709 140.840  0.00  0.00    +0.000 A 
ATOM     30  C   UNL     1     113.527 130.570 141.528  0.00  0.00    +0.000 A 
ATOM     31  C   UNL     1     114.219 130.994 141.382  0.00  0.00    +0.000 A 
ENDBRANCH  10  26
TORSDOF 3
ENDMDL
MODEL 10
REMARK VINA RESULT:      -9.0      8.020      9.201
REMARK  Name = 160711
REMARK  3 active torsions:
REMARK  status: ('A' for Active; 'I' for Inactive)
REMARK    1  A    between atoms: C_12  and  C_16
REMARK    2  A    between atoms: C_15  and  C_17
REMARK    3  A    between atoms: C_22  and  C_26
REMARK                            x       y       z     vdW  Elec       q    Type
REMARK                         _______ _______ _______ _____ _____    ______ ____
ROOT
ATOM      1  O   UNL     1     113.284 128.064 137.808  0.00  0.00    +0.000 OA
ATOM      2  O   UNL     1     110.688 129.321 137.573  0.00  0.00    +0.000 OA
ATOM      3  O   UNL     1     112.927 130.839 138.494  0.00  0.00    +0.000 OA
ATOM      4  O   UNL     1     110.825 127.929 137.219  0.00  0.00    +0.000 OA
ATOM      5  C   UNL     1     111.808 130.081 138.034  0.00  0.00    +0.000 A 
ATOM      6  C   UNL     1     111.488 129.368 137.765  0.00  0.00    +0.000 A 
ATOM      7  C   UNL     1     112.608 130.128 138.226  0.00  0.00    +0.000 A 
ATOM      8  C   UNL     1     111.971 128.703 137.690  0.00  0.00    +0.000 A 
ATOM      9  C   UNL     1     112.772 128.750 137.883  0.00  0.00    +0.000 A 
ATOM     10  C   UNL     1     112.958 127.320 137.530  0.00  0.00    +0.000 C 
ATOM     11  C   UNL     1     113.090 129.462 138.151  0.00  0.00    +0.000 A 
ATOM     12  C   UNL     1     112.124 127.271 137.329  0.00  0.00    +0.000 C 
ATOM     13  C   UNL     1     111.627 127.967 137.410  0.00  0.00    +0.000 C 
ENDROOT
BRANCH   5  19
ATOM     14  O   UNL     1     110.889 130.862 138.800  0.00  0.00    +0.000 OA
ATOM     15  O   UNL     1     111.714 131.177 136.804  0.00  0.00    +0.000 OA
ATOM     16  O   UNL     1     110.748 132.506 136.956  0.00  0.00    +0.000 OA
ATOM     17  O   UNL     1     109.877 132.739 138.337  0.00  0.00    +0.000 OA
ATOM     18  C   UNL     1     111.278 131.294 137.494  0.00  0.00    +0.000 C 
ATOM     19  C   UNL     1     111.325 130.745 138.109  0.00  0.00    +0.000 C 
ATOM     20  C   UNL     1     110.795 131.958 137.571  0.00  0.00    +0.000 C 
ATOM     21  C   UNL     1     110.359 132.075 138.261  0.00  0.00    +0.000 C 
ATOM     22  C   UNL     1     110.406 131.526 138.876  0.00  0.00    +0.000 C 
BRANCH  22  24
ATOM     23  O   UNL     1     110.354 131.660 140.297  0.00  0.00    +0.000 OA
ATOM     24  C   UNL     1     109.970 131.642 139.566  0.00  0.00    +0.000 C 
ENDBRANCH  22  24
ENDBRANCH   5  19
BRANCH  10  26
ATOM     25  O   UNL     1     114.896 124.665 137.232  0.00  0.00    +0.000 OA
ATOM     26  C   UNL     1     113.443 126.656 137.455  0.00  0.00    +0.000 A 
ATOM     27  C   UNL     1     113.785 126.475 136.727  0.00  0.00    +0.000 A 
ATOM     28  C   UNL     1     113.584 126.174 138.109  0.00  0.00    +0.000 A 
ATOM     29  C   UNL     1     114.270 125.811 136.653  0.00  0.00    +0.000 A 
ATOM     30  C   UNL     1     114.069 125.510 138.034  0.00  0.00    +0.000 A 
ATOM     31  C   UNL     1     114.412 125.328 137.307  0.00  0.00    +0.000 A 
ENDBRANCH  10  26
TORSDOF 3
ENDMDL
