MODEL 1
REMARK VINA RESULT:     -10.2      0.000      0.000
REMARK  Name = 
REMARK  8 active torsions:
REMARK  status: ('A' for Active; 'I' for Inactive)
REMARK    1  A    between atoms: C_1  and  C_46
REMARK    2  A    between atoms: C_9  and  C_10
REMARK    3  A    between atoms: C_15  and  O_51
REMARK    4  A    between atoms: C_19  and  C_25
REMARK    5  A    between atoms: C_21  and  C_29
REMARK    6  A    between atoms: C_32  and  C_40
REMARK    7  A    between atoms: C_36  and  O_51
REMARK    8  A    between atoms: C_43  and  C_49
REMARK                            x       y       z     vdW  Elec       q    Type
REMARK                         _______ _______ _______ _____ _____    ______ ____
ROOT
ATOM      1  C   UNL     1     106.814 126.979 143.621  0.00  0.00    +0.000 A 
ATOM      2  C   UNL     1     106.583 126.536 144.488  0.00  0.00    +0.000 A 
ATOM      3  C   UNL     1     107.022 127.978 145.341  0.00  0.00    +0.000 A 
ATOM      4  C   UNL     1     107.253 128.421 144.475  0.00  0.00    +0.000 A 
ATOM      5  C   UNL     1     107.149 127.921 143.615  0.00  0.00    +0.000 A 
ATOM      6  O   UNL     1     107.380 128.363 142.748  0.00  0.00    +0.000 OA
ATOM      7  C   UNL     1     107.587 129.363 144.468  0.00  0.00    +0.000 A 
ATOM      8  C   UNL     1     107.819 129.805 143.602  0.00  0.00    +0.000 A 
ATOM      9  C   UNL     1     107.715 129.306 142.742  0.00  0.00    +0.000 A 
ATOM     10  O   UNL     1     107.691 129.863 145.328  0.00  0.00    +0.000 OA
ATOM     11  O   UNL     1     107.125 128.478 146.201  0.00  0.00    +0.000 OA
ATOM     12  O   UNL     1     106.248 125.594 144.494  0.00  0.00    +0.000 OA
ATOM     13  C   UNL     1     106.687 127.036 145.348  0.00  0.00    +0.000 A 
ENDROOT
BRANCH  13  19
ATOM     14  O   UNL     1     107.153 126.067 146.700  0.00  0.00    +0.000 OA
ATOM     15  C   UNL     1     106.931 125.622 147.567  0.00  0.00    +0.000 C 
ATOM     16  C   UNL     1     106.010 125.702 147.949  0.00  0.00    +0.000 C 
ATOM     17  C   UNL     1     105.312 126.228 147.463  0.00  0.00    +0.000 C 
ATOM     18  C   UNL     1     105.535 126.674 146.596  0.00  0.00    +0.000 C 
ATOM     19  C   UNL     1     106.456 126.593 146.214  0.00  0.00    +0.000 C 
ATOM     20  O   UNL     1     104.837 127.200 146.111  0.00  0.00    +0.000 OA
ATOM     21  O   UNL     1     104.392 126.308 147.845  0.00  0.00    +0.000 OA
ATOM     22  O   UNL     1     105.787 125.256 148.816  0.00  0.00    +0.000 OA
BRANCH  15  23
ATOM     23  C   UNL     1     107.629 125.095 148.053  0.00  0.00    +0.000 C 
ATOM     24  O   UNL     1     108.567 125.071 147.708  0.00  0.00    +0.000 OA
ENDBRANCH  15  23
ENDBRANCH  13  19
BRANCH   1  29
ATOM     25  O   UNL     1     107.372 125.878 142.314  0.00  0.00    +0.000 OA
ATOM     26  C   UNL     1     106.958 125.536 141.470  0.00  0.00    +0.000 C 
ATOM     27  C   UNL     1     106.040 125.927 141.397  0.00  0.00    +0.000 C 
ATOM     28  C   UNL     1     105.887 126.509 142.195  0.00  0.00    +0.000 C 
ATOM     29  C   UNL     1     106.710 126.479 142.761  0.00  0.00    +0.000 C 
ATOM     30  O   UNL     1     105.057 127.030 142.392  0.00  0.00    +0.000 OA
ATOM     31  O   UNL     1     105.390 125.763 140.655  0.00  0.00    +0.000 OA
BRANCH  26  32
ATOM     32  C   UNL     1     107.386 124.914 140.815  0.00  0.00    +0.000 C 
ATOM     33  O   UNL     1     108.284 124.520 141.013  0.00  0.00    +0.000 OA
ENDBRANCH  26  32
ENDBRANCH   1  29
BRANCH   9  34
ATOM     34  C   UNL     1     107.946 129.748 141.875  0.00  0.00    +0.000 A 
ATOM     35  C   UNL     1     108.901 129.812 140.432  0.00  0.00    +0.000 A 
ATOM     36  C   UNL     1     108.670 129.370 141.298  0.00  0.00    +0.000 A 
ATOM     37  C   UNL     1     107.453 130.569 141.586  0.00  0.00    +0.000 A 
ATOM     38  C   UNL     1     107.684 131.011 140.720  0.00  0.00    +0.000 A 
ATOM     39  C   UNL     1     108.408 130.633 140.142  0.00  0.00    +0.000 A 
BRANCH  39  40
ATOM     40  O   UNL     1     108.639 131.076 139.276  0.00  0.00    +0.000 OA
BRANCH  40  46
ATOM     41  O   UNL     1     108.288 131.246 137.588  0.00  0.00    +0.000 OA
ATOM     42  C   UNL     1     108.491 131.655 136.698  0.00  0.00    +0.000 C 
ATOM     43  C   UNL     1     109.247 132.303 136.607  0.00  0.00    +0.000 C 
ATOM     44  C   UNL     1     109.801 132.542 137.405  0.00  0.00    +0.000 C 
ATOM     45  C   UNL     1     109.598 132.132 138.295  0.00  0.00    +0.000 C 
ATOM     46  C   UNL     1     108.842 131.484 138.386  0.00  0.00    +0.000 C 
ATOM     47  O   UNL     1     110.151 132.371 139.093  0.00  0.00    +0.000 OA
ATOM     48  O   UNL     1     110.557 133.189 137.314  0.00  0.00    +0.000 OA
ATOM     49  O   UNL     1     109.450 132.712 135.717  0.00  0.00    +0.000 OA
BRANCH  42  50
ATOM     50  C   UNL     1     107.938 131.416 135.901  0.00  0.00    +0.000 C 
ATOM     51  O   UNL     1     107.177 130.774 135.996  0.00  0.00    +0.000 OA
ENDBRANCH  42  50
ENDBRANCH  40  46
ENDBRANCH  39  40
ENDBRANCH   9  34
TORSDOF 8
ENDMDL
MODEL 2
REMARK VINA RESULT:     -10.1      4.948      8.880
REMARK  Name = 
REMARK  8 active torsions:
REMARK  status: ('A' for Active; 'I' for Inactive)
REMARK    1  A    between atoms: C_1  and  C_46
REMARK    2  A    between atoms: C_9  and  C_10
REMARK    3  A    between atoms: C_15  and  O_51
REMARK    4  A    between atoms: C_19  and  C_25
REMARK    5  A    between atoms: C_21  and  C_29
REMARK    6  A    between atoms: C_32  and  C_40
REMARK    7  A    between atoms: C_36  and  O_51
REMARK    8  A    between atoms: C_43  and  C_49
REMARK                            x       y       z     vdW  Elec       q    Type
REMARK                         _______ _______ _______ _____ _____    ______ ____
ROOT
ATOM      1  C   UNL     1     112.145 128.083 139.168  0.00  0.00    +0.000 A 
ATOM      2  C   UNL     1     112.168 127.399 138.439  0.00  0.00    +0.000 A 
ATOM      3  C   UNL     1     111.250 126.314 139.428  0.00  0.00    +0.000 A 
ATOM      4  C   UNL     1     111.227 126.998 140.157  0.00  0.00    +0.000 A 
ATOM      5  C   UNL     1     111.674 127.883 140.027  0.00  0.00    +0.000 A 
ATOM      6  O   UNL     1     111.651 128.567 140.755  0.00  0.00    +0.000 OA
ATOM      7  C   UNL     1     110.756 126.798 141.016  0.00  0.00    +0.000 A 
ATOM      8  C   UNL     1     110.733 127.482 141.745  0.00  0.00    +0.000 A 
ATOM      9  C   UNL     1     111.180 128.367 141.615  0.00  0.00    +0.000 A 
ATOM     10  O   UNL     1     110.308 125.913 141.146  0.00  0.00    +0.000 OA
ATOM     11  O   UNL     1     110.802 125.430 139.558  0.00  0.00    +0.000 OA
ATOM     12  O   UNL     1     112.639 127.600 137.580  0.00  0.00    +0.000 OA
ATOM     13  C   UNL     1     111.721 126.515 138.569  0.00  0.00    +0.000 A 
ENDROOT
BRANCH  13  19
ATOM     14  O   UNL     1     112.498 125.175 137.802  0.00  0.00    +0.000 OA
ATOM     15  C   UNL     1     112.529 124.488 137.077  0.00  0.00    +0.000 C 
ATOM     16  C   UNL     1     111.805 124.455 136.388  0.00  0.00    +0.000 C 
ATOM     17  C   UNL     1     111.050 125.110 136.425  0.00  0.00    +0.000 C 
ATOM     18  C   UNL     1     111.020 125.798 137.151  0.00  0.00    +0.000 C 
ATOM     19  C   UNL     1     111.744 125.830 137.840  0.00  0.00    +0.000 C 
ATOM     20  O   UNL     1     110.265 126.452 137.187  0.00  0.00    +0.000 OA
ATOM     21  O   UNL     1     110.327 125.077 135.736  0.00  0.00    +0.000 OA
ATOM     22  O   UNL     1     111.836 123.768 135.663  0.00  0.00    +0.000 OA
BRANCH  15  23
ATOM     23  C   UNL     1     113.285 123.833 137.040  0.00  0.00    +0.000 C 
ATOM     24  O   UNL     1     114.194 124.101 137.356  0.00  0.00    +0.000 OA
ENDBRANCH  15  23
ENDBRANCH  13  19
BRANCH   1  29
ATOM     25  O   UNL     1     113.510 129.243 139.325  0.00  0.00    +0.000 OA
ATOM     26  C   UNL     1     113.651 130.192 139.042  0.00  0.00    +0.000 C 
ATOM     27  C   UNL     1     112.821 130.503 138.579  0.00  0.00    +0.000 C 
ATOM     28  C   UNL     1     112.167 129.746 138.576  0.00  0.00    +0.000 C 
ATOM     29  C   UNL     1     112.593 128.968 139.037  0.00  0.00    +0.000 C 
ATOM     30  O   UNL     1     111.248 129.765 138.182  0.00  0.00    +0.000 OA
ATOM     31  O   UNL     1     112.671 131.411 138.188  0.00  0.00    +0.000 OA
BRANCH  26  32
ATOM     32  C   UNL     1     114.477 130.735 139.195  0.00  0.00    +0.000 C 
ATOM     33  O   UNL     1     114.966 130.666 140.064  0.00  0.00    +0.000 OA
ENDBRANCH  26  32
ENDBRANCH   1  29
BRANCH   9  34
ATOM     34  C   UNL     1     111.157 129.051 142.343  0.00  0.00    +0.000 A 
ATOM     35  C   UNL     1     111.469 129.504 143.986  0.00  0.00    +0.000 A 
ATOM     36  C   UNL     1     111.492 128.820 143.257  0.00  0.00    +0.000 A 
ATOM     37  C   UNL     1     110.799 129.966 142.159  0.00  0.00    +0.000 A 
ATOM     38  C   UNL     1     110.776 130.650 142.888  0.00  0.00    +0.000 A 
ATOM     39  C   UNL     1     111.111 130.419 143.801  0.00  0.00    +0.000 A 
BRANCH  39  40
ATOM     40  O   UNL     1     111.088 131.104 144.530  0.00  0.00    +0.000 OA
BRANCH  40  46
ATOM     41  O   UNL     1     111.893 131.828 145.882  0.00  0.00    +0.000 OA
ATOM     42  C   UNL     1     111.897 132.482 146.639  0.00  0.00    +0.000 C 
ATOM     43  C   UNL     1     111.101 133.064 146.800  0.00  0.00    +0.000 C 
ATOM     44  C   UNL     1     110.300 132.994 146.205  0.00  0.00    +0.000 C 
ATOM     45  C   UNL     1     110.296 132.340 145.448  0.00  0.00    +0.000 C 
ATOM     46  C   UNL     1     111.093 131.757 145.287  0.00  0.00    +0.000 C 
ATOM     47  O   UNL     1     109.496 132.269 144.853  0.00  0.00    +0.000 OA
ATOM     48  O   UNL     1     109.504 133.577 146.367  0.00  0.00    +0.000 OA
ATOM     49  O   UNL     1     111.105 133.718 147.557  0.00  0.00    +0.000 OA
BRANCH  42  50
ATOM     50  C   UNL     1     112.698 132.552 147.234  0.00  0.00    +0.000 C 
ATOM     51  O   UNL     1     113.548 132.090 146.982  0.00  0.00    +0.000 OA
ENDBRANCH  42  50
ENDBRANCH  40  46
ENDBRANCH  39  40
ENDBRANCH   9  34
TORSDOF 8
ENDMDL
MODEL 3
REMARK VINA RESULT:     -10.1      4.186      8.299
REMARK  Name = 
REMARK  8 active torsions:
REMARK  status: ('A' for Active; 'I' for Inactive)
REMARK    1  A    between atoms: C_1  and  C_46
REMARK    2  A    between atoms: C_9  and  C_10
REMARK    3  A    between atoms: C_15  and  O_51
REMARK    4  A    between atoms: C_19  and  C_25
REMARK    5  A    between atoms: C_21  and  C_29
REMARK    6  A    between atoms: C_32  and  C_40
REMARK    7  A    between atoms: C_36  and  O_51
REMARK    8  A    between atoms: C_43  and  C_49
REMARK                            x       y       z     vdW  Elec       q    Type
REMARK                         _______ _______ _______ _____ _____    ______ ____
ROOT
ATOM      1  C   UNL     1     109.876 127.654 140.177  0.00  0.00    +0.000 A 
ATOM      2  C   UNL     1     109.889 127.105 139.341  0.00  0.00    +0.000 A 
ATOM      3  C   UNL     1     111.444 127.755 138.938  0.00  0.00    +0.000 A 
ATOM      4  C   UNL     1     111.431 128.303 139.774  0.00  0.00    +0.000 A 
ATOM      5  C   UNL     1     110.647 128.253 140.394  0.00  0.00    +0.000 A 
ATOM      6  O   UNL     1     110.634 128.802 141.230  0.00  0.00    +0.000 OA
ATOM      7  C   UNL     1     112.202 128.903 139.991  0.00  0.00    +0.000 A 
ATOM      8  C   UNL     1     112.189 129.451 140.827  0.00  0.00    +0.000 A 
ATOM      9  C   UNL     1     111.405 129.401 141.446  0.00  0.00    +0.000 A 
ATOM     10  O   UNL     1     112.985 128.953 139.372  0.00  0.00    +0.000 OA
ATOM     11  O   UNL     1     112.227 127.805 138.319  0.00  0.00    +0.000 OA
ATOM     12  O   UNL     1     109.118 126.506 139.124  0.00  0.00    +0.000 OA
ATOM     13  C   UNL     1     110.673 127.156 138.722  0.00  0.00    +0.000 A 
ENDROOT
BRANCH  13  19
ATOM     14  O   UNL     1     110.305 126.985 137.042  0.00  0.00    +0.000 OA
ATOM     15  C   UNL     1     110.314 126.444 136.202  0.00  0.00    +0.000 C 
ATOM     16  C   UNL     1     110.703 125.523 136.205  0.00  0.00    +0.000 C 
ATOM     17  C   UNL     1     111.084 125.143 137.048  0.00  0.00    +0.000 C 
ATOM     18  C   UNL     1     111.075 125.686 137.889  0.00  0.00    +0.000 C 
ATOM     19  C   UNL     1     110.686 126.607 137.886  0.00  0.00    +0.000 C 
ATOM     20  O   UNL     1     111.456 125.307 138.732  0.00  0.00    +0.000 OA
ATOM     21  O   UNL     1     111.473 124.223 137.051  0.00  0.00    +0.000 OA
ATOM     22  O   UNL     1     110.712 124.981 135.364  0.00  0.00    +0.000 OA
BRANCH  15  23
ATOM     23  C   UNL     1     109.932 126.823 135.358  0.00  0.00    +0.000 C 
ATOM     24  O   UNL     1     109.386 127.660 135.388  0.00  0.00    +0.000 OA
ENDBRANCH  15  23
ENDBRANCH  13  19
BRANCH   1  29
ATOM     25  O   UNL     1     108.289 128.197 140.822  0.00  0.00    +0.000 OA
ATOM     26  C   UNL     1     107.693 127.876 141.560  0.00  0.00    +0.000 C 
ATOM     27  C   UNL     1     108.130 127.086 141.988  0.00  0.00    +0.000 C 
ATOM     28  C   UNL     1     108.995 126.917 141.516  0.00  0.00    +0.000 C 
ATOM     29  C   UNL     1     109.093 127.603 140.796  0.00  0.00    +0.000 C 
ATOM     30  O   UNL     1     109.647 126.189 141.728  0.00  0.00    +0.000 OA
ATOM     31  O   UNL     1     107.765 126.556 142.754  0.00  0.00    +0.000 OA
BRANCH  26  32
ATOM     32  C   UNL     1     106.815 128.277 141.822  0.00  0.00    +0.000 C 
ATOM     33  O   UNL     1     106.449 129.055 141.312  0.00  0.00    +0.000 OA
ENDBRANCH  26  32
ENDBRANCH   1  29
BRANCH   9  34
ATOM     34  C   UNL     1     111.392 129.949 142.282  0.00  0.00    +0.000 A 
ATOM     35  C   UNL     1     111.441 131.495 143.063  0.00  0.00    +0.000 A 
ATOM     36  C   UNL     1     111.453 130.946 142.227  0.00  0.00    +0.000 A 
ATOM     37  C   UNL     1     111.319 129.501 143.173  0.00  0.00    +0.000 A 
ATOM     38  C   UNL     1     111.306 130.050 144.009  0.00  0.00    +0.000 A 
ATOM     39  C   UNL     1     111.367 131.047 143.954  0.00  0.00    +0.000 A 
BRANCH  39  40
ATOM     40  O   UNL     1     111.354 131.595 144.790  0.00  0.00    +0.000 OA
BRANCH  40  46
ATOM     41  O   UNL     1     112.175 132.057 146.243  0.00  0.00    +0.000 OA
ATOM     42  C   UNL     1     112.197 132.576 147.098  0.00  0.00    +0.000 C 
ATOM     43  C   UNL     1     111.421 133.151 147.354  0.00  0.00    +0.000 C 
ATOM     44  C   UNL     1     110.621 133.208 146.756  0.00  0.00    +0.000 C 
ATOM     45  C   UNL     1     110.599 132.689 145.901  0.00  0.00    +0.000 C 
ATOM     46  C   UNL     1     111.377 132.114 145.645  0.00  0.00    +0.000 C 
ATOM     47  O   UNL     1     109.801 132.745 145.302  0.00  0.00    +0.000 OA
ATOM     48  O   UNL     1     109.845 133.782 147.011  0.00  0.00    +0.000 OA
ATOM     49  O   UNL     1     111.442 133.670 148.209  0.00  0.00    +0.000 OA
BRANCH  42  50
ATOM     50  C   UNL     1     112.997 132.519 147.697  0.00  0.00    +0.000 C 
ATOM     51  O   UNL     1     113.866 132.182 147.337  0.00  0.00    +0.000 OA
ENDBRANCH  42  50
ENDBRANCH  40  46
ENDBRANCH  39  40
ENDBRANCH   9  34
TORSDOF 8
ENDMDL
MODEL 4
REMARK VINA RESULT:     -10.0      4.227      8.298
REMARK  Name = 
REMARK  8 active torsions:
REMARK  status: ('A' for Active; 'I' for Inactive)
REMARK    1  A    between atoms: C_1  and  C_46
REMARK    2  A    between atoms: C_9  and  C_10
REMARK    3  A    between atoms: C_15  and  O_51
REMARK    4  A    between atoms: C_19  and  C_25
REMARK    5  A    between atoms: C_21  and  C_29
REMARK    6  A    between atoms: C_32  and  C_40
REMARK    7  A    between atoms: C_36  and  O_51
REMARK    8  A    between atoms: C_43  and  C_49
REMARK                            x       y       z     vdW  Elec       q    Type
REMARK                         _______ _______ _______ _____ _____    ______ ____
ROOT
ATOM      1  C   UNL     1     109.993 127.729 140.262  0.00  0.00    +0.000 A 
ATOM      2  C   UNL     1     109.989 127.200 139.413  0.00  0.00    +0.000 A 
ATOM      3  C   UNL     1     111.600 127.737 139.071  0.00  0.00    +0.000 A 
ATOM      4  C   UNL     1     111.604 128.266 139.920  0.00  0.00    +0.000 A 
ATOM      5  C   UNL     1     110.800 128.262 140.515  0.00  0.00    +0.000 A 
ATOM      6  O   UNL     1     110.804 128.791 141.364  0.00  0.00    +0.000 OA
ATOM      7  C   UNL     1     112.411 128.799 140.173  0.00  0.00    +0.000 A 
ATOM      8  C   UNL     1     112.415 129.328 141.021  0.00  0.00    +0.000 A 
ATOM      9  C   UNL     1     111.612 129.324 141.617  0.00  0.00    +0.000 A 
ATOM     10  O   UNL     1     113.214 128.803 139.577  0.00  0.00    +0.000 OA
ATOM     11  O   UNL     1     112.403 127.741 138.475  0.00  0.00    +0.000 OA
ATOM     12  O   UNL     1     109.182 126.667 139.160  0.00  0.00    +0.000 OA
ATOM     13  C   UNL     1     110.792 127.204 138.818  0.00  0.00    +0.000 A 
ENDROOT
BRANCH  13  19
ATOM     14  O   UNL     1     110.466 127.101 137.124  0.00  0.00    +0.000 OA
ATOM     15  C   UNL     1     110.458 126.580 136.271  0.00  0.00    +0.000 C 
ATOM     16  C   UNL     1     110.774 125.631 136.263  0.00  0.00    +0.000 C 
ATOM     17  C   UNL     1     111.097 125.204 137.107  0.00  0.00    +0.000 C 
ATOM     18  C   UNL     1     111.104 125.726 137.961  0.00  0.00    +0.000 C 
ATOM     19  C   UNL     1     110.788 126.675 137.969  0.00  0.00    +0.000 C 
ATOM     20  O   UNL     1     111.427 125.299 138.805  0.00  0.00    +0.000 OA
ATOM     21  O   UNL     1     111.412 124.256 137.099  0.00  0.00    +0.000 OA
ATOM     22  O   UNL     1     110.766 125.109 135.409  0.00  0.00    +0.000 OA
BRANCH  15  23
ATOM     23  C   UNL     1     110.135 127.007 135.426  0.00  0.00    +0.000 C 
ATOM     24  O   UNL     1     109.649 127.879 135.462  0.00  0.00    +0.000 OA
ENDBRANCH  15  23
ENDBRANCH  13  19
BRANCH   1  29
ATOM     25  O   UNL     1     108.423 128.366 140.862  0.00  0.00    +0.000 OA
ATOM     26  C   UNL     1     107.786 128.081 141.580  0.00  0.00    +0.000 C 
ATOM     27  C   UNL     1     108.161 127.264 142.018  0.00  0.00    +0.000 C 
ATOM     28  C   UNL     1     109.029 127.044 141.571  0.00  0.00    +0.000 C 
ATOM     29  C   UNL     1     109.189 127.725 140.857  0.00  0.00    +0.000 C 
ATOM     30  O   UNL     1     109.628 126.277 141.799  0.00  0.00    +0.000 OA
ATOM     31  O   UNL     1     107.742 126.756 142.770  0.00  0.00    +0.000 OA
BRANCH  26  32
ATOM     32  C   UNL     1     106.927 128.534 141.817  0.00  0.00    +0.000 C 
ATOM     33  O   UNL     1     106.624 129.334 141.299  0.00  0.00    +0.000 OA
ENDBRANCH  26  32
ENDBRANCH   1  29
BRANCH   9  34
ATOM     34  C   UNL     1     111.616 129.853 142.466  0.00  0.00    +0.000 A 
ATOM     35  C   UNL     1     111.489 129.920 144.192  0.00  0.00    +0.000 A 
ATOM     36  C   UNL     1     111.485 129.391 143.343  0.00  0.00    +0.000 A 
ATOM     37  C   UNL     1     111.750 130.843 142.437  0.00  0.00    +0.000 A 
ATOM     38  C   UNL     1     111.754 131.372 143.285  0.00  0.00    +0.000 A 
ATOM     39  C   UNL     1     111.623 130.910 144.163  0.00  0.00    +0.000 A 
BRANCH  39  40
ATOM     40  O   UNL     1     111.627 131.439 145.011  0.00  0.00    +0.000 OA
BRANCH  40  46
ATOM     41  O   UNL     1     110.751 132.486 146.078  0.00  0.00    +0.000 OA
ATOM     42  C   UNL     1     110.709 133.027 146.918  0.00  0.00    +0.000 C 
ATOM     43  C   UNL     1     111.497 133.063 147.531  0.00  0.00    +0.000 C 
ATOM     44  C   UNL     1     112.330 132.557 147.304  0.00  0.00    +0.000 C 
ATOM     45  C   UNL     1     112.373 132.016 146.464  0.00  0.00    +0.000 C 
ATOM     46  C   UNL     1     111.584 131.981 145.851  0.00  0.00    +0.000 C 
ATOM     47  O   UNL     1     113.206 131.511 146.237  0.00  0.00    +0.000 OA
ATOM     48  O   UNL     1     113.119 132.593 147.916  0.00  0.00    +0.000 OA
ATOM     49  O   UNL     1     111.454 133.604 148.371  0.00  0.00    +0.000 OA
BRANCH  42  50
ATOM     50  C   UNL     1     109.876 133.533 147.145  0.00  0.00    +0.000 C 
ATOM     51  O   UNL     1     109.053 133.413 146.589  0.00  0.00    +0.000 OA
ENDBRANCH  42  50
ENDBRANCH  40  46
ENDBRANCH  39  40
ENDBRANCH   9  34
TORSDOF 8
ENDMDL
MODEL 5
REMARK VINA RESULT:      -9.9      1.691      9.030
REMARK  Name = 
REMARK  8 active torsions:
REMARK  status: ('A' for Active; 'I' for Inactive)
REMARK    1  A    between atoms: C_1  and  C_46
REMARK    2  A    between atoms: C_9  and  C_10
REMARK    3  A    between atoms: C_15  and  O_51
REMARK    4  A    between atoms: C_19  and  C_25
REMARK    5  A    between atoms: C_21  and  C_29
REMARK    6  A    between atoms: C_32  and  C_40
REMARK    7  A    between atoms: C_36  and  O_51
REMARK    8  A    between atoms: C_43  and  C_49
REMARK                            x       y       z     vdW  Elec       q    Type
REMARK                         _______ _______ _______ _____ _____    ______ ____
ROOT
ATOM      1  C   UNL     1     109.306 129.117 140.209  0.00  0.00    +0.000 A 
ATOM      2  C   UNL     1     109.515 129.712 139.434  0.00  0.00    +0.000 A 
ATOM      3  C   UNL     1     108.183 130.734 139.859  0.00  0.00    +0.000 A 
ATOM      4  C   UNL     1     107.974 130.139 140.635  0.00  0.00    +0.000 A 
ATOM      5  C   UNL     1     108.536 129.330 140.810  0.00  0.00    +0.000 A 
ATOM      6  O   UNL     1     108.327 128.734 141.585  0.00  0.00    +0.000 OA
ATOM      7  C   UNL     1     107.204 130.352 141.236  0.00  0.00    +0.000 A 
ATOM      8  C   UNL     1     106.995 129.756 142.011  0.00  0.00    +0.000 A 
ATOM      9  C   UNL     1     107.556 128.947 142.186  0.00  0.00    +0.000 A 
ATOM     10  O   UNL     1     106.642 131.161 141.061  0.00  0.00    +0.000 OA
ATOM     11  O   UNL     1     107.622 131.543 139.685  0.00  0.00    +0.000 OA
ATOM     12  O   UNL     1     110.286 129.499 138.833  0.00  0.00    +0.000 OA
ATOM     13  C   UNL     1     108.954 130.521 139.259  0.00  0.00    +0.000 A 
ENDROOT
BRANCH  13  19
ATOM     14  O   UNL     1     108.752 130.928 137.591  0.00  0.00    +0.000 OA
ATOM     15  C   UNL     1     108.956 131.518 136.811  0.00  0.00    +0.000 C 
ATOM     16  C   UNL     1     109.571 132.299 136.922  0.00  0.00    +0.000 C 
ATOM     17  C   UNL     1     109.982 132.489 137.813  0.00  0.00    +0.000 C 
ATOM     18  C   UNL     1     109.778 131.897 138.594  0.00  0.00    +0.000 C 
ATOM     19  C   UNL     1     109.163 131.117 138.483  0.00  0.00    +0.000 C 
ATOM     20  O   UNL     1     110.190 132.088 139.485  0.00  0.00    +0.000 OA
ATOM     21  O   UNL     1     110.597 133.269 137.923  0.00  0.00    +0.000 OA
ATOM     22  O   UNL     1     109.774 132.889 136.140  0.00  0.00    +0.000 OA
BRANCH  15  23
ATOM     23  C   UNL     1     108.544 131.328 135.919  0.00  0.00    +0.000 C 
ATOM     24  O   UNL     1     107.881 130.586 135.822  0.00  0.00    +0.000 OA
ENDBRANCH  15  23
ENDBRANCH  13  19
BRANCH   1  29
ATOM     25  O   UNL     1     110.689 128.239 140.949  0.00  0.00    +0.000 OA
ATOM     26  C   UNL     1     111.009 127.291 140.913  0.00  0.00    +0.000 C 
ATOM     27  C   UNL     1     110.385 126.776 140.326  0.00  0.00    +0.000 C 
ATOM     28  C   UNL     1     109.679 127.405 139.999  0.00  0.00    +0.000 C 
ATOM     29  C   UNL     1     109.868 128.308 140.384  0.00  0.00    +0.000 C 
ATOM     30  O   UNL     1     108.919 127.170 139.393  0.00  0.00    +0.000 OA
ATOM     31  O   UNL     1     110.454 125.803 140.106  0.00  0.00    +0.000 OA
BRANCH  26  32
ATOM     32  C   UNL     1     111.812 126.924 141.383  0.00  0.00    +0.000 C 
ATOM     33  O   UNL     1     112.622 127.496 141.510  0.00  0.00    +0.000 OA
ENDBRANCH  26  32
ENDBRANCH   1  29
BRANCH   9  34
ATOM     34  C   UNL     1     107.347 128.352 142.962  0.00  0.00    +0.000 A 
ATOM     35  C   UNL     1     107.154 128.122 144.667  0.00  0.00    +0.000 A 
ATOM     36  C   UNL     1     107.363 128.718 143.892  0.00  0.00    +0.000 A 
ATOM     37  C   UNL     1     107.122 127.390 142.807  0.00  0.00    +0.000 A 
ATOM     38  C   UNL     1     106.913 126.794 143.582  0.00  0.00    +0.000 A 
ATOM     39  C   UNL     1     106.929 127.160 144.513  0.00  0.00    +0.000 A 
BRANCH  39  40
ATOM     40  O   UNL     1     106.720 126.565 145.288  0.00  0.00    +0.000 OA
BRANCH  40  46
ATOM     41  O   UNL     1     107.305 125.742 146.696  0.00  0.00    +0.000 OA
ATOM     42  C   UNL     1     107.135 125.165 147.495  0.00  0.00    +0.000 C 
ATOM     43  C   UNL     1     106.212 124.834 147.685  0.00  0.00    +0.000 C 
ATOM     44  C   UNL     1     105.457 125.079 147.076  0.00  0.00    +0.000 C 
ATOM     45  C   UNL     1     105.627 125.656 146.277  0.00  0.00    +0.000 C 
ATOM     46  C   UNL     1     106.551 125.988 146.087  0.00  0.00    +0.000 C 
ATOM     47  O   UNL     1     104.872 125.902 145.669  0.00  0.00    +0.000 OA
ATOM     48  O   UNL     1     104.533 124.748 147.266  0.00  0.00    +0.000 OA
ATOM     49  O   UNL     1     106.042 124.257 148.484  0.00  0.00    +0.000 OA
BRANCH  42  50
ATOM     50  C   UNL     1     107.890 124.920 148.104  0.00  0.00    +0.000 C 
ATOM     51  O   UNL     1     108.835 125.024 147.793  0.00  0.00    +0.000 OA
ENDBRANCH  42  50
ENDBRANCH  40  46
ENDBRANCH  39  40
ENDBRANCH   9  34
TORSDOF 8
ENDMDL
MODEL 6
REMARK VINA RESULT:      -9.9      4.642      8.922
REMARK  Name = 
REMARK  8 active torsions:
REMARK  status: ('A' for Active; 'I' for Inactive)
REMARK    1  A    between atoms: C_1  and  C_46
REMARK    2  A    between atoms: C_9  and  C_10
REMARK    3  A    between atoms: C_15  and  O_51
REMARK    4  A    between atoms: C_19  and  C_25
REMARK    5  A    between atoms: C_21  and  C_29
REMARK    6  A    between atoms: C_32  and  C_40
REMARK    7  A    between atoms: C_36  and  O_51
REMARK    8  A    between atoms: C_43  and  C_49
REMARK                            x       y       z     vdW  Elec       q    Type
REMARK                         _______ _______ _______ _____ _____    ______ ____
ROOT
ATOM      1  C   UNL     1     111.180 128.751 140.706  0.00  0.00    +0.000 A 
ATOM      2  C   UNL     1     111.461 128.277 139.872  0.00  0.00    +0.000 A 
ATOM      3  C   UNL     1     113.014 129.039 139.962  0.00  0.00    +0.000 A 
ATOM      4  C   UNL     1     112.733 129.513 140.796  0.00  0.00    +0.000 A 
ATOM      5  C   UNL     1     111.816 129.370 141.168  0.00  0.00    +0.000 A 
ATOM      6  O   UNL     1     111.535 129.844 142.002  0.00  0.00    +0.000 OA
ATOM      7  C   UNL     1     113.369 130.132 141.258  0.00  0.00    +0.000 A 
ATOM      8  C   UNL     1     113.088 130.606 142.092  0.00  0.00    +0.000 A 
ATOM      9  C   UNL     1     112.171 130.462 142.464  0.00  0.00    +0.000 A 
ATOM     10  O   UNL     1     114.286 130.275 140.886  0.00  0.00    +0.000 OA
ATOM     11  O   UNL     1     113.931 129.183 139.589  0.00  0.00    +0.000 OA
ATOM     12  O   UNL     1     110.825 127.659 139.410  0.00  0.00    +0.000 OA
ATOM     13  C   UNL     1     112.378 128.421 139.500  0.00  0.00    +0.000 A 
ENDROOT
BRANCH  13  19
ATOM     14  O   UNL     1     112.508 128.380 137.777  0.00  0.00    +0.000 OA
ATOM     15  C   UNL     1     112.785 127.912 136.938  0.00  0.00    +0.000 C 
ATOM     16  C   UNL     1     113.215 127.011 136.987  0.00  0.00    +0.000 C 
ATOM     17  C   UNL     1     113.367 126.576 137.875  0.00  0.00    +0.000 C 
ATOM     18  C   UNL     1     113.089 127.045 138.714  0.00  0.00    +0.000 C 
ATOM     19  C   UNL     1     112.659 127.946 138.665  0.00  0.00    +0.000 C 
ATOM     20  O   UNL     1     113.241 126.610 139.602  0.00  0.00    +0.000 OA
ATOM     21  O   UNL     1     113.797 125.676 137.924  0.00  0.00    +0.000 OA
ATOM     22  O   UNL     1     113.493 126.543 136.148  0.00  0.00    +0.000 OA
BRANCH  15  23
ATOM     23  C   UNL     1     112.634 128.347 136.050  0.00  0.00    +0.000 C 
ATOM     24  O   UNL     1     112.189 129.241 136.000  0.00  0.00    +0.000 OA
ENDBRANCH  15  23
ENDBRANCH  13  19
BRANCH   1  29
ATOM     25  O   UNL     1     109.437 129.142 140.904  0.00  0.00    +0.000 OA
ATOM     26  C   UNL     1     108.689 128.735 141.430  0.00  0.00    +0.000 C 
ATOM     27  C   UNL     1     109.055 127.949 141.929  0.00  0.00    +0.000 C 
ATOM     28  C   UNL     1     110.028 127.871 141.712  0.00  0.00    +0.000 C 
ATOM     29  C   UNL     1     110.263 128.608 141.078  0.00  0.00    +0.000 C 
ATOM     30  O   UNL     1     110.655 127.177 142.066  0.00  0.00    +0.000 OA
ATOM     31  O   UNL     1     108.539 127.348 142.539  0.00  0.00    +0.000 OA
BRANCH  26  32
ATOM     32  C   UNL     1     107.743 129.057 141.453  0.00  0.00    +0.000 C 
ATOM     33  O   UNL     1     107.424 129.719 140.775  0.00  0.00    +0.000 OA
ENDBRANCH  26  32
ENDBRANCH   1  29
BRANCH   9  34
ATOM     34  C   UNL     1     111.890 130.937 143.299  0.00  0.00    +0.000 A 
ATOM     35  C   UNL     1     111.299 130.887 144.926  0.00  0.00    +0.000 A 
ATOM     36  C   UNL     1     111.580 130.412 144.092  0.00  0.00    +0.000 A 
ATOM     37  C   UNL     1     111.919 131.935 143.340  0.00  0.00    +0.000 A 
ATOM     38  C   UNL     1     111.638 132.410 144.174  0.00  0.00    +0.000 A 
ATOM     39  C   UNL     1     111.328 131.885 144.967  0.00  0.00    +0.000 A 
BRANCH  39  40
ATOM     40  O   UNL     1     111.047 132.360 145.801  0.00  0.00    +0.000 OA
BRANCH  40  46
ATOM     41  O   UNL     1     111.468 132.899 147.393  0.00  0.00    +0.000 OA
ATOM     42  C   UNL     1     111.213 133.341 148.253  0.00  0.00    +0.000 C 
ATOM     43  C   UNL     1     110.284 133.684 148.382  0.00  0.00    +0.000 C 
ATOM     44  C   UNL     1     109.608 133.587 147.651  0.00  0.00    +0.000 C 
ATOM     45  C   UNL     1     109.863 133.145 146.791  0.00  0.00    +0.000 C 
ATOM     46  C   UNL     1     110.793 132.801 146.662  0.00  0.00    +0.000 C 
ATOM     47  O   UNL     1     109.187 133.048 146.060  0.00  0.00    +0.000 OA
ATOM     48  O   UNL     1     108.678 133.931 147.780  0.00  0.00    +0.000 OA
ATOM     49  O   UNL     1     110.029 134.126 149.243  0.00  0.00    +0.000 OA
BRANCH  42  50
ATOM     50  C   UNL     1     111.889 133.438 148.984  0.00  0.00    +0.000 C 
ATOM     51  O   UNL     1     112.751 132.934 148.936  0.00  0.00    +0.000 OA
ENDBRANCH  42  50
ENDBRANCH  40  46
ENDBRANCH  39  40
ENDBRANCH   9  34
TORSDOF 8
ENDMDL
MODEL 7
REMARK VINA RESULT:      -9.7      4.856      8.840
REMARK  Name = 
REMARK  8 active torsions:
REMARK  status: ('A' for Active; 'I' for Inactive)
REMARK    1  A    between atoms: C_1  and  C_46
REMARK    2  A    between atoms: C_9  and  C_10
REMARK    3  A    between atoms: C_15  and  O_51
REMARK    4  A    between atoms: C_19  and  C_25
REMARK    5  A    between atoms: C_21  and  C_29
REMARK    6  A    between atoms: C_32  and  C_40
REMARK    7  A    between atoms: C_36  and  O_51
REMARK    8  A    between atoms: C_43  and  C_49
REMARK                            x       y       z     vdW  Elec       q    Type
REMARK                         _______ _______ _______ _____ _____    ______ ____
ROOT
ATOM      1  C   UNL     1     111.438 128.405 139.399  0.00  0.00    +0.000 A 
ATOM      2  C   UNL     1     111.648 127.753 138.671  0.00  0.00    +0.000 A 
ATOM      3  C   UNL     1     112.730 126.917 139.734  0.00  0.00    +0.000 A 
ATOM      4  C   UNL     1     112.520 127.569 140.462  0.00  0.00    +0.000 A 
ATOM      5  C   UNL     1     111.873 128.313 140.294  0.00  0.00    +0.000 A 
ATOM      6  O   UNL     1     111.662 128.966 141.022  0.00  0.00    +0.000 OA
ATOM      7  C   UNL     1     112.955 127.477 141.357  0.00  0.00    +0.000 A 
ATOM      8  C   UNL     1     112.744 128.130 142.085  0.00  0.00    +0.000 A 
ATOM      9  C   UNL     1     112.098 128.874 141.917  0.00  0.00    +0.000 A 
ATOM     10  O   UNL     1     113.602 126.733 141.525  0.00  0.00    +0.000 OA
ATOM     11  O   UNL     1     113.377 126.172 139.901  0.00  0.00    +0.000 OA
ATOM     12  O   UNL     1     111.213 127.845 137.776  0.00  0.00    +0.000 OA
ATOM     13  C   UNL     1     112.295 127.008 138.838  0.00  0.00    +0.000 A 
ENDROOT
BRANCH  13  19
ATOM     14  O   UNL     1     113.263 126.543 137.485  0.00  0.00    +0.000 OA
ATOM     15  C   UNL     1     113.481 125.896 136.755  0.00  0.00    +0.000 C 
ATOM     16  C   UNL     1     112.940 125.061 136.649  0.00  0.00    +0.000 C 
ATOM     17  C   UNL     1     112.183 124.873 137.274  0.00  0.00    +0.000 C 
ATOM     18  C   UNL     1     111.965 125.521 138.005  0.00  0.00    +0.000 C 
ATOM     19  C   UNL     1     112.506 126.356 138.111  0.00  0.00    +0.000 C 
ATOM     20  O   UNL     1     111.208 125.333 138.629  0.00  0.00    +0.000 OA
ATOM     21  O   UNL     1     111.643 124.039 137.168  0.00  0.00    +0.000 OA
ATOM     22  O   UNL     1     113.158 124.414 135.918  0.00  0.00    +0.000 OA
BRANCH  15  23
ATOM     23  C   UNL     1     114.239 126.083 136.130  0.00  0.00    +0.000 C 
ATOM     24  O   UNL     1     114.622 127.005 136.071  0.00  0.00    +0.000 OA
ENDBRANCH  15  23
ENDBRANCH  13  19
BRANCH   1  29
ATOM     25  O   UNL     1     110.989 130.079 138.922  0.00  0.00    +0.000 OA
ATOM     26  C   UNL     1     110.121 130.573 138.855  0.00  0.00    +0.000 C 
ATOM     27  C   UNL     1     109.388 129.947 139.122  0.00  0.00    +0.000 C 
ATOM     28  C   UNL     1     109.803 129.067 139.355  0.00  0.00    +0.000 C 
ATOM     29  C   UNL     1     110.791 129.150 139.231  0.00  0.00    +0.000 C 
ATOM     30  O   UNL     1     109.313 128.250 139.658  0.00  0.00    +0.000 OA
ATOM     31  O   UNL     1     108.412 130.164 139.152  0.00  0.00    +0.000 OA
BRANCH  26  32
ATOM     32  C   UNL     1     110.007 131.525 138.570  0.00  0.00    +0.000 C 
ATOM     33  O   UNL     1     110.808 132.112 138.456  0.00  0.00    +0.000 OA
ENDBRANCH  26  32
ENDBRANCH   1  29
BRANCH   9  34
ATOM     34  C   UNL     1     111.887 129.527 142.645  0.00  0.00    +0.000 A 
ATOM     35  C   UNL     1     111.871 131.151 143.245  0.00  0.00    +0.000 A 
ATOM     36  C   UNL     1     112.082 130.499 142.517  0.00  0.00    +0.000 A 
ATOM     37  C   UNL     1     111.482 129.207 143.502  0.00  0.00    +0.000 A 
ATOM     38  C   UNL     1     111.271 129.859 144.229  0.00  0.00    +0.000 A 
ATOM     39  C   UNL     1     111.466 130.832 144.101  0.00  0.00    +0.000 A 
BRANCH  39  40
ATOM     40  O   UNL     1     111.255 131.484 144.829  0.00  0.00    +0.000 OA
BRANCH  40  46
ATOM     41  O   UNL     1     111.716 132.225 146.325  0.00  0.00    +0.000 OA
ATOM     42  C   UNL     1     111.510 132.841 147.086  0.00  0.00    +0.000 C 
ATOM     43  C   UNL     1     110.640 133.331 147.111  0.00  0.00    +0.000 C 
ATOM     44  C   UNL     1     109.973 133.206 146.376  0.00  0.00    +0.000 C 
ATOM     45  C   UNL     1     110.179 132.590 145.615  0.00  0.00    +0.000 C 
ATOM     46  C   UNL     1     111.050 132.100 145.590  0.00  0.00    +0.000 C 
ATOM     47  O   UNL     1     109.513 132.464 144.880  0.00  0.00    +0.000 OA
ATOM     48  O   UNL     1     109.102 133.695 146.401  0.00  0.00    +0.000 OA
ATOM     49  O   UNL     1     110.434 133.947 147.872  0.00  0.00    +0.000 OA
BRANCH  42  50
ATOM     50  C   UNL     1     112.177 132.966 147.821  0.00  0.00    +0.000 C 
ATOM     51  O   UNL     1     112.998 132.396 147.852  0.00  0.00    +0.000 OA
ENDBRANCH  42  50
ENDBRANCH  40  46
ENDBRANCH  39  40
ENDBRANCH   9  34
TORSDOF 8
ENDMDL
MODEL 8
REMARK VINA RESULT:      -9.6      4.231      8.820
REMARK  Name = 
REMARK  8 active torsions:
REMARK  status: ('A' for Active; 'I' for Inactive)
REMARK    1  A    between atoms: C_1  and  C_46
REMARK    2  A    between atoms: C_9  and  C_10
REMARK    3  A    between atoms: C_15  and  O_51
REMARK    4  A    between atoms: C_19  and  C_25
REMARK    5  A    between atoms: C_21  and  C_29
REMARK    6  A    between atoms: C_32  and  C_40
REMARK    7  A    between atoms: C_36  and  O_51
REMARK    8  A    between atoms: C_43  and  C_49
REMARK                            x       y       z     vdW  Elec       q    Type
REMARK                         _______ _______ _______ _____ _____    ______ ____
ROOT
ATOM      1  C   UNL     1     110.233 129.466 139.941  0.00  0.00    +0.000 A 
ATOM      2  C   UNL     1     110.268 129.051 139.032  0.00  0.00    +0.000 A 
ATOM      3  C   UNL     1     111.998 129.027 139.110  0.00  0.00    +0.000 A 
ATOM      4  C   UNL     1     111.963 129.443 140.019  0.00  0.00    +0.000 A 
ATOM      5  C   UNL     1     111.080 129.662 140.435  0.00  0.00    +0.000 A 
ATOM      6  O   UNL     1     111.045 130.078 141.343  0.00  0.00    +0.000 OA
ATOM      7  C   UNL     1     112.810 129.639 140.512  0.00  0.00    +0.000 A 
ATOM      8  C   UNL     1     112.775 130.054 141.421  0.00  0.00    +0.000 A 
ATOM      9  C   UNL     1     111.892 130.274 141.837  0.00  0.00    +0.000 A 
ATOM     10  O   UNL     1     113.693 129.419 140.097  0.00  0.00    +0.000 OA
ATOM     11  O   UNL     1     112.881 128.808 138.695  0.00  0.00    +0.000 OA
ATOM     12  O   UNL     1     109.421 128.855 138.539  0.00  0.00    +0.000 OA
ATOM     13  C   UNL     1     111.151 128.831 138.617  0.00  0.00    +0.000 A 
ENDROOT
BRANCH  13  19
ATOM     14  O   UNL     1     111.165 127.420 137.620  0.00  0.00    +0.000 OA
ATOM     15  C   UNL     1     111.199 126.997 136.715  0.00  0.00    +0.000 C 
ATOM     16  C   UNL     1     111.256 127.569 135.897  0.00  0.00    +0.000 C 
ATOM     17  C   UNL     1     111.277 128.565 135.984  0.00  0.00    +0.000 C 
ATOM     18  C   UNL     1     111.242 128.988 136.890  0.00  0.00    +0.000 C 
ATOM     19  C   UNL     1     111.186 128.416 137.708  0.00  0.00    +0.000 C 
ATOM     20  O   UNL     1     111.264 129.984 136.976  0.00  0.00    +0.000 OA
ATOM     21  O   UNL     1     111.333 129.136 135.166  0.00  0.00    +0.000 OA
ATOM     22  O   UNL     1     111.291 127.145 134.992  0.00  0.00    +0.000 OA
BRANCH  15  23
ATOM     23  C   UNL     1     111.178 126.000 136.628  0.00  0.00    +0.000 C 
ATOM     24  O   UNL     1     110.803 125.442 137.367  0.00  0.00    +0.000 OA
ENDBRANCH  15  23
ENDBRANCH  13  19
BRANCH   1  29
ATOM     25  O   UNL     1     108.779 129.103 140.934  0.00  0.00    +0.000 OA
ATOM     26  C   UNL     1     107.961 129.623 141.184  0.00  0.00    +0.000 C 
ATOM     27  C   UNL     1     108.028 130.526 140.761  0.00  0.00    +0.000 C 
ATOM     28  C   UNL     1     108.887 130.565 140.249  0.00  0.00    +0.000 C 
ATOM     29  C   UNL     1     109.350 129.686 140.357  0.00  0.00    +0.000 C 
ATOM     30  O   UNL     1     109.222 131.346 139.723  0.00  0.00    +0.000 OA
ATOM     31  O   UNL     1     107.355 131.262 140.836  0.00  0.00    +0.000 OA
BRANCH  26  32
ATOM     32  C   UNL     1     107.209 129.296 141.757  0.00  0.00    +0.000 C 
ATOM     33  O   UNL     1     106.870 128.362 141.651  0.00  0.00    +0.000 OA
ENDBRANCH  26  32
ENDBRANCH   1  29
BRANCH   9  34
ATOM     34  C   UNL     1     111.857 130.689 142.746  0.00  0.00    +0.000 A 
ATOM     35  C   UNL     1     111.587 130.547 144.451  0.00  0.00    +0.000 A 
ATOM     36  C   UNL     1     111.622 130.131 143.542  0.00  0.00    +0.000 A 
ATOM     37  C   UNL     1     112.057 131.663 142.859  0.00  0.00    +0.000 A 
ATOM     38  C   UNL     1     112.021 132.078 143.767  0.00  0.00    +0.000 A 
ATOM     39  C   UNL     1     111.787 131.520 144.564  0.00  0.00    +0.000 A 
BRANCH  39  40
ATOM     40  O   UNL     1     111.751 131.936 145.472  0.00  0.00    +0.000 OA
BRANCH  40  46
ATOM     41  O   UNL     1     110.805 132.786 146.648  0.00  0.00    +0.000 OA
ATOM     42  C   UNL     1     110.722 133.212 147.550  0.00  0.00    +0.000 C 
ATOM     43  C   UNL     1     111.502 133.213 148.175  0.00  0.00    +0.000 C 
ATOM     44  C   UNL     1     112.365 132.789 147.901  0.00  0.00    +0.000 C 
ATOM     45  C   UNL     1     112.448 132.363 146.999  0.00  0.00    +0.000 C 
ATOM     46  C   UNL     1     111.668 132.362 146.373  0.00  0.00    +0.000 C 
ATOM     47  O   UNL     1     113.310 131.939 146.724  0.00  0.00    +0.000 OA
ATOM     48  O   UNL     1     113.144 132.790 148.526  0.00  0.00    +0.000 OA
ATOM     49  O   UNL     1     111.419 133.639 149.076  0.00  0.00    +0.000 OA
BRANCH  42  50
ATOM     50  C   UNL     1     109.859 133.636 147.824  0.00  0.00    +0.000 C 
ATOM     51  O   UNL     1     109.065 133.588 147.218  0.00  0.00    +0.000 OA
ENDBRANCH  42  50
ENDBRANCH  40  46
ENDBRANCH  39  40
ENDBRANCH   9  34
TORSDOF 8
ENDMDL
MODEL 9
REMARK VINA RESULT:      -9.4      3.289      4.305
REMARK  Name = 
REMARK  8 active torsions:
REMARK  status: ('A' for Active; 'I' for Inactive)
REMARK    1  A    between atoms: C_1  and  C_46
REMARK    2  A    between atoms: C_9  and  C_10
REMARK    3  A    between atoms: C_15  and  O_51
REMARK    4  A    between atoms: C_19  and  C_25
REMARK    5  A    between atoms: C_21  and  C_29
REMARK    6  A    between atoms: C_32  and  C_40
REMARK    7  A    between atoms: C_36  and  O_51
REMARK    8  A    between atoms: C_43  and  C_49
REMARK                            x       y       z     vdW  Elec       q    Type
REMARK                         _______ _______ _______ _____ _____    ______ ____
ROOT
ATOM      1  C   UNL     1     105.977 127.147 144.812  0.00  0.00    +0.000 A 
ATOM      2  C   UNL     1     106.205 126.449 145.491  0.00  0.00    +0.000 A 
ATOM      3  C   UNL     1     105.652 127.499 146.754  0.00  0.00    +0.000 A 
ATOM      4  C   UNL     1     105.424 128.196 146.074  0.00  0.00    +0.000 A 
ATOM      5  C   UNL     1     105.586 128.020 145.103  0.00  0.00    +0.000 A 
ATOM      6  O   UNL     1     105.358 128.717 144.423  0.00  0.00    +0.000 OA
ATOM      7  C   UNL     1     105.033 129.069 146.365  0.00  0.00    +0.000 A 
ATOM      8  C   UNL     1     104.805 129.766 145.686  0.00  0.00    +0.000 A 
ATOM      9  C   UNL     1     104.967 129.590 144.715  0.00  0.00    +0.000 A 
ATOM     10  O   UNL     1     104.870 129.245 147.336  0.00  0.00    +0.000 OA
ATOM     11  O   UNL     1     105.489 127.675 147.724  0.00  0.00    +0.000 OA
ATOM     12  O   UNL     1     106.595 125.576 145.200  0.00  0.00    +0.000 OA
ATOM     13  C   UNL     1     106.042 126.625 146.462  0.00  0.00    +0.000 A 
ENDROOT
BRANCH  13  19
ATOM     14  O   UNL     1     105.541 125.378 147.547  0.00  0.00    +0.000 OA
ATOM     15  C   UNL     1     105.760 124.679 148.227  0.00  0.00    +0.000 C 
ATOM     16  C   UNL     1     106.710 124.530 148.503  0.00  0.00    +0.000 C 
ATOM     17  C   UNL     1     107.440 125.080 148.098  0.00  0.00    +0.000 C 
ATOM     18  C   UNL     1     107.220 125.779 147.417  0.00  0.00    +0.000 C 
ATOM     19  C   UNL     1     106.271 125.928 147.142  0.00  0.00    +0.000 C 
ATOM     20  O   UNL     1     107.951 126.329 147.013  0.00  0.00    +0.000 OA
ATOM     21  O   UNL     1     108.389 124.931 148.373  0.00  0.00    +0.000 OA
ATOM     22  O   UNL     1     106.929 123.830 149.183  0.00  0.00    +0.000 OA
BRANCH  15  23
ATOM     23  C   UNL     1     105.030 124.128 148.633  0.00  0.00    +0.000 C 
ATOM     24  O   UNL     1     104.080 124.434 148.570  0.00  0.00    +0.000 OA
ENDBRANCH  15  23
ENDBRANCH  13  19
BRANCH   1  29
ATOM     25  O   UNL     1     105.505 126.587 143.170  0.00  0.00    +0.000 OA
ATOM     26  C   UNL     1     105.979 126.541 142.289  0.00  0.00    +0.000 C 
ATOM     27  C   UNL     1     106.904 126.898 142.418  0.00  0.00    +0.000 C 
ATOM     28  C   UNL     1     107.003 127.163 143.377  0.00  0.00    +0.000 C 
ATOM     29  C   UNL     1     106.139 126.970 143.841  0.00  0.00    +0.000 C 
ATOM     30  O   UNL     1     107.823 127.552 143.797  0.00  0.00    +0.000 OA
ATOM     31  O   UNL     1     107.607 126.975 141.711  0.00  0.00    +0.000 OA
BRANCH  26  32
ATOM     32  C   UNL     1     105.593 126.200 141.432  0.00  0.00    +0.000 C 
ATOM     33  O   UNL     1     104.869 126.712 140.971  0.00  0.00    +0.000 OA
ENDBRANCH  26  32
ENDBRANCH   1  29
BRANCH   9  34
ATOM     34  C   UNL     1     104.739 130.287 144.035  0.00  0.00    +0.000 A 
ATOM     35  C   UNL     1     103.625 130.959 142.892  0.00  0.00    +0.000 A 
ATOM     36  C   UNL     1     103.853 130.262 143.571  0.00  0.00    +0.000 A 
ATOM     37  C   UNL     1     105.396 131.009 143.819  0.00  0.00    +0.000 A 
ATOM     38  C   UNL     1     105.168 131.706 143.140  0.00  0.00    +0.000 A 
ATOM     39  C   UNL     1     104.283 131.682 142.676  0.00  0.00    +0.000 A 
BRANCH  39  40
ATOM     40  O   UNL     1     104.054 132.379 141.996  0.00  0.00    +0.000 OA
BRANCH  40  46
ATOM     41  O   UNL     1     103.308 133.908 141.674  0.00  0.00    +0.000 OA
ATOM     42  C   UNL     1     103.065 134.635 141.031  0.00  0.00    +0.000 C 
ATOM     43  C   UNL     1     103.324 134.558 140.069  0.00  0.00    +0.000 C 
ATOM     44  C   UNL     1     103.827 133.755 139.748  0.00  0.00    +0.000 C 
ATOM     45  C   UNL     1     104.071 133.029 140.391  0.00  0.00    +0.000 C 
ATOM     46  C   UNL     1     103.811 133.105 141.354  0.00  0.00    +0.000 C 
ATOM     47  O   UNL     1     104.574 132.226 140.071  0.00  0.00    +0.000 OA
ATOM     48  O   UNL     1     104.087 133.679 138.786  0.00  0.00    +0.000 OA
ATOM     49  O   UNL     1     103.081 135.285 139.426  0.00  0.00    +0.000 OA
BRANCH  42  50
ATOM     50  C   UNL     1     102.561 135.438 141.351  0.00  0.00    +0.000 C 
ATOM     51  O   UNL     1     102.182 135.451 142.276  0.00  0.00    +0.000 OA
ENDBRANCH  42  50
ENDBRANCH  40  46
ENDBRANCH  39  40
ENDBRANCH   9  34
TORSDOF 8
ENDMDL
MODEL 10
REMARK VINA RESULT:      -8.5      1.660      2.544
REMARK  Name = 
REMARK  8 active torsions:
REMARK  status: ('A' for Active; 'I' for Inactive)
REMARK    1  A    between atoms: C_1  and  C_46
REMARK    2  A    between atoms: C_9  and  C_10
REMARK    3  A    between atoms: C_15  and  O_51
REMARK    4  A    between atoms: C_19  and  C_25
REMARK    5  A    between atoms: C_21  and  C_29
REMARK    6  A    between atoms: C_32  and  C_40
REMARK    7  A    between atoms: C_36  and  O_51
REMARK    8  A    between atoms: C_43  and  C_49
REMARK                            x       y       z     vdW  Elec       q    Type
REMARK                         _______ _______ _______ _____ _____    ______ ____
ROOT
ATOM      1  C   UNL     1     106.359 126.392 143.129  0.00  0.00    +0.000 A 
ATOM      2  C   UNL     1     105.957 126.090 143.993  0.00  0.00    +0.000 A 
ATOM      3  C   UNL     1     106.925 127.244 144.847  0.00  0.00    +0.000 A 
ATOM      4  C   UNL     1     107.327 127.546 143.983  0.00  0.00    +0.000 A 
ATOM      5  C   UNL     1     107.044 127.120 143.124  0.00  0.00    +0.000 A 
ATOM      6  O   UNL     1     107.446 127.423 142.260  0.00  0.00    +0.000 OA
ATOM      7  C   UNL     1     108.012 128.274 143.978  0.00  0.00    +0.000 A 
ATOM      8  C   UNL     1     108.414 128.577 143.114  0.00  0.00    +0.000 A 
ATOM      9  C   UNL     1     108.131 128.151 142.255  0.00  0.00    +0.000 A 
ATOM     10  O   UNL     1     108.296 128.700 144.838  0.00  0.00    +0.000 OA
ATOM     11  O   UNL     1     107.209 127.669 145.707  0.00  0.00    +0.000 OA
ATOM     12  O   UNL     1     105.271 125.361 143.998  0.00  0.00    +0.000 OA
ATOM     13  C   UNL     1     106.240 126.515 144.852  0.00  0.00    +0.000 A 
ENDROOT
BRANCH  13  19
ATOM     14  O   UNL     1     105.090 126.737 146.123  0.00  0.00    +0.000 OA
ATOM     15  C   UNL     1     104.683 126.442 146.986  0.00  0.00    +0.000 C 
ATOM     16  C   UNL     1     105.023 125.621 147.445  0.00  0.00    +0.000 C 
ATOM     17  C   UNL     1     105.771 125.096 147.040  0.00  0.00    +0.000 C 
ATOM     18  C   UNL     1     106.179 125.392 146.175  0.00  0.00    +0.000 C 
ATOM     19  C   UNL     1     105.838 126.213 145.716  0.00  0.00    +0.000 C 
ATOM     20  O   UNL     1     106.927 124.866 145.770  0.00  0.00    +0.000 OA
ATOM     21  O   UNL     1     106.111 124.276 147.498  0.00  0.00    +0.000 OA
ATOM     22  O   UNL     1     104.615 125.326 148.309  0.00  0.00    +0.000 OA
BRANCH  15  23
ATOM     23  C   UNL     1     103.934 126.967 147.392  0.00  0.00    +0.000 C 
ATOM     24  O   UNL     1     103.978 127.966 147.413  0.00  0.00    +0.000 OA
ENDBRANCH  15  23
ENDBRANCH  13  19
BRANCH   1  29
ATOM     25  O   UNL     1     105.339 126.249 141.655  0.00  0.00    +0.000 OA
ATOM     26  C   UNL     1     105.318 125.611 140.884  0.00  0.00    +0.000 C 
ATOM     27  C   UNL     1     106.042 124.935 141.024  0.00  0.00    +0.000 C 
ATOM     28  C   UNL     1     106.510 125.155 141.880  0.00  0.00    +0.000 C 
ATOM     29  C   UNL     1     106.075 125.966 142.269  0.00  0.00    +0.000 C 
ATOM     30  O   UNL     1     107.277 124.651 142.276  0.00  0.00    +0.000 OA
ATOM     31  O   UNL     1     106.259 124.173 140.414  0.00  0.00    +0.000 OA
BRANCH  26  32
ATOM     32  C   UNL     1     104.685 125.644 140.111  0.00  0.00    +0.000 C 
ATOM     33  O   UNL     1     104.251 126.508 139.857  0.00  0.00    +0.000 OA
ENDBRANCH  26  32
ENDBRANCH   1  29
BRANCH   9  34
ATOM     34  C   UNL     1     108.533 128.454 141.390  0.00  0.00    +0.000 A 
ATOM     35  C   UNL     1     109.512 128.134 139.998  0.00  0.00    +0.000 A 
ATOM     36  C   UNL     1     109.110 127.831 140.862  0.00  0.00    +0.000 A 
ATOM     37  C   UNL     1     108.358 129.379 141.055  0.00  0.00    +0.000 A 
ATOM     38  C   UNL     1     108.760 129.682 140.190  0.00  0.00    +0.000 A 
ATOM     39  C   UNL     1     109.337 129.059 139.662  0.00  0.00    +0.000 A 
BRANCH  39  40
ATOM     40  O   UNL     1     109.739 129.362 138.798  0.00  0.00    +0.000 OA
BRANCH  40  46
ATOM     41  O   UNL     1     111.011 130.143 137.919  0.00  0.00    +0.000 OA
ATOM     42  C   UNL     1     111.431 130.399 137.049  0.00  0.00    +0.000 C 
ATOM     43  C   UNL     1     111.001 130.131 136.188  0.00  0.00    +0.000 C 
ATOM     44  C   UNL     1     110.150 129.606 136.195  0.00  0.00    +0.000 C 
ATOM     45  C   UNL     1     109.729 129.349 137.066  0.00  0.00    +0.000 C 
ATOM     46  C   UNL     1     110.160 129.618 137.928  0.00  0.00    +0.000 C 
ATOM     47  O   UNL     1     108.878 128.825 137.075  0.00  0.00    +0.000 OA
ATOM     48  O   UNL     1     109.719 129.337 135.335  0.00  0.00    +0.000 OA
ATOM     49  O   UNL     1     111.422 130.387 135.317  0.00  0.00    +0.000 OA
BRANCH  42  50
ATOM     50  C   UNL     1     112.283 130.924 137.041  0.00  0.00    +0.000 C 
ATOM     51  O   UNL     1     112.669 131.261 137.899  0.00  0.00    +0.000 OA
ENDBRANCH  42  50
ENDBRANCH  40  46
ENDBRANCH  39  40
ENDBRANCH   9  34
TORSDOF 8
ENDMDL
