MODEL 1
REMARK VINA RESULT:     -10.2      0.000      0.000
REMARK  Name = 42607900
REMARK  7 active torsions:
REMARK  status: ('A' for Active; 'I' for Inactive)
REMARK    1  A    between atoms: O_2  and  C_20
REMARK    2  A    between atoms: O_2  and  C_23
REMARK    3  A    between atoms: O_4  and  C_22
REMARK    4  A    between atoms: O_4  and  C_26
REMARK    5  A    between atoms: C_15  and  C_23
REMARK    6  A    between atoms: C_16  and  C_25
REMARK    7  A    between atoms: C_31  and  C_37
REMARK                            x       y       z     vdW  Elec       q    Type
REMARK                         _______ _______ _______ _____ _____    ______ ____
ROOT
ATOM      1  O   UNL     1     110.488 128.576 135.384  0.00  0.00    +0.000 OA
ENDROOT
BRANCH   1   5
ATOM      2  O   UNL     1     112.755 127.042 136.286  0.00  0.00    +0.000 OA
ATOM      3  O   UNL     1     113.110 129.697 135.191  0.00  0.00    +0.000 OA
ATOM      4  O   UNL     1     114.271 128.961 135.631  0.00  0.00    +0.000 OA
ATOM      5  C   UNL     1     111.303 128.513 135.500  0.00  0.00    +0.000 A 
ATOM      6  C   UNL     1     111.621 127.826 135.828  0.00  0.00    +0.000 A 
ATOM      7  C   UNL     1     111.800 129.136 135.288  0.00  0.00    +0.000 A 
ATOM      8  C   UNL     1     112.436 127.763 135.943  0.00  0.00    +0.000 A 
ATOM      9  C   UNL     1     112.932 128.386 135.731  0.00  0.00    +0.000 A 
ATOM     10  C   UNL     1     113.602 126.970 136.409  0.00  0.00    +0.000 C 
ATOM     11  C   UNL     1     112.614 129.073 135.403  0.00  0.00    +0.000 A 
ATOM     12  C   UNL     1     114.119 127.619 136.188  0.00  0.00    +0.000 C 
ATOM     13  C   UNL     1     113.781 128.333 135.846  0.00  0.00    +0.000 C 
ATOM     14  C   UNL     1     111.125 127.202 136.040  0.00  0.00    +0.000 C 
ATOM     15  C   UNL     1     111.481 129.823 134.959  0.00  0.00    +0.000 C 
BRANCH  10  17
ATOM     16  O   UNL     1     114.864 124.217 137.721  0.00  0.00    +0.000 OA
ATOM     17  C   UNL     1     113.917 126.282 136.737  0.00  0.00    +0.000 A 
ATOM     18  C   UNL     1     113.873 126.155 137.551  0.00  0.00    +0.000 A 
ATOM     19  C   UNL     1     114.278 125.721 136.251  0.00  0.00    +0.000 A 
ATOM     20  C   UNL     1     114.188 125.467 137.879  0.00  0.00    +0.000 A 
ATOM     21  C   UNL     1     114.593 125.033 136.578  0.00  0.00    +0.000 A 
ATOM     22  C   UNL     1     114.548 124.906 137.392  0.00  0.00    +0.000 A 
ENDBRANCH  10  17
ENDBRANCH   1   5
BRANCH   1  31
ATOM     23  O   UNL     1     110.316 129.054 136.720  0.00  0.00    +0.000 OA
ATOM     24  O   UNL     1     108.599 129.986 137.693  0.00  0.00    +0.000 OA
ATOM     25  O   UNL     1     107.999 129.735 136.176  0.00  0.00    +0.000 OA
ATOM     26  O   UNL     1     108.944 129.030 135.022  0.00  0.00    +0.000 OA
ATOM     27  C   UNL     1     109.844 129.406 137.297  0.00  0.00    +0.000 C 
ATOM     28  C   UNL     1     109.072 129.633 137.116  0.00  0.00    +0.000 C 
ATOM     29  C   UNL     1     108.771 129.508 136.358  0.00  0.00    +0.000 C 
ATOM     30  C   UNL     1     109.244 129.155 135.780  0.00  0.00    +0.000 C 
ATOM     31  C   UNL     1     110.017 128.928 135.961  0.00  0.00    +0.000 C 
BRANCH  27  32
ATOM     32  C   UNL     1     110.143 129.532 138.055  0.00  0.00    +0.000 C 
BRANCH  32  33
ATOM     33  O   UNL     1     110.785 130.036 138.168  0.00  0.00    +0.000 OA
BRANCH  33  39
ATOM     34  O   UNL     1     111.064 129.515 139.514  0.00  0.00    +0.000 OA
ATOM     35  O   UNL     1     112.852 130.671 139.678  0.00  0.00    +0.000 OA
ATOM     36  O   UNL     1     112.311 130.920 138.500  0.00  0.00    +0.000 OA
ATOM     37  C   UNL     1     112.199 130.173 139.761  0.00  0.00    +0.000 C 
ATOM     38  C   UNL     1     111.937 130.390 139.010  0.00  0.00    +0.000 C 
ATOM     39  C   UNL     1     111.236 129.984 138.857  0.00  0.00    +0.000 C 
ATOM     40  C   UNL     1     111.660 129.633 140.073  0.00  0.00    +0.000 C 
BRANCH  37  42
ATOM     41  O   UNL     1     113.112 130.761 140.690  0.00  0.00    +0.000 OA
ATOM     42  C   UNL     1     112.650 130.120 140.450  0.00  0.00    +0.000 C 
ENDBRANCH  37  42
ENDBRANCH  33  39
ENDBRANCH  32  33
ENDBRANCH  27  32
ENDBRANCH   1  31
TORSDOF 7
ENDMDL
MODEL 2
REMARK VINA RESULT:      -9.8      1.757      3.995
REMARK  Name = 42607900
REMARK  7 active torsions:
REMARK  status: ('A' for Active; 'I' for Inactive)
REMARK    1  A    between atoms: O_2  and  C_20
REMARK    2  A    between atoms: O_2  and  C_23
REMARK    3  A    between atoms: O_4  and  C_22
REMARK    4  A    between atoms: O_4  and  C_26
REMARK    5  A    between atoms: C_15  and  C_23
REMARK    6  A    between atoms: C_16  and  C_25
REMARK    7  A    between atoms: C_31  and  C_37
REMARK                            x       y       z     vdW  Elec       q    Type
REMARK                         _______ _______ _______ _____ _____    ______ ____
ROOT
ATOM      1  O   UNL     1     110.461 129.586 135.769  0.00  0.00    +0.000 OA
ENDROOT
BRANCH   1   5
ATOM      2  O   UNL     1     112.604 129.777 137.686  0.00  0.00    +0.000 OA
ATOM      3  O   UNL     1     113.120 128.901 134.977  0.00  0.00    +0.000 OA
ATOM      4  O   UNL     1     114.221 128.983 135.907  0.00  0.00    +0.000 OA
ATOM      5  C   UNL     1     111.261 129.502 135.951  0.00  0.00    +0.000 A 
ATOM      6  C   UNL     1     111.533 129.676 136.710  0.00  0.00    +0.000 A 
ATOM      7  C   UNL     1     111.791 129.243 135.374  0.00  0.00    +0.000 A 
ATOM      8  C   UNL     1     112.334 129.592 136.891  0.00  0.00    +0.000 A 
ATOM      9  C   UNL     1     112.862 129.334 136.314  0.00  0.00    +0.000 A 
ATOM     10  C   UNL     1     113.436 129.692 137.882  0.00  0.00    +0.000 C 
ATOM     11  C   UNL     1     112.591 129.159 135.555  0.00  0.00    +0.000 A 
ATOM     12  C   UNL     1     113.987 129.423 137.280  0.00  0.00    +0.000 C 
ATOM     13  C   UNL     1     113.698 129.243 136.491  0.00  0.00    +0.000 C 
ATOM     14  C   UNL     1     111.004 129.935 137.288  0.00  0.00    +0.000 C 
ATOM     15  C   UNL     1     111.519 129.068 134.614  0.00  0.00    +0.000 C 
BRANCH  10  17
ATOM     16  O   UNL     1     114.510 130.393 140.922  0.00  0.00    +0.000 OA
ATOM     17  C   UNL     1     113.704 129.868 138.642  0.00  0.00    +0.000 A 
ATOM     18  C   UNL     1     114.114 130.570 138.783  0.00  0.00    +0.000 A 
ATOM     19  C   UNL     1     113.563 129.341 139.261  0.00  0.00    +0.000 A 
ATOM     20  C   UNL     1     114.382 130.745 139.543  0.00  0.00    +0.000 A 
ATOM     21  C   UNL     1     113.831 129.515 140.021  0.00  0.00    +0.000 A 
ATOM     22  C   UNL     1     114.241 130.218 140.162  0.00  0.00    +0.000 A 
ENDBRANCH  10  17
ENDBRANCH   1   5
BRANCH   1  31
ATOM     23  O   UNL     1     110.217 128.256 136.231  0.00  0.00    +0.000 OA
ATOM     24  O   UNL     1     108.375 127.087 136.313  0.00  0.00    +0.000 OA
ATOM     25  O   UNL     1     107.821 128.498 135.661  0.00  0.00    +0.000 OA
ATOM     26  O   UNL     1     108.864 129.747 135.389  0.00  0.00    +0.000 OA
ATOM     27  C   UNL     1     109.696 127.631 136.367  0.00  0.00    +0.000 C 
ATOM     28  C   UNL     1     108.897 127.712 136.177  0.00  0.00    +0.000 C 
ATOM     29  C   UNL     1     108.619 128.417 135.851  0.00  0.00    +0.000 C 
ATOM     30  C   UNL     1     109.141 129.042 135.715  0.00  0.00    +0.000 C 
ATOM     31  C   UNL     1     109.940 128.961 135.905  0.00  0.00    +0.000 C 
BRANCH  27  32
ATOM     32  C   UNL     1     109.972 126.926 136.693  0.00  0.00    +0.000 C 
BRANCH  32  33
ATOM     33  O   UNL     1     110.424 126.409 136.237  0.00  0.00    +0.000 OA
BRANCH  33  39
ATOM     34  O   UNL     1     110.995 125.710 137.398  0.00  0.00    +0.000 OA
ATOM     35  O   UNL     1     111.646 124.072 136.193  0.00  0.00    +0.000 OA
ATOM     36  O   UNL     1     111.049 124.946 135.405  0.00  0.00    +0.000 OA
ATOM     37  C   UNL     1     111.459 124.623 136.779  0.00  0.00    +0.000 C 
ATOM     38  C   UNL     1     111.105 125.106 136.213  0.00  0.00    +0.000 C 
ATOM     39  C   UNL     1     110.819 125.778 136.594  0.00  0.00    +0.000 C 
ATOM     40  C   UNL     1     111.391 124.996 137.511  0.00  0.00    +0.000 C 
BRANCH  37  42
ATOM     41  O   UNL     1     112.544 123.693 136.799  0.00  0.00    +0.000 OA
ATOM     42  C   UNL     1     111.854 123.992 137.137  0.00  0.00    +0.000 C 
ENDBRANCH  37  42
ENDBRANCH  33  39
ENDBRANCH  32  33
ENDBRANCH  27  32
ENDBRANCH   1  31
TORSDOF 7
ENDMDL
MODEL 3
REMARK VINA RESULT:      -9.8      1.652      3.152
REMARK  Name = 42607900
REMARK  7 active torsions:
REMARK  status: ('A' for Active; 'I' for Inactive)
REMARK    1  A    between atoms: O_2  and  C_20
REMARK    2  A    between atoms: O_2  and  C_23
REMARK    3  A    between atoms: O_4  and  C_22
REMARK    4  A    between atoms: O_4  and  C_26
REMARK    5  A    between atoms: C_15  and  C_23
REMARK    6  A    between atoms: C_16  and  C_25
REMARK    7  A    between atoms: C_31  and  C_37
REMARK                            x       y       z     vdW  Elec       q    Type
REMARK                         _______ _______ _______ _____ _____    ______ ____
ROOT
ATOM      1  O   UNL     1     112.736 129.177 135.529  0.00  0.00    +0.000 OA
ENDROOT
BRANCH   1   5
ATOM      2  O   UNL     1     111.928 126.483 136.154  0.00  0.00    +0.000 OA
ATOM      3  O   UNL     1     110.090 128.316 134.875  0.00  0.00    +0.000 OA
ATOM      4  O   UNL     1     109.647 126.975 135.172  0.00  0.00    +0.000 OA
ATOM      5  C   UNL     1     112.157 128.589 135.521  0.00  0.00    +0.000 A 
ATOM      6  C   UNL     1     112.322 127.844 135.833  0.00  0.00    +0.000 A 
ATOM      7  C   UNL     1     111.413 128.746 135.202  0.00  0.00    +0.000 A 
ATOM      8  C   UNL     1     111.743 127.256 135.826  0.00  0.00    +0.000 A 
ATOM      9  C   UNL     1     111.000 127.413 135.507  0.00  0.00    +0.000 A 
ATOM     10  C   UNL     1     111.330 125.867 136.150  0.00  0.00    +0.000 C 
ATOM     11  C   UNL     1     110.834 128.158 135.195  0.00  0.00    +0.000 A 
ATOM     12  C   UNL     1     110.555 126.030 135.817  0.00  0.00    +0.000 C 
ATOM     13  C   UNL     1     110.389 126.809 135.493  0.00  0.00    +0.000 C 
ATOM     14  C   UNL     1     113.067 127.686 136.153  0.00  0.00    +0.000 C 
ATOM     15  C   UNL     1     111.247 129.492 134.890  0.00  0.00    +0.000 C 
BRANCH  10  17
ATOM     16  O   UNL     1     112.002 122.889 137.402  0.00  0.00    +0.000 OA
ATOM     17  C   UNL     1     111.498 125.122 136.463  0.00  0.00    +0.000 A 
ATOM     18  C   UNL     1     111.786 124.524 135.973  0.00  0.00    +0.000 A 
ATOM     19  C   UNL     1     111.378 124.975 137.266  0.00  0.00    +0.000 A 
ATOM     20  C   UNL     1     111.954 123.779 136.286  0.00  0.00    +0.000 A 
ATOM     21  C   UNL     1     111.546 124.231 137.579  0.00  0.00    +0.000 A 
ATOM     22  C   UNL     1     111.834 123.633 137.089  0.00  0.00    +0.000 A 
ENDBRANCH  10  17
ENDBRANCH   1   5
BRANCH   1  31
ATOM     23  O   UNL     1     112.323 129.568 136.840  0.00  0.00    +0.000 OA
ATOM     24  O   UNL     1     113.117 131.084 138.195  0.00  0.00    +0.000 OA
ATOM     25  O   UNL     1     114.133 131.255 136.906  0.00  0.00    +0.000 OA
ATOM     26  O   UNL     1     113.942 130.302 135.573  0.00  0.00    +0.000 OA
ATOM     27  C   UNL     1     112.418 130.044 137.506  0.00  0.00    +0.000 C 
ATOM     28  C   UNL     1     113.022 130.607 137.528  0.00  0.00    +0.000 C 
ATOM     29  C   UNL     1     113.530 130.693 136.884  0.00  0.00    +0.000 C 
ATOM     30  C   UNL     1     113.434 130.216 136.217  0.00  0.00    +0.000 C 
ATOM     31  C   UNL     1     112.831 129.653 136.195  0.00  0.00    +0.000 C 
BRANCH  27  32
ATOM     32  C   UNL     1     111.911 129.959 138.151  0.00  0.00    +0.000 C 
BRANCH  32  33
ATOM     33  O   UNL     1     111.095 130.013 138.044  0.00  0.00    +0.000 OA
BRANCH  33  39
ATOM     34  O   UNL     1     110.811 129.673 139.446  0.00  0.00    +0.000 OA
ATOM     35  O   UNL     1     108.702 129.764 139.125  0.00  0.00    +0.000 OA
ATOM     36  O   UNL     1     109.301 130.039 137.982  0.00  0.00    +0.000 OA
ATOM     37  C   UNL     1     109.477 129.693 139.400  0.00  0.00    +0.000 C 
ATOM     38  C   UNL     1     109.761 129.874 138.647  0.00  0.00    +0.000 C 
ATOM     39  C   UNL     1     110.585 129.862 138.675  0.00  0.00    +0.000 C 
ATOM     40  C   UNL     1     110.126 129.568 139.893  0.00  0.00    +0.000 C 
BRANCH  37  42
ATOM     41  O   UNL     1     108.214 129.877 140.040  0.00  0.00    +0.000 OA
ATOM     42  C   UNL     1     108.967 129.542 140.031  0.00  0.00    +0.000 C 
ENDBRANCH  37  42
ENDBRANCH  33  39
ENDBRANCH  32  33
ENDBRANCH  27  32
ENDBRANCH   1  31
TORSDOF 7
ENDMDL
MODEL 4
REMARK VINA RESULT:      -9.8      1.450      3.590
REMARK  Name = 42607900
REMARK  7 active torsions:
REMARK  status: ('A' for Active; 'I' for Inactive)
REMARK    1  A    between atoms: O_2  and  C_20
REMARK    2  A    between atoms: O_2  and  C_23
REMARK    3  A    between atoms: O_4  and  C_22
REMARK    4  A    between atoms: O_4  and  C_26
REMARK    5  A    between atoms: C_15  and  C_23
REMARK    6  A    between atoms: C_16  and  C_25
REMARK    7  A    between atoms: C_31  and  C_37
REMARK                            x       y       z     vdW  Elec       q    Type
REMARK                         _______ _______ _______ _____ _____    ______ ____
ROOT
ATOM      1  O   UNL     1     113.175 129.440 139.207  0.00  0.00    +0.000 OA
ENDROOT
BRANCH   1   5
ATOM      2  O   UNL     1     112.801 127.079 137.598  0.00  0.00    +0.000 OA
ATOM      3  O   UNL     1     113.722 129.548 136.404  0.00  0.00    +0.000 OA
ATOM      4  O   UNL     1     113.547 128.388 135.564  0.00  0.00    +0.000 OA
ATOM      5  C   UNL     1     113.206 129.070 138.470  0.00  0.00    +0.000 A 
ATOM      6  C   UNL     1     112.994 128.276 138.397  0.00  0.00    +0.000 A 
ATOM      7  C   UNL     1     113.448 129.493 137.805  0.00  0.00    +0.000 A 
ATOM      8  C   UNL     1     113.025 127.906 137.660  0.00  0.00    +0.000 A 
ATOM      9  C   UNL     1     113.267 128.330 136.996  0.00  0.00    +0.000 A 
ATOM     10  C   UNL     1     112.831 126.688 136.834  0.00  0.00    +0.000 C 
ATOM     11  C   UNL     1     113.479 129.124 137.068  0.00  0.00    +0.000 A 
ATOM     12  C   UNL     1     113.084 127.129 136.141  0.00  0.00    +0.000 C 
ATOM     13  C   UNL     1     113.304 127.956 136.224  0.00  0.00    +0.000 C 
ATOM     14  C   UNL     1     112.751 127.851 139.062  0.00  0.00    +0.000 C 
ATOM     15  C   UNL     1     113.661 130.288 137.877  0.00  0.00    +0.000 C 
BRANCH  10  17
ATOM     16  O   UNL     1     111.982 123.511 136.557  0.00  0.00    +0.000 OA
ATOM     17  C   UNL     1     112.619 125.893 136.764  0.00  0.00    +0.000 A 
ATOM     18  C   UNL     1     111.839 125.689 136.588  0.00  0.00    +0.000 A 
ATOM     19  C   UNL     1     113.186 125.304 136.871  0.00  0.00    +0.000 A 
ATOM     20  C   UNL     1     111.626 124.895 136.519  0.00  0.00    +0.000 A 
ATOM     21  C   UNL     1     112.974 124.510 136.802  0.00  0.00    +0.000 A 
ATOM     22  C   UNL     1     112.194 124.305 136.626  0.00  0.00    +0.000 A 
ENDBRANCH  10  17
ENDBRANCH   1   5
BRANCH   1  31
ATOM     23  O   UNL     1     111.840 129.870 138.937  0.00  0.00    +0.000 OA
ATOM     24  O   UNL     1     110.404 130.940 140.185  0.00  0.00    +0.000 OA
ATOM     25  O   UNL     1     111.689 130.828 141.214  0.00  0.00    +0.000 OA
ATOM     26  O   UNL     1     113.075 130.078 140.725  0.00  0.00    +0.000 OA
ATOM     27  C   UNL     1     111.147 130.245 139.181  0.00  0.00    +0.000 C 
ATOM     28  C   UNL     1     111.097 130.565 139.940  0.00  0.00    +0.000 C 
ATOM     29  C   UNL     1     111.739 130.509 140.455  0.00  0.00    +0.000 C 
ATOM     30  C   UNL     1     112.432 130.134 140.210  0.00  0.00    +0.000 C 
ATOM     31  C   UNL     1     112.483 129.814 139.451  0.00  0.00    +0.000 C 
BRANCH  27  32
ATOM     32  C   UNL     1     110.504 130.301 138.667  0.00  0.00    +0.000 C 
BRANCH  32  33
ATOM     33  O   UNL     1     110.138 129.618 138.388  0.00  0.00    +0.000 OA
BRANCH  33  39
ATOM     34  O   UNL     1     109.581 130.298 137.209  0.00  0.00    +0.000 OA
ATOM     35  O   UNL     1     108.852 128.464 136.395  0.00  0.00    +0.000 OA
ATOM     36  O   UNL     1     109.451 128.193 137.539  0.00  0.00    +0.000 OA
ATOM     37  C   UNL     1     109.070 129.239 136.578  0.00  0.00    +0.000 C 
ATOM     38  C   UNL     1     109.421 128.975 137.277  0.00  0.00    +0.000 C 
ATOM     39  C   UNL     1     109.737 129.629 137.667  0.00  0.00    +0.000 C 
ATOM     40  C   UNL     1     109.169 130.056 136.537  0.00  0.00    +0.000 C 
BRANCH  37  42
ATOM     41  O   UNL     1     107.957 128.842 135.776  0.00  0.00    +0.000 OA
ATOM     42  C   UNL     1     108.669 129.250 135.857  0.00  0.00    +0.000 C 
ENDBRANCH  37  42
ENDBRANCH  33  39
ENDBRANCH  32  33
ENDBRANCH  27  32
ENDBRANCH   1  31
TORSDOF 7
ENDMDL
MODEL 5
REMARK VINA RESULT:      -9.8      2.343      4.469
REMARK  Name = 42607900
REMARK  7 active torsions:
REMARK  status: ('A' for Active; 'I' for Inactive)
REMARK    1  A    between atoms: O_2  and  C_20
REMARK    2  A    between atoms: O_2  and  C_23
REMARK    3  A    between atoms: O_4  and  C_22
REMARK    4  A    between atoms: O_4  and  C_26
REMARK    5  A    between atoms: C_15  and  C_23
REMARK    6  A    between atoms: C_16  and  C_25
REMARK    7  A    between atoms: C_31  and  C_37
REMARK                            x       y       z     vdW  Elec       q    Type
REMARK                         _______ _______ _______ _____ _____    ______ ____
ROOT
ATOM      1  O   UNL     1     112.613 127.430 140.580  0.00  0.00    +0.000 OA
ENDROOT
BRANCH   1   5
ATOM      2  O   UNL     1     112.032 126.409 137.949  0.00  0.00    +0.000 OA
ATOM      3  O   UNL     1     114.668 126.102 139.103  0.00  0.00    +0.000 OA
ATOM      4  O   UNL     1     114.417 125.576 137.782  0.00  0.00    +0.000 OA
ATOM      5  C   UNL     1     112.864 127.038 139.898  0.00  0.00    +0.000 A 
ATOM      6  C   UNL     1     112.339 126.919 139.273  0.00  0.00    +0.000 A 
ATOM      7  C   UNL     1     113.640 126.766 139.841  0.00  0.00    +0.000 A 
ATOM      8  C   UNL     1     112.590 126.527 138.592  0.00  0.00    +0.000 A 
ATOM      9  C   UNL     1     113.366 126.255 138.536  0.00  0.00    +0.000 A 
ATOM     10  C   UNL     1     112.287 126.002 137.236  0.00  0.00    +0.000 C 
ATOM     11  C   UNL     1     113.891 126.374 139.159  0.00  0.00    +0.000 A 
ATOM     12  C   UNL     1     113.096 125.718 137.177  0.00  0.00    +0.000 C 
ATOM     13  C   UNL     1     113.639 125.846 137.831  0.00  0.00    +0.000 C 
ATOM     14  C   UNL     1     111.562 127.191 139.331  0.00  0.00    +0.000 C 
ATOM     15  C   UNL     1     114.166 126.885 140.466  0.00  0.00    +0.000 C 
BRANCH  10  17
ATOM     16  O   UNL     1     110.176 125.529 134.745  0.00  0.00    +0.000 OA
ATOM     17  C   UNL     1     111.759 125.884 136.613  0.00  0.00    +0.000 A 
ATOM     18  C   UNL     1     111.629 126.485 136.064  0.00  0.00    +0.000 A 
ATOM     19  C   UNL     1     111.362 125.164 136.540  0.00  0.00    +0.000 A 
ATOM     20  C   UNL     1     111.101 126.367 135.441  0.00  0.00    +0.000 A 
ATOM     21  C   UNL     1     110.835 125.046 135.917  0.00  0.00    +0.000 A 
ATOM     22  C   UNL     1     110.704 125.647 135.368  0.00  0.00    +0.000 A 
ENDBRANCH  10  17
ENDBRANCH   1   5
BRANCH   1  31
ATOM     23  O   UNL     1     113.049 128.674 140.028  0.00  0.00    +0.000 OA
ATOM     24  O   UNL     1     113.107 130.678 140.892  0.00  0.00    +0.000 OA
ATOM     25  O   UNL     1     112.482 129.814 142.151  0.00  0.00    +0.000 OA
ATOM     26  O   UNL     1     112.235 128.190 141.995  0.00  0.00    +0.000 OA
ATOM     27  C   UNL     1     113.172 129.485 140.106  0.00  0.00    +0.000 C 
ATOM     28  C   UNL     1     112.983 129.865 140.814  0.00  0.00    +0.000 C 
ATOM     29  C   UNL     1     112.671 129.434 141.443  0.00  0.00    +0.000 C 
ATOM     30  C   UNL     1     112.547 128.621 141.365  0.00  0.00    +0.000 C 
ATOM     31  C   UNL     1     112.736 128.241 140.657  0.00  0.00    +0.000 C 
BRANCH  27  32
ATOM     32  C   UNL     1     113.485 129.918 139.477  0.00  0.00    +0.000 C 
BRANCH  32  33
ATOM     33  O   UNL     1     113.099 129.925 138.748  0.00  0.00    +0.000 OA
BRANCH  33  39
ATOM     34  O   UNL     1     114.211 130.598 138.060  0.00  0.00    +0.000 OA
ATOM     35  O   UNL     1     113.366 130.202 136.139  0.00  0.00    +0.000 OA
ATOM     36  O   UNL     1     112.560 129.695 137.052  0.00  0.00    +0.000 OA
ATOM     37  C   UNL     1     113.809 130.426 136.799  0.00  0.00    +0.000 C 
ATOM     38  C   UNL     1     113.248 130.080 137.294  0.00  0.00    +0.000 C 
ATOM     39  C   UNL     1     113.496 130.185 138.073  0.00  0.00    +0.000 C 
ATOM     40  C   UNL     1     114.404 130.746 137.271  0.00  0.00    +0.000 C 
BRANCH  37  42
ATOM     41  O   UNL     1     114.552 130.139 135.613  0.00  0.00    +0.000 OA
ATOM     42  C   UNL     1     114.206 130.686 136.123  0.00  0.00    +0.000 C 
ENDBRANCH  37  42
ENDBRANCH  33  39
ENDBRANCH  32  33
ENDBRANCH  27  32
ENDBRANCH   1  31
TORSDOF 7
ENDMDL
MODEL 6
REMARK VINA RESULT:      -9.8      2.210      5.116
REMARK  Name = 42607900
REMARK  7 active torsions:
REMARK  status: ('A' for Active; 'I' for Inactive)
REMARK    1  A    between atoms: O_2  and  C_20
REMARK    2  A    between atoms: O_2  and  C_23
REMARK    3  A    between atoms: O_4  and  C_22
REMARK    4  A    between atoms: O_4  and  C_26
REMARK    5  A    between atoms: C_15  and  C_23
REMARK    6  A    between atoms: C_16  and  C_25
REMARK    7  A    between atoms: C_31  and  C_37
REMARK                            x       y       z     vdW  Elec       q    Type
REMARK                         _______ _______ _______ _____ _____    ______ ____
ROOT
ATOM      1  O   UNL     1     111.521 125.376 138.621  0.00  0.00    +0.000 OA
ENDROOT
BRANCH   1   5
ATOM      2  O   UNL     1     112.643 127.861 139.553  0.00  0.00    +0.000 OA
ATOM      3  O   UNL     1     109.915 127.139 140.197  0.00  0.00    +0.000 OA
ATOM      4  O   UNL     1     110.440 128.393 140.682  0.00  0.00    +0.000 OA
ATOM      5  C   UNL     1     111.435 126.081 139.040  0.00  0.00    +0.000 A 
ATOM      6  C   UNL     1     112.065 126.612 139.090  0.00  0.00    +0.000 A 
ATOM      7  C   UNL     1     110.719 126.258 139.409  0.00  0.00    +0.000 A 
ATOM      8  C   UNL     1     111.979 127.317 139.509  0.00  0.00    +0.000 A 
ATOM      9  C   UNL     1     111.262 127.493 139.877  0.00  0.00    +0.000 A 
ATOM     10  C   UNL     1     112.560 128.597 139.987  0.00  0.00    +0.000 C 
ATOM     11  C   UNL     1     110.632 126.963 139.828  0.00  0.00    +0.000 A 
ATOM     12  C   UNL     1     111.813 128.781 140.372  0.00  0.00    +0.000 C 
ATOM     13  C   UNL     1     111.160 128.224 140.316  0.00  0.00    +0.000 C 
ATOM     14  C   UNL     1     112.782 126.435 138.721  0.00  0.00    +0.000 C 
ATOM     15  C   UNL     1     110.088 125.727 139.359  0.00  0.00    +0.000 C 
BRANCH  10  17
ATOM     16  O   UNL     1     115.088 130.709 140.180  0.00  0.00    +0.000 OA
ATOM     17  C   UNL     1     113.192 129.125 140.035  0.00  0.00    +0.000 A 
ATOM     18  C   UNL     1     113.276 129.721 139.471  0.00  0.00    +0.000 A 
ATOM     19  C   UNL     1     113.740 129.058 140.648  0.00  0.00    +0.000 A 
ATOM     20  C   UNL     1     113.908 130.249 139.519  0.00  0.00    +0.000 A 
ATOM     21  C   UNL     1     114.372 129.585 140.697  0.00  0.00    +0.000 A 
ATOM     22  C   UNL     1     114.456 130.181 140.132  0.00  0.00    +0.000 A 
ENDBRANCH  10  17
ENDBRANCH   1   5
BRANCH   1  31
ATOM     23  O   UNL     1     111.074 126.025 137.430  0.00  0.00    +0.000 OA
ATOM     24  O   UNL     1     110.919 125.297 135.378  0.00  0.00    +0.000 OA
ATOM     25  O   UNL     1     111.512 123.959 136.139  0.00  0.00    +0.000 OA
ATOM     26  O   UNL     1     111.813 123.998 137.761  0.00  0.00    +0.000 OA
ATOM     27  C   UNL     1     110.923 126.006 136.619  0.00  0.00    +0.000 C 
ATOM     28  C   UNL     1     111.069 125.317 136.189  0.00  0.00    +0.000 C 
ATOM     29  C   UNL     1     111.366 124.648 136.569  0.00  0.00    +0.000 C 
ATOM     30  C   UNL     1     111.517 124.668 137.381  0.00  0.00    +0.000 C 
ATOM     31  C   UNL     1     111.371 125.356 137.811  0.00  0.00    +0.000 C 
BRANCH  27  32
ATOM     32  C   UNL     1     110.627 126.675 136.238  0.00  0.00    +0.000 C 
BRANCH  32  33
ATOM     33  O   UNL     1     109.859 126.933 136.393  0.00  0.00    +0.000 OA
BRANCH  33  39
ATOM     34  O   UNL     1     110.153 128.354 136.154  0.00  0.00    +0.000 OA
ATOM     35  O   UNL     1     108.092 128.807 135.828  0.00  0.00    +0.000 OA
ATOM     36  O   UNL     1     108.190 127.516 136.087  0.00  0.00    +0.000 OA
ATOM     37  C   UNL     1     108.911 128.787 135.927  0.00  0.00    +0.000 C 
ATOM     38  C   UNL     1     108.874 127.977 136.078  0.00  0.00    +0.000 C 
ATOM     39  C   UNL     1     109.641 127.709 136.219  0.00  0.00    +0.000 C 
ATOM     40  C   UNL     1     109.701 129.020 135.974  0.00  0.00    +0.000 C 
BRANCH  37  42
ATOM     41  O   UNL     1     107.894 129.771 135.727  0.00  0.00    +0.000 OA
ATOM     42  C   UNL     1     108.693 129.563 135.752  0.00  0.00    +0.000 C 
ENDBRANCH  37  42
ENDBRANCH  33  39
ENDBRANCH  32  33
ENDBRANCH  27  32
ENDBRANCH   1  31
TORSDOF 7
ENDMDL
MODEL 7
REMARK VINA RESULT:      -9.7      2.271      4.649
REMARK  Name = 42607900
REMARK  7 active torsions:
REMARK  status: ('A' for Active; 'I' for Inactive)
REMARK    1  A    between atoms: O_2  and  C_20
REMARK    2  A    between atoms: O_2  and  C_23
REMARK    3  A    between atoms: O_4  and  C_22
REMARK    4  A    between atoms: O_4  and  C_26
REMARK    5  A    between atoms: C_15  and  C_23
REMARK    6  A    between atoms: C_16  and  C_25
REMARK    7  A    between atoms: C_31  and  C_37
REMARK                            x       y       z     vdW  Elec       q    Type
REMARK                         _______ _______ _______ _____ _____    ______ ____
ROOT
ATOM      1  O   UNL     1     111.634 126.974 138.586  0.00  0.00    +0.000 OA
ENDROOT
BRANCH   1   5
ATOM      2  O   UNL     1     111.288 129.584 137.415  0.00  0.00    +0.000 OA
ATOM      3  O   UNL     1     113.471 127.873 136.589  0.00  0.00    +0.000 OA
ATOM      4  O   UNL     1     113.332 129.173 135.978  0.00  0.00    +0.000 OA
ATOM      5  C   UNL     1     111.887 127.555 138.057  0.00  0.00    +0.000 A 
ATOM      6  C   UNL     1     111.474 128.267 137.996  0.00  0.00    +0.000 A 
ATOM      7  C   UNL     1     112.552 127.424 137.587  0.00  0.00    +0.000 A 
ATOM      8  C   UNL     1     111.727 128.847 137.467  0.00  0.00    +0.000 A 
ATOM      9  C   UNL     1     112.392 128.716 136.998  0.00  0.00    +0.000 A 
ATOM     10  C   UNL     1     111.546 130.193 136.866  0.00  0.00    +0.000 C 
ATOM     11  C   UNL     1     112.805 128.005 137.058  0.00  0.00    +0.000 A 
ATOM     12  C   UNL     1     112.239 130.056 136.377  0.00  0.00    +0.000 C 
ATOM     13  C   UNL     1     112.665 129.312 136.444  0.00  0.00    +0.000 C 
ATOM     14  C   UNL     1     110.808 128.398 138.466  0.00  0.00    +0.000 C 
ATOM     15  C   UNL     1     112.965 126.712 137.647  0.00  0.00    +0.000 C 
BRANCH  10  17
ATOM     16  O   UNL     1     109.886 133.035 136.635  0.00  0.00    +0.000 OA
ATOM     17  C   UNL     1     111.131 130.903 136.808  0.00  0.00    +0.000 A 
ATOM     18  C   UNL     1     111.376 131.560 137.243  0.00  0.00    +0.000 A 
ATOM     19  C   UNL     1     110.471 130.957 136.316  0.00  0.00    +0.000 A 
ATOM     20  C   UNL     1     110.961 132.271 137.186  0.00  0.00    +0.000 A 
ATOM     21  C   UNL     1     110.056 131.668 136.258  0.00  0.00    +0.000 A 
ATOM     22  C   UNL     1     110.301 132.324 136.693  0.00  0.00    +0.000 A 
ENDBRANCH  10  17
ENDBRANCH   1   5
BRANCH   1  31
ATOM     23  O   UNL     1     112.488 127.513 139.596  0.00  0.00    +0.000 OA
ATOM     24  O   UNL     1     112.674 127.031 141.717  0.00  0.00    +0.000 OA
ATOM     25  O   UNL     1     111.486 125.981 141.261  0.00  0.00    +0.000 OA
ATOM     26  O   UNL     1     110.966 125.952 139.695  0.00  0.00    +0.000 OA
ATOM     27  C   UNL     1     112.748 127.528 140.379  0.00  0.00    +0.000 C 
ATOM     28  C   UNL     1     112.414 127.017 140.933  0.00  0.00    +0.000 C 
ATOM     29  C   UNL     1     111.820 126.492 140.706  0.00  0.00    +0.000 C 
ATOM     30  C   UNL     1     111.560 126.478 139.923  0.00  0.00    +0.000 C 
ATOM     31  C   UNL     1     111.894 126.989 139.368  0.00  0.00    +0.000 C 
BRANCH  27  32
ATOM     32  C   UNL     1     113.342 128.053 140.607  0.00  0.00    +0.000 C 
BRANCH  32  33
ATOM     33  O   UNL     1     113.232 128.865 140.520  0.00  0.00    +0.000 OA
BRANCH  33  39
ATOM     34  O   UNL     1     114.669 129.152 140.637  0.00  0.00    +0.000 OA
ATOM     35  O   UNL     1     114.340 131.258 140.515  0.00  0.00    +0.000 OA
ATOM     36  O   UNL     1     113.168 130.657 140.435  0.00  0.00    +0.000 OA
ATOM     37  C   UNL     1     114.621 130.485 140.574  0.00  0.00    +0.000 C 
ATOM     38  C   UNL     1     113.850 130.199 140.517  0.00  0.00    +0.000 C 
ATOM     39  C   UNL     1     113.879 129.376 140.556  0.00  0.00    +0.000 C 
ATOM     40  C   UNL     1     115.127 129.838 140.648  0.00  0.00    +0.000 C 
BRANCH  37  42
ATOM     41  O   UNL     1     115.186 131.740 140.958  0.00  0.00    +0.000 OA
ATOM     42  C   UNL     1     115.268 130.996 140.610  0.00  0.00    +0.000 C 
ENDBRANCH  37  42
ENDBRANCH  33  39
ENDBRANCH  32  33
ENDBRANCH  27  32
ENDBRANCH   1  31
TORSDOF 7
ENDMDL
MODEL 8
REMARK VINA RESULT:      -9.7      2.010      4.466
REMARK  Name = 42607900
REMARK  7 active torsions:
REMARK  status: ('A' for Active; 'I' for Inactive)
REMARK    1  A    between atoms: O_2  and  C_20
REMARK    2  A    between atoms: O_2  and  C_23
REMARK    3  A    between atoms: O_4  and  C_22
REMARK    4  A    between atoms: O_4  and  C_26
REMARK    5  A    between atoms: C_15  and  C_23
REMARK    6  A    between atoms: C_16  and  C_25
REMARK    7  A    between atoms: C_31  and  C_37
REMARK                            x       y       z     vdW  Elec       q    Type
REMARK                         _______ _______ _______ _____ _____    ______ ____
ROOT
ATOM      1  O   UNL     1     112.495 127.579 141.434  0.00  0.00    +0.000 OA
ENDROOT
BRANCH   1   5
ATOM      2  O   UNL     1     113.243 126.371 138.927  0.00  0.00    +0.000 OA
ATOM      3  O   UNL     1     110.496 126.304 139.838  0.00  0.00    +0.000 OA
ATOM      4  O   UNL     1     110.830 125.687 138.577  0.00  0.00    +0.000 OA
ATOM      5  C   UNL     1     112.281 127.166 140.753  0.00  0.00    +0.000 A 
ATOM      6  C   UNL     1     112.852 126.976 140.189  0.00  0.00    +0.000 A 
ATOM      7  C   UNL     1     111.496 126.942 140.635  0.00  0.00    +0.000 A 
ATOM      8  C   UNL     1     112.638 126.562 139.508  0.00  0.00    +0.000 A 
ATOM      9  C   UNL     1     111.853 126.339 139.391  0.00  0.00    +0.000 A 
ATOM     10  C   UNL     1     113.026 125.940 138.216  0.00  0.00    +0.000 C 
ATOM     11  C   UNL     1     111.282 126.528 139.954  0.00  0.00    +0.000 A 
ATOM     12  C   UNL     1     112.208 125.707 138.094  0.00  0.00    +0.000 C 
ATOM     13  C   UNL     1     111.618 125.908 138.686  0.00  0.00    +0.000 C 
ATOM     14  C   UNL     1     113.638 127.200 140.306  0.00  0.00    +0.000 C 
ATOM     15  C   UNL     1     110.924 127.131 141.200  0.00  0.00    +0.000 C 
BRANCH  10  17
ATOM     16  O   UNL     1     115.320 125.186 135.967  0.00  0.00    +0.000 OA
ATOM     17  C   UNL     1     113.600 125.752 137.654  0.00  0.00    +0.000 A 
ATOM     18  C   UNL     1     113.722 126.249 137.006  0.00  0.00    +0.000 A 
ATOM     19  C   UNL     1     114.051 125.067 137.738  0.00  0.00    +0.000 A 
ATOM     20  C   UNL     1     114.295 126.060 136.444  0.00  0.00    +0.000 A 
ATOM     21  C   UNL     1     114.625 124.878 137.177  0.00  0.00    +0.000 A 
ATOM     22  C   UNL     1     114.747 125.374 136.529  0.00  0.00    +0.000 A 
ENDBRANCH  10  17
ENDBRANCH   1   5
BRANCH   1  31
ATOM     23  O   UNL     1     112.452 128.838 140.758  0.00  0.00    +0.000 OA
ATOM     24  O   UNL     1     112.206 130.865 141.528  0.00  0.00    +0.000 OA
ATOM     25  O   UNL     1     112.147 129.992 142.926  0.00  0.00    +0.000 OA
ATOM     26  O   UNL     1     112.292 128.349 142.879  0.00  0.00    +0.000 OA
ATOM     27  C   UNL     1     112.380 129.659 140.781  0.00  0.00    +0.000 C 
ATOM     28  C   UNL     1     112.278 130.043 141.504  0.00  0.00    +0.000 C 
ATOM     29  C   UNL     1     112.249 129.607 142.204  0.00  0.00    +0.000 C 
ATOM     30  C   UNL     1     112.321 128.785 142.180  0.00  0.00    +0.000 C 
ATOM     31  C   UNL     1     112.423 128.400 141.457  0.00  0.00    +0.000 C 
BRANCH  27  32
ATOM     32  C   UNL     1     112.409 130.096 140.082  0.00  0.00    +0.000 C 
BRANCH  32  33
ATOM     33  O   UNL     1     111.841 129.977 139.497  0.00  0.00    +0.000 OA
BRANCH  33  39
ATOM     34  O   UNL     1     112.514 130.843 138.517  0.00  0.00    +0.000 OA
ATOM     35  O   UNL     1     111.373 130.037 136.902  0.00  0.00    +0.000 OA
ATOM     36  O   UNL     1     110.991 129.434 138.012  0.00  0.00    +0.000 OA
ATOM     37  C   UNL     1     111.882 130.439 137.413  0.00  0.00    +0.000 C 
ATOM     38  C   UNL     1     111.580 130.011 138.050  0.00  0.00    +0.000 C 
ATOM     39  C   UNL     1     111.971 130.260 138.732  0.00  0.00    +0.000 C 
ATOM     40  C   UNL     1     112.459 130.952 137.701  0.00  0.00    +0.000 C 
BRANCH  37  42
ATOM     41  O   UNL     1     112.130 130.191 136.028  0.00  0.00    +0.000 OA
ATOM     42  C   UNL     1     112.011 130.721 136.649  0.00  0.00    +0.000 C 
ENDBRANCH  37  42
ENDBRANCH  33  39
ENDBRANCH  32  33
ENDBRANCH  27  32
ENDBRANCH   1  31
TORSDOF 7
ENDMDL
MODEL 9
REMARK VINA RESULT:      -9.6      1.977      2.837
REMARK  Name = 42607900
REMARK  7 active torsions:
REMARK  status: ('A' for Active; 'I' for Inactive)
REMARK    1  A    between atoms: O_2  and  C_20
REMARK    2  A    between atoms: O_2  and  C_23
REMARK    3  A    between atoms: O_4  and  C_22
REMARK    4  A    between atoms: O_4  and  C_26
REMARK    5  A    between atoms: C_15  and  C_23
REMARK    6  A    between atoms: C_16  and  C_25
REMARK    7  A    between atoms: C_31  and  C_37
REMARK                            x       y       z     vdW  Elec       q    Type
REMARK                         _______ _______ _______ _____ _____    ______ ____
ROOT
ATOM      1  O   UNL     1     110.432 128.811 135.871  0.00  0.00    +0.000 OA
ENDROOT
BRANCH   1   5
ATOM      2  O   UNL     1     112.244 126.642 136.428  0.00  0.00    +0.000 OA
ATOM      3  O   UNL     1     109.640 126.131 135.272  0.00  0.00    +0.000 OA
ATOM      4  O   UNL     1     110.519 125.017 135.536  0.00  0.00    +0.000 OA
ATOM      5  C   UNL     1     110.596 128.003 135.861  0.00  0.00    +0.000 A 
ATOM      6  C   UNL     1     111.321 127.726 136.142  0.00  0.00    +0.000 A 
ATOM      7  C   UNL     1     110.036 127.471 135.572  0.00  0.00    +0.000 A 
ATOM      8  C   UNL     1     111.485 126.917 136.132  0.00  0.00    +0.000 A 
ATOM      9  C   UNL     1     110.925 126.386 135.843  0.00  0.00    +0.000 A 
ATOM     10  C   UNL     1     112.421 125.801 136.421  0.00  0.00    +0.000 C 
ATOM     11  C   UNL     1     110.201 126.663 135.562  0.00  0.00    +0.000 A 
ATOM     12  C   UNL     1     111.838 125.247 136.119  0.00  0.00    +0.000 C 
ATOM     13  C   UNL     1     111.085 125.542 135.828  0.00  0.00    +0.000 C 
ATOM     14  C   UNL     1     111.881 128.258 136.432  0.00  0.00    +0.000 C 
ATOM     15  C   UNL     1     109.311 127.748 135.291  0.00  0.00    +0.000 C 
BRANCH  10  17
ATOM     16  O   UNL     1     115.324 124.705 137.545  0.00  0.00    +0.000 OA
ATOM     17  C   UNL     1     113.147 125.527 136.702  0.00  0.00    +0.000 A 
ATOM     18  C   UNL     1     113.249 125.383 137.508  0.00  0.00    +0.000 A 
ATOM     19  C   UNL     1     113.770 125.397 136.177  0.00  0.00    +0.000 A 
ATOM     20  C   UNL     1     113.975 125.109 137.789  0.00  0.00    +0.000 A 
ATOM     21  C   UNL     1     114.496 125.123 136.458  0.00  0.00    +0.000 A 
ATOM     22  C   UNL     1     114.598 124.979 137.263  0.00  0.00    +0.000 A 
ENDBRANCH  10  17
ENDBRANCH   1   5
BRANCH   1  31
ATOM     23  O   UNL     1     110.053 128.777 137.248  0.00  0.00    +0.000 OA
ATOM     24  O   UNL     1     108.816 130.137 138.425  0.00  0.00    +0.000 OA
ATOM     25  O   UNL     1     108.765 130.869 136.947  0.00  0.00    +0.000 OA
ATOM     26  O   UNL     1     109.573 130.206 135.670  0.00  0.00    +0.000 OA
ATOM     27  C   UNL     1     109.650 129.108 137.887  0.00  0.00    +0.000 C 
ATOM     28  C   UNL     1     109.220 129.805 137.786  0.00  0.00    +0.000 C 
ATOM     29  C   UNL     1     109.195 130.171 137.048  0.00  0.00    +0.000 C 
ATOM     30  C   UNL     1     109.599 129.840 136.409  0.00  0.00    +0.000 C 
ATOM     31  C   UNL     1     110.028 129.142 136.509  0.00  0.00    +0.000 C 
BRANCH  27  32
ATOM     32  C   UNL     1     109.675 128.742 138.626  0.00  0.00    +0.000 C 
BRANCH  32  33
ATOM     33  O   UNL     1     109.412 127.965 138.712  0.00  0.00    +0.000 OA
BRANCH  33  39
ATOM     34  O   UNL     1     109.964 127.840 140.069  0.00  0.00    +0.000 OA
ATOM     35  O   UNL     1     109.497 125.759 140.154  0.00  0.00    +0.000 OA
ATOM     36  O   UNL     1     109.105 126.217 138.980  0.00  0.00    +0.000 OA
ATOM     37  C   UNL     1     109.735 126.541 140.268  0.00  0.00    +0.000 C 
ATOM     38  C   UNL     1     109.460 126.735 139.516  0.00  0.00    +0.000 C 
ATOM     39  C   UNL     1     109.601 127.538 139.392  0.00  0.00    +0.000 C 
ATOM     40  C   UNL     1     110.047 127.223 140.610  0.00  0.00    +0.000 C 
BRANCH  37  42
ATOM     41  O   UNL     1     109.602 125.363 141.066  0.00  0.00    +0.000 OA
ATOM     42  C   UNL     1     109.924 126.114 140.949  0.00  0.00    +0.000 C 
ENDBRANCH  37  42
ENDBRANCH  33  39
ENDBRANCH  32  33
ENDBRANCH  27  32
ENDBRANCH   1  31
TORSDOF 7
ENDMDL
MODEL 10
REMARK VINA RESULT:      -9.6      2.069      3.409
REMARK  Name = 42607900
REMARK  7 active torsions:
REMARK  status: ('A' for Active; 'I' for Inactive)
REMARK    1  A    between atoms: O_2  and  C_20
REMARK    2  A    between atoms: O_2  and  C_23
REMARK    3  A    between atoms: O_4  and  C_22
REMARK    4  A    between atoms: O_4  and  C_26
REMARK    5  A    between atoms: C_15  and  C_23
REMARK    6  A    between atoms: C_16  and  C_25
REMARK    7  A    between atoms: C_31  and  C_37
REMARK                            x       y       z     vdW  Elec       q    Type
REMARK                         _______ _______ _______ _____ _____    ______ ____
ROOT
ATOM      1  O   UNL     1     109.530 127.217 136.333  0.00  0.00    +0.000 OA
ENDROOT
BRANCH   1   5
ATOM      2  O   UNL     1     111.596 126.781 138.294  0.00  0.00    +0.000 OA
ATOM      3  O   UNL     1     111.503 125.201 135.871  0.00  0.00    +0.000 OA
ATOM      4  O   UNL     1     112.554 124.952 136.828  0.00  0.00    +0.000 OA
ATOM      5  C   UNL     1     110.202 126.805 136.577  0.00  0.00    +0.000 A 
ATOM      6  C   UNL     1     110.561 126.990 137.297  0.00  0.00    +0.000 A 
ATOM      7  C   UNL     1     110.517 126.209 136.102  0.00  0.00    +0.000 A 
ATOM      8  C   UNL     1     111.233 126.578 137.542  0.00  0.00    +0.000 A 
ATOM      9  C   UNL     1     111.547 125.983 137.066  0.00  0.00    +0.000 A 
ATOM     10  C   UNL     1     112.296 126.356 138.554  0.00  0.00    +0.000 C 
ATOM     11  C   UNL     1     111.189 125.798 136.347  0.00  0.00    +0.000 A 
ATOM     12  C   UNL     1     112.624 125.735 138.059  0.00  0.00    +0.000 C 
ATOM     13  C   UNL     1     112.246 125.547 137.310  0.00  0.00    +0.000 C 
ATOM     14  C   UNL     1     110.246 127.587 137.773  0.00  0.00    +0.000 C 
ATOM     15  C   UNL     1     110.159 126.024 135.382  0.00  0.00    +0.000 C 
BRANCH  10  17
ATOM     16  O   UNL     1     113.720 127.105 141.435  0.00  0.00    +0.000 OA
ATOM     17  C   UNL     1     112.652 126.543 139.275  0.00  0.00    +0.000 A 
ATOM     18  C   UNL     1     112.240 126.428 139.980  0.00  0.00    +0.000 A 
ATOM     19  C   UNL     1     113.419 126.846 139.289  0.00  0.00    +0.000 A 
ATOM     20  C   UNL     1     112.596 126.615 140.701  0.00  0.00    +0.000 A 
ATOM     21  C   UNL     1     113.775 127.033 140.009  0.00  0.00    +0.000 A 
ATOM     22  C   UNL     1     113.364 126.918 140.715  0.00  0.00    +0.000 A 
ENDBRANCH  10  17
ENDBRANCH   1   5
BRANCH   1  31
ATOM     23  O   UNL     1     110.349 128.200 135.697  0.00  0.00    +0.000 OA
ATOM     24  O   UNL     1     109.840 130.133 134.819  0.00  0.00    +0.000 OA
ATOM     25  O   UNL     1     108.358 129.624 135.334  0.00  0.00    +0.000 OA
ATOM     26  O   UNL     1     108.203 128.166 136.092  0.00  0.00    +0.000 OA
ATOM     27  C   UNL     1     110.427 128.928 135.318  0.00  0.00    +0.000 C 
ATOM     28  C   UNL     1     109.763 129.403 135.198  0.00  0.00    +0.000 C 
ATOM     29  C   UNL     1     109.021 129.149 135.455  0.00  0.00    +0.000 C 
ATOM     30  C   UNL     1     108.944 128.420 135.834  0.00  0.00    +0.000 C 
ATOM     31  C   UNL     1     109.608 127.945 135.955  0.00  0.00    +0.000 C 
BRANCH  27  32
ATOM     32  C   UNL     1     111.168 129.183 135.060  0.00  0.00    +0.000 C 
BRANCH  32  33
ATOM     33  O   UNL     1     111.758 129.358 135.608  0.00  0.00    +0.000 OA
BRANCH  33  39
ATOM     34  O   UNL     1     112.832 129.226 134.612  0.00  0.00    +0.000 OA
ATOM     35  O   UNL     1     114.345 129.576 136.077  0.00  0.00    +0.000 OA
ATOM     36  O   UNL     1     113.172 129.630 136.680  0.00  0.00    +0.000 OA
ATOM     37  C   UNL     1     113.883 129.428 135.409  0.00  0.00    +0.000 C 
ATOM     38  C   UNL     1     113.200 129.480 135.869  0.00  0.00    +0.000 C 
ATOM     39  C   UNL     1     112.551 129.355 135.377  0.00  0.00    +0.000 C 
ATOM     40  C   UNL     1     113.655 129.271 134.633  0.00  0.00    +0.000 C 
BRANCH  37  42
ATOM     41  O   UNL     1     115.157 130.072 135.352  0.00  0.00    +0.000 OA
ATOM     42  C   UNL     1     114.675 129.425 135.178  0.00  0.00    +0.000 C 
ENDBRANCH  37  42
ENDBRANCH  33  39
ENDBRANCH  32  33
ENDBRANCH  27  32
ENDBRANCH   1  31
TORSDOF 7
ENDMDL
