MODEL 1
REMARK VINA RESULT:      -9.6      0.000      0.000
REMARK  Name = 131833827
REMARK  11 active torsions:
REMARK  status: ('A' for Active; 'I' for Inactive)
REMARK    1  A    between atoms: O_3  and  C_25
REMARK    2  A    between atoms: O_3  and  C_32
REMARK    3  A    between atoms: O_7  and  C_27
REMARK    4  A    between atoms: O_7  and  C_34
REMARK    5  A    between atoms: O_8  and  C_31
REMARK    6  A    between atoms: O_8  and  C_36
REMARK    7  A    between atoms: C_23  and  C_27
REMARK    8  A    between atoms: C_30  and  C_33
REMARK    9  A    between atoms: C_34  and  C_35
REMARK   10  A    between atoms: C_35  and  C_36
REMARK   11  A    between atoms: C_37  and  C_41
REMARK                            x       y       z     vdW  Elec       q    Type
REMARK                         _______ _______ _______ _____ _____    ______ ____
ROOT
ATOM      1  O   UNL     1     111.377 126.626 136.268  0.00  0.00    +0.000 OA
ATOM      2  O   UNL     1     109.992 127.071 134.640  0.00  0.00    +0.000 OA
ATOM      3  O   UNL     1     109.987 125.421 134.612  0.00  0.00    +0.000 OA
ATOM      4  O   UNL     1     110.907 124.574 135.688  0.00  0.00    +0.000 OA
ATOM      5  C   UNL     1     110.453 126.647 135.179  0.00  0.00    +0.000 C 
ATOM      6  C   UNL     1     110.450 125.823 135.164  0.00  0.00    +0.000 C 
ATOM      7  C   UNL     1     110.917 127.049 135.731  0.00  0.00    +0.000 C 
ATOM      8  C   UNL     1     110.911 125.399 135.703  0.00  0.00    +0.000 C 
ATOM      9  C   UNL     1     111.374 125.801 136.255  0.00  0.00    +0.000 C 
ENDROOT
BRANCH   9  10
ATOM     10  O   UNL     1     111.834 125.377 136.792  0.00  0.00    +0.000 OA
BRANCH  10  15
ATOM     11  O   UNL     1     112.799 126.079 138.620  0.00  0.00    +0.000 OA
ATOM     12  O   UNL     1     110.520 125.675 137.744  0.00  0.00    +0.000 OA
ATOM     13  O   UNL     1     109.933 126.106 138.990  0.00  0.00    +0.000 OA
ATOM     14  O   UNL     1     111.687 126.963 141.163  0.00  0.00    +0.000 OA
ATOM     15  C   UNL     1     111.937 125.661 137.560  0.00  0.00    +0.000 A 
ATOM     16  C   UNL     1     112.697 125.796 137.853  0.00  0.00    +0.000 A 
ATOM     17  C   UNL     1     111.280 125.810 138.036  0.00  0.00    +0.000 A 
ATOM     18  C   UNL     1     111.382 126.093 138.804  0.00  0.00    +0.000 A 
ATOM     19  C   UNL     1     112.141 126.228 139.096  0.00  0.00    +0.000 A 
ATOM     20  C   UNL     1     110.689 126.244 139.290  0.00  0.00    +0.000 A 
ATOM     21  C   UNL     1     112.261 126.523 139.894  0.00  0.00    +0.000 A 
ATOM     22  C   UNL     1     110.789 126.539 140.091  0.00  0.00    +0.000 A 
ATOM     23  C   UNL     1     111.580 126.680 140.395  0.00  0.00    +0.000 A 
BRANCH  16  25
ATOM     24  O   UNL     1     115.325 125.203 135.946  0.00  0.00    +0.000 OA
ATOM     25  C   UNL     1     113.354 125.647 137.376  0.00  0.00    +0.000 A 
ATOM     26  C   UNL     1     113.595 124.870 137.237  0.00  0.00    +0.000 A 
ATOM     27  C   UNL     1     113.769 126.275 137.040  0.00  0.00    +0.000 A 
ATOM     28  C   UNL     1     114.252 124.723 136.760  0.00  0.00    +0.000 A 
ATOM     29  C   UNL     1     114.426 126.127 136.563  0.00  0.00    +0.000 A 
ATOM     30  C   UNL     1     114.668 125.350 136.423  0.00  0.00    +0.000 A 
ENDBRANCH  16  25
ENDBRANCH  10  15
ENDBRANCH   9  10
BRANCH   7  31
ATOM     31  C   UNL     1     110.919 127.874 135.744  0.00  0.00    +0.000 C 
BRANCH  31  32
ATOM     32  O   UNL     1     111.578 128.280 136.027  0.00  0.00    +0.000 OA
BRANCH  32  34
ATOM     33  O   UNL     1     111.570 129.622 135.535  0.00  0.00    +0.000 OA
ATOM     34  C   UNL     1     111.534 129.092 136.167  0.00  0.00    +0.000 C 
BRANCH  34  35
ATOM     35  C   UNL     1     111.455 129.375 136.938  0.00  0.00    +0.000 C 
BRANCH  35  37
ATOM     36  O   UNL     1     112.182 130.602 137.021  0.00  0.00    +0.000 OA
ATOM     37  C   UNL     1     112.057 129.828 137.276  0.00  0.00    +0.000 C 
BRANCH  37  38
ATOM     38  O   UNL     1     112.532 129.506 137.868  0.00  0.00    +0.000 OA
BRANCH  38  47
ATOM     39  O   UNL     1     111.750 130.042 138.936  0.00  0.00    +0.000 OA
ATOM     40  O   UNL     1     113.766 130.135 140.368  0.00  0.00    +0.000 OA
ATOM     41  O   UNL     1     112.311 130.639 140.959  0.00  0.00    +0.000 OA
ATOM     42  O   UNL     1     113.877 129.568 138.822  0.00  0.00    +0.000 OA
ATOM     43  C   UNL     1     113.094 130.103 139.890  0.00  0.00    +0.000 C 
ATOM     44  C   UNL     1     112.366 130.356 140.186  0.00  0.00    +0.000 C 
ATOM     45  C   UNL     1     113.149 129.821 139.118  0.00  0.00    +0.000 C 
ATOM     46  C   UNL     1     111.694 130.325 139.709  0.00  0.00    +0.000 C 
ATOM     47  C   UNL     1     112.478 129.790 138.641  0.00  0.00    +0.000 C 
BRANCH  46  50
ATOM     48  O   UNL     1     110.446 130.033 140.339  0.00  0.00    +0.000 OA
ATOM     49  O   UNL     1     110.760 131.375 139.966  0.00  0.00    +0.000 OA
ATOM     50  C   UNL     1     110.966 130.578 140.005  0.00  0.00    +0.000 C 
ENDBRANCH  46  50
ENDBRANCH  38  47
ENDBRANCH  37  38
ENDBRANCH  35  37
ENDBRANCH  34  35
ENDBRANCH  32  34
ENDBRANCH  31  32
ENDBRANCH   7  31
TORSDOF 11
ENDMDL
MODEL 2
REMARK VINA RESULT:      -9.5      1.872      3.554
REMARK  Name = 131833827
REMARK  11 active torsions:
REMARK  status: ('A' for Active; 'I' for Inactive)
REMARK    1  A    between atoms: O_3  and  C_25
REMARK    2  A    between atoms: O_3  and  C_32
REMARK    3  A    between atoms: O_7  and  C_27
REMARK    4  A    between atoms: O_7  and  C_34
REMARK    5  A    between atoms: O_8  and  C_31
REMARK    6  A    between atoms: O_8  and  C_36
REMARK    7  A    between atoms: C_23  and  C_27
REMARK    8  A    between atoms: C_30  and  C_33
REMARK    9  A    between atoms: C_34  and  C_35
REMARK   10  A    between atoms: C_35  and  C_36
REMARK   11  A    between atoms: C_37  and  C_41
REMARK                            x       y       z     vdW  Elec       q    Type
REMARK                         _______ _______ _______ _____ _____    ______ ____
ROOT
ATOM      1  O   UNL     1     110.724 127.194 136.613  0.00  0.00    +0.000 OA
ATOM      2  O   UNL     1     109.359 126.171 135.252  0.00  0.00    +0.000 OA
ATOM      3  O   UNL     1     110.665 125.164 135.197  0.00  0.00    +0.000 OA
ATOM      4  O   UNL     1     112.011 125.511 136.087  0.00  0.00    +0.000 OA
ATOM      5  C   UNL     1     110.032 126.344 135.697  0.00  0.00    +0.000 C 
ATOM      6  C   UNL     1     110.685 125.841 135.669  0.00  0.00    +0.000 C 
ATOM      7  C   UNL     1     110.052 127.021 136.168  0.00  0.00    +0.000 C 
ATOM      8  C   UNL     1     111.358 126.014 136.114  0.00  0.00    +0.000 C 
ATOM      9  C   UNL     1     111.378 126.691 136.586  0.00  0.00    +0.000 C 
ENDROOT
BRANCH   9  10
ATOM     10  O   UNL     1     112.050 126.864 137.030  0.00  0.00    +0.000 OA
BRANCH  10  15
ATOM     11  O   UNL     1     112.589 128.755 137.979  0.00  0.00    +0.000 OA
ATOM     12  O   UNL     1     112.417 127.782 135.709  0.00  0.00    +0.000 OA
ATOM     13  O   UNL     1     112.843 129.025 135.113  0.00  0.00    +0.000 OA
ATOM     14  O   UNL     1     113.454 131.295 136.847  0.00  0.00    +0.000 OA
ATOM     15  C   UNL     1     112.291 127.647 137.126  0.00  0.00    +0.000 A 
ATOM     16  C   UNL     1     112.349 127.972 137.883  0.00  0.00    +0.000 A 
ATOM     17  C   UNL     1     112.474 128.107 136.466  0.00  0.00    +0.000 A 
ATOM     18  C   UNL     1     112.715 128.890 136.562  0.00  0.00    +0.000 A 
ATOM     19  C   UNL     1     112.772 129.214 137.318  0.00  0.00    +0.000 A 
ATOM     20  C   UNL     1     112.903 129.358 135.866  0.00  0.00    +0.000 A 
ATOM     21  C   UNL     1     113.022 130.028 137.431  0.00  0.00    +0.000 A 
ATOM     22  C   UNL     1     113.154 130.174 135.959  0.00  0.00    +0.000 A 
ATOM     23  C   UNL     1     113.214 130.512 136.747  0.00  0.00    +0.000 A 
BRANCH  16  25
ATOM     24  O   UNL     1     111.618 126.132 140.524  0.00  0.00    +0.000 OA
ATOM     25  C   UNL     1     112.165 127.512 138.543  0.00  0.00    +0.000 A 
ATOM     26  C   UNL     1     111.464 127.645 138.957  0.00  0.00    +0.000 A 
ATOM     27  C   UNL     1     112.684 126.920 138.789  0.00  0.00    +0.000 A 
ATOM     28  C   UNL     1     111.282 127.185 139.616  0.00  0.00    +0.000 A 
ATOM     29  C   UNL     1     112.501 126.460 139.450  0.00  0.00    +0.000 A 
ATOM     30  C   UNL     1     111.800 126.592 139.863  0.00  0.00    +0.000 A 
ENDBRANCH  16  25
ENDBRANCH  10  15
ENDBRANCH   9  10
BRANCH   7  31
ATOM     31  C   UNL     1     109.398 127.524 136.195  0.00  0.00    +0.000 C 
BRANCH  31  32
ATOM     32  O   UNL     1     109.478 128.317 135.984  0.00  0.00    +0.000 OA
BRANCH  32  34
ATOM     33  O   UNL     1     108.144 128.805 135.839  0.00  0.00    +0.000 OA
ATOM     34  C   UNL     1     108.890 128.860 136.185  0.00  0.00    +0.000 C 
BRANCH  34  35
ATOM     35  C   UNL     1     109.049 129.456 136.732  0.00  0.00    +0.000 C 
BRANCH  35  37
ATOM     36  O   UNL     1     108.147 130.536 136.485  0.00  0.00    +0.000 OA
ATOM     37  C   UNL     1     108.918 130.245 136.532  0.00  0.00    +0.000 C 
BRANCH  37  38
ATOM     38  O   UNL     1     109.556 130.744 136.380  0.00  0.00    +0.000 OA
BRANCH  38  47
ATOM     39  O   UNL     1     109.748 131.205 137.719  0.00  0.00    +0.000 OA
ATOM     40  O   UNL     1     110.278 133.467 136.867  0.00  0.00    +0.000 OA
ATOM     41  O   UNL     1     110.294 133.172 138.490  0.00  0.00    +0.000 OA
ATOM     42  O   UNL     1     109.909 132.253 135.812  0.00  0.00    +0.000 OA
ATOM     43  C   UNL     1     110.101 132.712 137.151  0.00  0.00    +0.000 C 
ATOM     44  C   UNL     1     110.109 132.565 137.962  0.00  0.00    +0.000 C 
ATOM     45  C   UNL     1     109.917 132.105 136.624  0.00  0.00    +0.000 C 
ATOM     46  C   UNL     1     109.933 131.811 138.247  0.00  0.00    +0.000 C 
ATOM     47  C   UNL     1     109.741 131.352 136.907  0.00  0.00    +0.000 C 
BRANCH  46  50
ATOM     48  O   UNL     1     110.648 131.470 139.436  0.00  0.00    +0.000 OA
ATOM     49  O   UNL     1     109.241 131.710 139.493  0.00  0.00    +0.000 OA
ATOM     50  C   UNL     1     109.941 131.664 139.059  0.00  0.00    +0.000 C 
ENDBRANCH  46  50
ENDBRANCH  38  47
ENDBRANCH  37  38
ENDBRANCH  35  37
ENDBRANCH  34  35
ENDBRANCH  32  34
ENDBRANCH  31  32
ENDBRANCH   7  31
TORSDOF 11
ENDMDL
MODEL 3
REMARK VINA RESULT:      -9.4      2.043      4.093
REMARK  Name = 131833827
REMARK  11 active torsions:
REMARK  status: ('A' for Active; 'I' for Inactive)
REMARK    1  A    between atoms: O_3  and  C_25
REMARK    2  A    between atoms: O_3  and  C_32
REMARK    3  A    between atoms: O_7  and  C_27
REMARK    4  A    between atoms: O_7  and  C_34
REMARK    5  A    between atoms: O_8  and  C_31
REMARK    6  A    between atoms: O_8  and  C_36
REMARK    7  A    between atoms: C_23  and  C_27
REMARK    8  A    between atoms: C_30  and  C_33
REMARK    9  A    between atoms: C_34  and  C_35
REMARK   10  A    between atoms: C_35  and  C_36
REMARK   11  A    between atoms: C_37  and  C_41
REMARK                            x       y       z     vdW  Elec       q    Type
REMARK                         _______ _______ _______ _____ _____    ______ ____
ROOT
ATOM      1  O   UNL     1     112.947 127.965 137.353  0.00  0.00    +0.000 OA
ATOM      2  O   UNL     1     113.328 126.571 138.989  0.00  0.00    +0.000 OA
ATOM      3  O   UNL     1     113.920 125.717 137.707  0.00  0.00    +0.000 OA
ATOM      4  O   UNL     1     113.863 126.362 136.189  0.00  0.00    +0.000 OA
ATOM      5  C   UNL     1     113.300 126.894 138.229  0.00  0.00    +0.000 C 
ATOM      6  C   UNL     1     113.596 126.467 137.589  0.00  0.00    +0.000 C 
ATOM      7  C   UNL     1     112.975 127.643 138.111  0.00  0.00    +0.000 C 
ATOM      8  C   UNL     1     113.567 126.789 136.829  0.00  0.00    +0.000 C 
ATOM      9  C   UNL     1     113.243 127.539 136.711  0.00  0.00    +0.000 C 
ENDROOT
BRANCH   9  10
ATOM     10  O   UNL     1     113.214 127.860 135.953  0.00  0.00    +0.000 OA
BRANCH  10  15
ATOM     11  O   UNL     1     112.020 129.534 135.216  0.00  0.00    +0.000 OA
ATOM     12  O   UNL     1     111.696 127.218 136.030  0.00  0.00    +0.000 OA
ATOM     13  O   UNL     1     110.269 127.321 135.843  0.00  0.00    +0.000 OA
ATOM     14  O   UNL     1     109.149 129.815 134.814  0.00  0.00    +0.000 OA
ATOM     15  C   UNL     1     112.563 128.311 135.720  0.00  0.00    +0.000 A 
ATOM     16  C   UNL     1     112.671 129.083 135.449  0.00  0.00    +0.000 A 
ATOM     17  C   UNL     1     111.804 127.990 135.759  0.00  0.00    +0.000 A 
ATOM     18  C   UNL     1     111.153 128.441 135.526  0.00  0.00    +0.000 A 
ATOM     19  C   UNL     1     111.261 129.212 135.255  0.00  0.00    +0.000 A 
ATOM     20  C   UNL     1     110.368 128.094 135.571  0.00  0.00    +0.000 A 
ATOM     21  C   UNL     1     110.591 129.690 135.010  0.00  0.00    +0.000 A 
ATOM     22  C   UNL     1     109.686 128.558 135.330  0.00  0.00    +0.000 A 
ATOM     23  C   UNL     1     109.798 129.362 135.048  0.00  0.00    +0.000 A 
BRANCH  16  25
ATOM     24  O   UNL     1     115.708 130.365 135.294  0.00  0.00    +0.000 OA
ATOM     25  C   UNL     1     113.430 129.404 135.411  0.00  0.00    +0.000 A 
ATOM     26  C   UNL     1     113.670 129.964 135.967  0.00  0.00    +0.000 A 
ATOM     27  C   UNL     1     113.948 129.164 134.816  0.00  0.00    +0.000 A 
ATOM     28  C   UNL     1     114.429 130.284 135.928  0.00  0.00    +0.000 A 
ATOM     29  C   UNL     1     114.708 129.484 134.777  0.00  0.00    +0.000 A 
ATOM     30  C   UNL     1     114.949 130.044 135.333  0.00  0.00    +0.000 A 
ENDBRANCH  16  25
ENDBRANCH  10  15
ENDBRANCH   9  10
BRANCH   7  31
ATOM     31  C   UNL     1     112.680 128.070 138.753  0.00  0.00    +0.000 C 
BRANCH  31  32
ATOM     32  O   UNL     1     112.695 128.894 138.743  0.00  0.00    +0.000 OA
BRANCH  32  34
ATOM     33  O   UNL     1     112.518 129.351 140.085  0.00  0.00    +0.000 OA
ATOM     34  C   UNL     1     112.263 129.322 139.301  0.00  0.00    +0.000 C 
BRANCH  34  35
ATOM     35  C   UNL     1     111.578 129.721 139.075  0.00  0.00    +0.000 C 
BRANCH  35  37
ATOM     36  O   UNL     1     111.568 130.956 139.794  0.00  0.00    +0.000 OA
ATOM     37  C   UNL     1     111.560 130.546 139.078  0.00  0.00    +0.000 C 
BRANCH  37  38
ATOM     38  O   UNL     1     111.534 130.961 138.366  0.00  0.00    +0.000 OA
BRANCH  38  47
ATOM     39  O   UNL     1     110.108 131.052 138.376  0.00  0.00    +0.000 OA
ATOM     40  O   UNL     1     110.227 133.087 136.974  0.00  0.00    +0.000 OA
ATOM     41  O   UNL     1     108.761 132.499 137.452  0.00  0.00    +0.000 OA
ATOM     42  O   UNL     1     111.613 132.318 137.430  0.00  0.00    +0.000 OA
ATOM     43  C   UNL     1     110.188 132.408 137.441  0.00  0.00    +0.000 C 
ATOM     44  C   UNL     1     109.455 132.115 137.681  0.00  0.00    +0.000 C 
ATOM     45  C   UNL     1     110.880 132.024 137.670  0.00  0.00    +0.000 C 
ATOM     46  C   UNL     1     109.415 131.436 138.148  0.00  0.00    +0.000 C 
ATOM     47  C   UNL     1     110.841 131.346 138.137  0.00  0.00    +0.000 C 
BRANCH  46  50
ATOM     48  O   UNL     1     108.310 130.554 137.946  0.00  0.00    +0.000 OA
ATOM     49  O   UNL     1     108.322 131.437 139.068  0.00  0.00    +0.000 OA
ATOM     50  C   UNL     1     108.682 131.143 138.388  0.00  0.00    +0.000 C 
ENDBRANCH  46  50
ENDBRANCH  38  47
ENDBRANCH  37  38
ENDBRANCH  35  37
ENDBRANCH  34  35
ENDBRANCH  32  34
ENDBRANCH  31  32
ENDBRANCH   7  31
TORSDOF 11
ENDMDL
MODEL 4
REMARK VINA RESULT:      -9.4      1.771      4.025
REMARK  Name = 131833827
REMARK  11 active torsions:
REMARK  status: ('A' for Active; 'I' for Inactive)
REMARK    1  A    between atoms: O_3  and  C_25
REMARK    2  A    between atoms: O_3  and  C_32
REMARK    3  A    between atoms: O_7  and  C_27
REMARK    4  A    between atoms: O_7  and  C_34
REMARK    5  A    between atoms: O_8  and  C_31
REMARK    6  A    between atoms: O_8  and  C_36
REMARK    7  A    between atoms: C_23  and  C_27
REMARK    8  A    between atoms: C_30  and  C_33
REMARK    9  A    between atoms: C_34  and  C_35
REMARK   10  A    between atoms: C_35  and  C_36
REMARK   11  A    between atoms: C_37  and  C_41
REMARK                            x       y       z     vdW  Elec       q    Type
REMARK                         _______ _______ _______ _____ _____    ______ ____
ROOT
ATOM      1  O   UNL     1     111.846 126.030 137.055  0.00  0.00    +0.000 OA
ATOM      2  O   UNL     1     111.457 124.264 135.833  0.00  0.00    +0.000 OA
ATOM      3  O   UNL     1     112.888 123.845 136.540  0.00  0.00    +0.000 OA
ATOM      4  O   UNL     1     113.624 124.884 137.590  0.00  0.00    +0.000 OA
ATOM      5  C   UNL     1     111.825 124.783 136.358  0.00  0.00    +0.000 C 
ATOM      6  C   UNL     1     112.541 124.574 136.712  0.00  0.00    +0.000 C 
ATOM      7  C   UNL     1     111.478 125.512 136.530  0.00  0.00    +0.000 C 
ATOM      8  C   UNL     1     112.909 125.093 137.237  0.00  0.00    +0.000 C 
ATOM      9  C   UNL     1     112.561 125.822 137.409  0.00  0.00    +0.000 C 
ENDROOT
BRANCH   9  10
ATOM     10  O   UNL     1     112.929 126.340 137.933  0.00  0.00    +0.000 OA
BRANCH  10  15
ATOM     11  O   UNL     1     112.468 128.439 138.323  0.00  0.00    +0.000 OA
ATOM     12  O   UNL     1     113.412 127.034 136.516  0.00  0.00    +0.000 OA
ATOM     13  O   UNL     1     113.594 128.190 135.673  0.00  0.00    +0.000 OA
ATOM     14  O   UNL     1     112.805 130.817 136.676  0.00  0.00    +0.000 OA
ATOM     15  C   UNL     1     112.856 127.155 137.827  0.00  0.00    +0.000 A 
ATOM     16  C   UNL     1     112.541 127.624 138.429  0.00  0.00    +0.000 A 
ATOM     17  C   UNL     1     113.097 127.502 137.119  0.00  0.00    +0.000 A 
ATOM     18  C   UNL     1     113.025 128.317 137.012  0.00  0.00    +0.000 A 
ATOM     19  C   UNL     1     112.710 128.785 137.614  0.00  0.00    +0.000 A 
ATOM     20  C   UNL     1     113.280 128.666 136.269  0.00  0.00    +0.000 A 
ATOM     21  C   UNL     1     112.629 129.634 137.515  0.00  0.00    +0.000 A 
ATOM     22  C   UNL     1     113.207 129.514 136.152  0.00  0.00    +0.000 A 
ATOM     23  C   UNL     1     112.879 130.002 136.779  0.00  0.00    +0.000 A 
BRANCH  16  25
ATOM     24  O   UNL     1     111.577 126.234 141.263  0.00  0.00    +0.000 OA
ATOM     25  C   UNL     1     112.300 127.277 139.138  0.00  0.00    +0.000 A 
ATOM     26  C   UNL     1     111.496 127.181 139.298  0.00  0.00    +0.000 A 
ATOM     27  C   UNL     1     112.863 127.025 139.685  0.00  0.00    +0.000 A 
ATOM     28  C   UNL     1     111.255 126.834 140.006  0.00  0.00    +0.000 A 
ATOM     29  C   UNL     1     112.621 126.678 140.394  0.00  0.00    +0.000 A 
ATOM     30  C   UNL     1     111.818 126.582 140.555  0.00  0.00    +0.000 A 
ENDBRANCH  16  25
ENDBRANCH  10  15
ENDBRANCH   9  10
BRANCH   7  31
ATOM     31  C   UNL     1     110.762 125.720 136.176  0.00  0.00    +0.000 C 
BRANCH  31  32
ATOM     32  O   UNL     1     110.296 126.314 136.506  0.00  0.00    +0.000 OA
BRANCH  32  34
ATOM     33  O   UNL     1     109.072 126.133 135.790  0.00  0.00    +0.000 OA
ATOM     34  C   UNL     1     109.665 126.630 136.078  0.00  0.00    +0.000 C 
BRANCH  34  35
ATOM     35  C   UNL     1     109.626 127.442 135.939  0.00  0.00    +0.000 C 
BRANCH  35  37
ATOM     36  O   UNL     1     108.260 127.829 136.100  0.00  0.00    +0.000 OA
ATOM     37  C   UNL     1     109.053 127.899 136.317  0.00  0.00    +0.000 C 
BRANCH  37  38
ATOM     38  O   UNL     1     109.271 128.426 136.913  0.00  0.00    +0.000 OA
BRANCH  38  47
ATOM     39  O   UNL     1     109.270 129.539 136.017  0.00  0.00    +0.000 OA
ATOM     40  O   UNL     1     108.971 131.080 137.930  0.00  0.00    +0.000 OA
ATOM     41  O   UNL     1     109.069 131.679 136.395  0.00  0.00    +0.000 OA
ATOM     42  O   UNL     1     109.072 129.453 138.188  0.00  0.00    +0.000 OA
ATOM     43  C   UNL     1     109.070 130.565 137.292  0.00  0.00    +0.000 C 
ATOM     44  C   UNL     1     109.119 130.865 136.525  0.00  0.00    +0.000 C 
ATOM     45  C   UNL     1     109.121 129.753 137.421  0.00  0.00    +0.000 C 
ATOM     46  C   UNL     1     109.219 130.352 135.887  0.00  0.00    +0.000 C 
ATOM     47  C   UNL     1     109.221 129.239 136.784  0.00  0.00    +0.000 C 
BRANCH  46  50
ATOM     48  O   UNL     1     108.582 130.863 134.715  0.00  0.00    +0.000 OA
ATOM     49  O   UNL     1     110.004 130.738 134.758  0.00  0.00    +0.000 OA
ATOM     50  C   UNL     1     109.268 130.651 135.120  0.00  0.00    +0.000 C 
ENDBRANCH  46  50
ENDBRANCH  38  47
ENDBRANCH  37  38
ENDBRANCH  35  37
ENDBRANCH  34  35
ENDBRANCH  32  34
ENDBRANCH  31  32
ENDBRANCH   7  31
TORSDOF 11
ENDMDL
MODEL 5
REMARK VINA RESULT:      -9.3      1.580      3.583
REMARK  Name = 131833827
REMARK  11 active torsions:
REMARK  status: ('A' for Active; 'I' for Inactive)
REMARK    1  A    between atoms: O_3  and  C_25
REMARK    2  A    between atoms: O_3  and  C_32
REMARK    3  A    between atoms: O_7  and  C_27
REMARK    4  A    between atoms: O_7  and  C_34
REMARK    5  A    between atoms: O_8  and  C_31
REMARK    6  A    between atoms: O_8  and  C_36
REMARK    7  A    between atoms: C_23  and  C_27
REMARK    8  A    between atoms: C_30  and  C_33
REMARK    9  A    between atoms: C_34  and  C_35
REMARK   10  A    between atoms: C_35  and  C_36
REMARK   11  A    between atoms: C_37  and  C_41
REMARK                            x       y       z     vdW  Elec       q    Type
REMARK                         _______ _______ _______ _____ _____    ______ ____
ROOT
ATOM      1  O   UNL     1     113.217 128.530 137.327  0.00  0.00    +0.000 OA
ATOM      2  O   UNL     1     114.109 130.517 137.180  0.00  0.00    +0.000 OA
ATOM      3  O   UNL     1     114.361 129.948 135.651  0.00  0.00    +0.000 OA
ATOM      4  O   UNL     1     113.851 128.433 135.241  0.00  0.00    +0.000 OA
ATOM      5  C   UNL     1     113.854 129.759 136.974  0.00  0.00    +0.000 C 
ATOM      6  C   UNL     1     113.980 129.475 136.210  0.00  0.00    +0.000 C 
ATOM      7  C   UNL     1     113.472 129.287 137.533  0.00  0.00    +0.000 C 
ATOM      8  C   UNL     1     113.724 128.717 136.005  0.00  0.00    +0.000 C 
ATOM      9  C   UNL     1     113.343 128.245 136.563  0.00  0.00    +0.000 C 
ENDROOT
BRANCH   9  10
ATOM     10  O   UNL     1     113.088 127.489 136.358  0.00  0.00    +0.000 OA
BRANCH  10  15
ATOM     11  O   UNL     1     111.690 126.173 137.398  0.00  0.00    +0.000 OA
ATOM     12  O   UNL     1     111.678 128.325 136.174  0.00  0.00    +0.000 OA
ATOM     13  O   UNL     1     110.258 128.471 136.387  0.00  0.00    +0.000 OA
ATOM     14  O   UNL     1     108.824 126.400 137.865  0.00  0.00    +0.000 OA
ATOM     15  C   UNL     1     112.387 127.190 136.674  0.00  0.00    +0.000 A 
ATOM     16  C   UNL     1     112.391 126.472 137.082  0.00  0.00    +0.000 A 
ATOM     17  C   UNL     1     111.682 127.608 136.583  0.00  0.00    +0.000 A 
ATOM     18  C   UNL     1     110.981 127.309 136.899  0.00  0.00    +0.000 A 
ATOM     19  C   UNL     1     110.985 126.592 137.306  0.00  0.00    +0.000 A 
ATOM     20  C   UNL     1     110.253 127.754 136.796  0.00  0.00    +0.000 A 
ATOM     21  C   UNL     1     110.261 126.271 137.640  0.00  0.00    +0.000 A 
ATOM     22  C   UNL     1     109.519 127.449 137.123  0.00  0.00    +0.000 A 
ATOM     23  C   UNL     1     109.523 126.702 137.548  0.00  0.00    +0.000 A 
BRANCH  16  25
ATOM     24  O   UNL     1     115.213 124.800 137.445  0.00  0.00    +0.000 OA
ATOM     25  C   UNL     1     113.096 126.054 137.174  0.00  0.00    +0.000 A 
ATOM     26  C   UNL     1     113.476 126.040 137.906  0.00  0.00    +0.000 A 
ATOM     27  C   UNL     1     113.421 125.651 136.532  0.00  0.00    +0.000 A 
ATOM     28  C   UNL     1     114.181 125.622 137.996  0.00  0.00    +0.000 A 
ATOM     29  C   UNL     1     114.127 125.233 136.623  0.00  0.00    +0.000 A 
ATOM     30  C   UNL     1     114.507 125.218 137.355  0.00  0.00    +0.000 A 
ENDBRANCH  16  25
ENDBRANCH  10  15
ENDBRANCH   9  10
BRANCH   7  31
ATOM     31  C   UNL     1     113.347 129.572 138.297  0.00  0.00    +0.000 C 
BRANCH  31  32
ATOM     32  O   UNL     1     113.278 129.046 138.928  0.00  0.00    +0.000 OA
BRANCH  32  34
ATOM     33  O   UNL     1     113.497 129.812 140.114  0.00  0.00    +0.000 OA
ATOM     34  C   UNL     1     113.017 129.315 139.663  0.00  0.00    +0.000 C 
BRANCH  34  35
ATOM     35  C   UNL     1     112.278 129.087 139.947  0.00  0.00    +0.000 C 
BRANCH  35  37
ATOM     36  O   UNL     1     112.429 128.796 141.338  0.00  0.00    +0.000 OA
ATOM     37  C   UNL     1     112.222 128.556 140.576  0.00  0.00    +0.000 C 
BRANCH  37  38
ATOM     38  O   UNL     1     111.960 127.785 140.444  0.00  0.00    +0.000 OA
BRANCH  38  47
ATOM     39  O   UNL     1     110.604 128.060 140.797  0.00  0.00    +0.000 OA
ATOM     40  O   UNL     1     110.341 125.736 141.604  0.00  0.00    +0.000 OA
ATOM     41  O   UNL     1     109.072 126.786 141.688  0.00  0.00    +0.000 OA
ATOM     42  O   UNL     1     111.785 126.235 140.982  0.00  0.00    +0.000 OA
ATOM     43  C   UNL     1     110.429 126.511 141.335  0.00  0.00    +0.000 C 
ATOM     44  C   UNL     1     109.794 127.036 141.377  0.00  0.00    +0.000 C 
ATOM     45  C   UNL     1     111.151 126.760 141.024  0.00  0.00    +0.000 C 
ATOM     46  C   UNL     1     109.881 127.811 141.108  0.00  0.00    +0.000 C 
ATOM     47  C   UNL     1     111.238 127.535 140.755  0.00  0.00    +0.000 C 
BRANCH  46  50
ATOM     48  O   UNL     1     109.111 128.765 141.841  0.00  0.00    +0.000 OA
ATOM     49  O   UNL     1     108.747 128.432 140.501  0.00  0.00    +0.000 OA
ATOM     50  C   UNL     1     109.246 128.336 141.150  0.00  0.00    +0.000 C 
ENDBRANCH  46  50
ENDBRANCH  38  47
ENDBRANCH  37  38
ENDBRANCH  35  37
ENDBRANCH  34  35
ENDBRANCH  32  34
ENDBRANCH  31  32
ENDBRANCH   7  31
TORSDOF 11
ENDMDL
MODEL 6
REMARK VINA RESULT:      -9.3      1.889      2.812
REMARK  Name = 131833827
REMARK  11 active torsions:
REMARK  status: ('A' for Active; 'I' for Inactive)
REMARK    1  A    between atoms: O_3  and  C_25
REMARK    2  A    between atoms: O_3  and  C_32
REMARK    3  A    between atoms: O_7  and  C_27
REMARK    4  A    between atoms: O_7  and  C_34
REMARK    5  A    between atoms: O_8  and  C_31
REMARK    6  A    between atoms: O_8  and  C_36
REMARK    7  A    between atoms: C_23  and  C_27
REMARK    8  A    between atoms: C_30  and  C_33
REMARK    9  A    between atoms: C_34  and  C_35
REMARK   10  A    between atoms: C_35  and  C_36
REMARK   11  A    between atoms: C_37  and  C_41
REMARK                            x       y       z     vdW  Elec       q    Type
REMARK                         _______ _______ _______ _____ _____    ______ ____
ROOT
ATOM      1  O   UNL     1     111.014 127.267 136.088  0.00  0.00    +0.000 OA
ATOM      2  O   UNL     1     109.581 125.944 135.108  0.00  0.00    +0.000 OA
ATOM      3  O   UNL     1     110.843 124.910 135.353  0.00  0.00    +0.000 OA
ATOM      4  O   UNL     1     112.219 125.448 136.088  0.00  0.00    +0.000 OA
ATOM      5  C   UNL     1     110.269 126.213 135.476  0.00  0.00    +0.000 C 
ATOM      6  C   UNL     1     110.900 125.696 135.598  0.00  0.00    +0.000 C 
ATOM      7  C   UNL     1     110.326 126.999 135.721  0.00  0.00    +0.000 C 
ATOM      8  C   UNL     1     111.589 125.965 135.966  0.00  0.00    +0.000 C 
ATOM      9  C   UNL     1     111.645 126.751 136.211  0.00  0.00    +0.000 C 
ENDROOT
BRANCH   9  10
ATOM     10  O   UNL     1     112.333 127.019 136.578  0.00  0.00    +0.000 OA
BRANCH  10  15
ATOM     11  O   UNL     1     112.599 128.711 137.932  0.00  0.00    +0.000 OA
ATOM     12  O   UNL     1     111.499 126.494 137.901  0.00  0.00    +0.000 OA
ATOM     13  O   UNL     1     111.014 126.684 139.247  0.00  0.00    +0.000 OA
ATOM     14  O   UNL     1     111.656 129.164 140.650  0.00  0.00    +0.000 OA
ATOM     15  C   UNL     1     112.283 127.496 137.250  0.00  0.00    +0.000 A 
ATOM     16  C   UNL     1     112.650 128.235 137.260  0.00  0.00    +0.000 A 
ATOM     17  C   UNL     1     111.866 127.233 137.912  0.00  0.00    +0.000 A 
ATOM     18  C   UNL     1     111.815 127.710 138.583  0.00  0.00    +0.000 A 
ATOM     19  C   UNL     1     112.182 128.448 138.593  0.00  0.00    +0.000 A 
ATOM     20  C   UNL     1     111.378 127.425 139.266  0.00  0.00    +0.000 A 
ATOM     21  C   UNL     1     112.137 128.953 139.287  0.00  0.00    +0.000 A 
ATOM     22  C   UNL     1     111.322 127.916 139.969  0.00  0.00    +0.000 A 
ATOM     23  C   UNL     1     111.704 128.685 139.980  0.00  0.00    +0.000 A 
BRANCH  16  25
ATOM     24  O   UNL     1     114.316 129.285 134.612  0.00  0.00    +0.000 OA
ATOM     25  C   UNL     1     113.067 128.497 136.598  0.00  0.00    +0.000 A 
ATOM     26  C   UNL     1     113.782 128.141 136.393  0.00  0.00    +0.000 A 
ATOM     27  C   UNL     1     112.767 129.116 136.142  0.00  0.00    +0.000 A 
ATOM     28  C   UNL     1     114.198 128.403 135.731  0.00  0.00    +0.000 A 
ATOM     29  C   UNL     1     113.184 129.378 135.480  0.00  0.00    +0.000 A 
ATOM     30  C   UNL     1     113.900 129.022 135.274  0.00  0.00    +0.000 A 
ENDBRANCH  16  25
ENDBRANCH  10  15
ENDBRANCH   9  10
BRANCH   7  31
ATOM     31  C   UNL     1     109.694 127.516 135.598  0.00  0.00    +0.000 C 
BRANCH  31  32
ATOM     32  O   UNL     1     109.418 127.984 136.218  0.00  0.00    +0.000 OA
BRANCH  32  34
ATOM     33  O   UNL     1     108.184 128.518 135.734  0.00  0.00    +0.000 OA
ATOM     34  C   UNL     1     108.933 128.633 136.061  0.00  0.00    +0.000 C 
BRANCH  34  35
ATOM     35  C   UNL     1     109.196 129.396 136.229  0.00  0.00    +0.000 C 
BRANCH  35  37
ATOM     36  O   UNL     1     108.169 130.339 136.544  0.00  0.00    +0.000 OA
ATOM     37  C   UNL     1     108.795 129.858 136.784  0.00  0.00    +0.000 C 
BRANCH  37  38
ATOM     38  O   UNL     1     109.020 129.839 137.577  0.00  0.00    +0.000 OA
BRANCH  38  47
ATOM     39  O   UNL     1     109.854 130.999 137.552  0.00  0.00    +0.000 OA
ATOM     40  O   UNL     1     109.066 131.615 139.815  0.00  0.00    +0.000 OA
ATOM     41  O   UNL     1     110.163 132.570 139.035  0.00  0.00    +0.000 OA
ATOM     42  O   UNL     1     108.495 130.250 139.086  0.00  0.00    +0.000 OA
ATOM     43  C   UNL     1     109.328 131.409 139.060  0.00  0.00    +0.000 C 
ATOM     44  C   UNL     1     109.877 131.886 138.670  0.00  0.00    +0.000 C 
ATOM     45  C   UNL     1     109.043 130.727 138.696  0.00  0.00    +0.000 C 
ATOM     46  C   UNL     1     110.140 131.682 137.916  0.00  0.00    +0.000 C 
ATOM     47  C   UNL     1     109.305 130.522 137.942  0.00  0.00    +0.000 C 
BRANCH  46  50
ATOM     48  O   UNL     1     111.487 131.958 137.532  0.00  0.00    +0.000 OA
ATOM     49  O   UNL     1     110.436 132.837 137.130  0.00  0.00    +0.000 OA
ATOM     50  C   UNL     1     110.688 132.159 137.525  0.00  0.00    +0.000 C 
ENDBRANCH  46  50
ENDBRANCH  38  47
ENDBRANCH  37  38
ENDBRANCH  35  37
ENDBRANCH  34  35
ENDBRANCH  32  34
ENDBRANCH  31  32
ENDBRANCH   7  31
TORSDOF 11
ENDMDL
MODEL 7
REMARK VINA RESULT:      -9.2      1.469      5.745
REMARK  Name = 131833827
REMARK  11 active torsions:
REMARK  status: ('A' for Active; 'I' for Inactive)
REMARK    1  A    between atoms: O_3  and  C_25
REMARK    2  A    between atoms: O_3  and  C_32
REMARK    3  A    between atoms: O_7  and  C_27
REMARK    4  A    between atoms: O_7  and  C_34
REMARK    5  A    between atoms: O_8  and  C_31
REMARK    6  A    between atoms: O_8  and  C_36
REMARK    7  A    between atoms: C_23  and  C_27
REMARK    8  A    between atoms: C_30  and  C_33
REMARK    9  A    between atoms: C_34  and  C_35
REMARK   10  A    between atoms: C_35  and  C_36
REMARK   11  A    between atoms: C_37  and  C_41
REMARK                            x       y       z     vdW  Elec       q    Type
REMARK                         _______ _______ _______ _____ _____    ______ ____
ROOT
ATOM      1  O   UNL     1     111.216 129.832 138.340  0.00  0.00    +0.000 OA
ATOM      2  O   UNL     1     111.015 130.496 140.409  0.00  0.00    +0.000 OA
ATOM      3  O   UNL     1     110.424 131.808 139.602  0.00  0.00    +0.000 OA
ATOM      4  O   UNL     1     110.360 131.802 137.953  0.00  0.00    +0.000 OA
ATOM      5  C   UNL     1     110.983 130.493 139.584  0.00  0.00    +0.000 C 
ATOM      6  C   UNL     1     110.688 131.149 139.181  0.00  0.00    +0.000 C 
ATOM      7  C   UNL     1     111.247 129.834 139.163  0.00  0.00    +0.000 C 
ATOM      8  C   UNL     1     110.656 131.146 138.356  0.00  0.00    +0.000 C 
ATOM      9  C   UNL     1     110.920 130.487 137.935  0.00  0.00    +0.000 C 
ENDROOT
BRANCH   9  10
ATOM     10  O   UNL     1     110.888 130.485 137.112  0.00  0.00    +0.000 OA
BRANCH  10  15
ATOM     11  O   UNL     1     111.819 129.087 135.716  0.00  0.00    +0.000 OA
ATOM     12  O   UNL     1     112.482 130.870 137.301  0.00  0.00    +0.000 OA
ATOM     13  O   UNL     1     113.875 130.680 136.977  0.00  0.00    +0.000 OA
ATOM     14  O   UNL     1     114.611 128.647 135.012  0.00  0.00    +0.000 OA
ATOM     15  C   UNL     1     111.464 130.083 136.678  0.00  0.00    +0.000 A 
ATOM     16  C   UNL     1     111.243 129.489 136.150  0.00  0.00    +0.000 A 
ATOM     17  C   UNL     1     112.261 130.276 136.772  0.00  0.00    +0.000 A 
ATOM     18  C   UNL     1     112.836 129.874 136.339  0.00  0.00    +0.000 A 
ATOM     19  C   UNL     1     112.616 129.281 135.811  0.00  0.00    +0.000 A 
ATOM     20  C   UNL     1     113.663 130.084 136.446  0.00  0.00    +0.000 A 
ATOM     21  C   UNL     1     113.206 128.855 135.354  0.00  0.00    +0.000 A 
ATOM     22  C   UNL     1     114.267 129.670 135.998  0.00  0.00    +0.000 A 
ATOM     23  C   UNL     1     114.038 129.051 135.448  0.00  0.00    +0.000 A 
BRANCH  16  25
ATOM     24  O   UNL     1     108.056 128.718 135.775  0.00  0.00    +0.000 OA
ATOM     25  C   UNL     1     110.447 129.297 136.056  0.00  0.00    +0.000 A 
ATOM     26  C   UNL     1     109.944 129.808 135.647  0.00  0.00    +0.000 A 
ATOM     27  C   UNL     1     110.153 128.593 136.371  0.00  0.00    +0.000 A 
ATOM     28  C   UNL     1     109.148 129.615 135.553  0.00  0.00    +0.000 A 
ATOM     29  C   UNL     1     109.356 128.400 136.277  0.00  0.00    +0.000 A 
ATOM     30  C   UNL     1     108.853 128.911 135.868  0.00  0.00    +0.000 A 
ENDBRANCH  16  25
ENDBRANCH  10  15
ENDBRANCH   9  10
BRANCH   7  31
ATOM     31  C   UNL     1     111.543 129.178 139.568  0.00  0.00    +0.000 C 
BRANCH  31  32
ATOM     32  O   UNL     1     111.440 128.421 139.258  0.00  0.00    +0.000 OA
BRANCH  32  34
ATOM     33  O   UNL     1     111.847 127.615 140.365  0.00  0.00    +0.000 OA
ATOM     34  C   UNL     1     111.876 127.789 139.559  0.00  0.00    +0.000 C 
BRANCH  34  35
ATOM     35  C   UNL     1     112.340 127.331 139.054  0.00  0.00    +0.000 C 
BRANCH  35  37
ATOM     36  O   UNL     1     112.162 125.971 139.453  0.00  0.00    +0.000 OA
ATOM     37  C   UNL     1     112.116 126.557 138.875  0.00  0.00    +0.000 C 
BRANCH  37  38
ATOM     38  O   UNL     1     111.847 126.371 138.118  0.00  0.00    +0.000 OA
BRANCH  38  47
ATOM     39  O   UNL     1     113.074 125.832 137.621  0.00  0.00    +0.000 OA
ATOM     40  O   UNL     1     111.814 124.105 136.377  0.00  0.00    +0.000 OA
ATOM     41  O   UNL     1     113.461 124.143 136.295  0.00  0.00    +0.000 OA
ATOM     42  O   UNL     1     111.007 125.219 137.288  0.00  0.00    +0.000 OA
ATOM     43  C   UNL     1     112.233 124.681 136.792  0.00  0.00    +0.000 C 
ATOM     44  C   UNL     1     113.057 124.700 136.751  0.00  0.00    +0.000 C 
ATOM     45  C   UNL     1     111.830 125.238 137.247  0.00  0.00    +0.000 C 
ATOM     46  C   UNL     1     113.478 125.276 137.166  0.00  0.00    +0.000 C 
ATOM     47  C   UNL     1     112.250 125.813 137.662  0.00  0.00    +0.000 C 
BRANCH  46  50
ATOM     48  O   UNL     1     114.751 124.844 137.650  0.00  0.00    +0.000 OA
ATOM     49  O   UNL     1     114.676 125.764 136.560  0.00  0.00    +0.000 OA
ATOM     50  C   UNL     1     114.302 125.295 137.125  0.00  0.00    +0.000 C 
ENDBRANCH  46  50
ENDBRANCH  38  47
ENDBRANCH  37  38
ENDBRANCH  35  37
ENDBRANCH  34  35
ENDBRANCH  32  34
ENDBRANCH  31  32
ENDBRANCH   7  31
TORSDOF 11
ENDMDL
MODEL 8
REMARK VINA RESULT:      -9.2      1.792      3.744
REMARK  Name = 131833827
REMARK  11 active torsions:
REMARK  status: ('A' for Active; 'I' for Inactive)
REMARK    1  A    between atoms: O_3  and  C_25
REMARK    2  A    between atoms: O_3  and  C_32
REMARK    3  A    between atoms: O_7  and  C_27
REMARK    4  A    between atoms: O_7  and  C_34
REMARK    5  A    between atoms: O_8  and  C_31
REMARK    6  A    between atoms: O_8  and  C_36
REMARK    7  A    between atoms: C_23  and  C_27
REMARK    8  A    between atoms: C_30  and  C_33
REMARK    9  A    between atoms: C_34  and  C_35
REMARK   10  A    between atoms: C_35  and  C_36
REMARK   11  A    between atoms: C_37  and  C_41
REMARK                            x       y       z     vdW  Elec       q    Type
REMARK                         _______ _______ _______ _____ _____    ______ ____
ROOT
ATOM      1  O   UNL     1     113.567 129.176 136.603  0.00  0.00    +0.000 OA
ATOM      2  O   UNL     1     114.894 130.884 136.310  0.00  0.00    +0.000 OA
ATOM      3  O   UNL     1     115.288 129.955 135.004  0.00  0.00    +0.000 OA
ATOM      4  O   UNL     1     114.535 128.507 134.764  0.00  0.00    +0.000 OA
ATOM      5  C   UNL     1     114.517 130.159 136.190  0.00  0.00    +0.000 C 
ATOM      6  C   UNL     1     114.714 129.695 135.537  0.00  0.00    +0.000 C 
ATOM      7  C   UNL     1     113.943 129.899 136.723  0.00  0.00    +0.000 C 
ATOM      8  C   UNL     1     114.337 128.971 135.417  0.00  0.00    +0.000 C 
ATOM      9  C   UNL     1     113.763 128.711 135.950  0.00  0.00    +0.000 C 
ENDROOT
BRANCH   9  10
ATOM     10  O   UNL     1     113.387 127.987 135.830  0.00  0.00    +0.000 OA
BRANCH  10  15
ATOM     11  O   UNL     1     111.550 127.227 136.732  0.00  0.00    +0.000 OA
ATOM     12  O   UNL     1     112.268 128.993 135.153  0.00  0.00    +0.000 OA
ATOM     13  O   UNL     1     110.905 129.435 134.982  0.00  0.00    +0.000 OA
ATOM     14  O   UNL     1     108.776 128.064 136.437  0.00  0.00    +0.000 OA
ATOM     15  C   UNL     1     112.588 127.902 136.017  0.00  0.00    +0.000 A 
ATOM     16  C   UNL     1     112.349 127.313 136.544  0.00  0.00    +0.000 A 
ATOM     17  C   UNL     1     112.028 128.404 135.679  0.00  0.00    +0.000 A 
ATOM     18  C   UNL     1     111.230 128.319 135.867  0.00  0.00    +0.000 A 
ATOM     19  C   UNL     1     110.991 127.731 136.393  0.00  0.00    +0.000 A 
ATOM     20  C   UNL     1     110.657 128.849 135.508  0.00  0.00    +0.000 A 
ATOM     21  C   UNL     1     110.162 127.632 136.596  0.00  0.00    +0.000 A 
ATOM     22  C   UNL     1     109.823 128.766 135.699  0.00  0.00    +0.000 A 
ATOM     23  C   UNL     1     109.574 128.153 136.247  0.00  0.00    +0.000 A 
BRANCH  16  25
ATOM     24  O   UNL     1     114.588 125.303 137.900  0.00  0.00    +0.000 OA
ATOM     25  C   UNL     1     112.908 126.810 136.882  0.00  0.00    +0.000 A 
ATOM     26  C   UNL     1     113.271 126.228 136.424  0.00  0.00    +0.000 A 
ATOM     27  C   UNL     1     113.106 126.891 137.679  0.00  0.00    +0.000 A 
ATOM     28  C   UNL     1     113.830 125.726 136.763  0.00  0.00    +0.000 A 
ATOM     29  C   UNL     1     113.666 126.388 138.018  0.00  0.00    +0.000 A 
ATOM     30  C   UNL     1     114.028 125.806 137.560  0.00  0.00    +0.000 A 
ENDBRANCH  16  25
ENDBRANCH  10  15
ENDBRANCH   9  10
BRANCH   7  31
ATOM     31  C   UNL     1     113.746 130.364 137.376  0.00  0.00    +0.000 C 
BRANCH  31  32
ATOM     32  O   UNL     1     113.452 130.011 138.060  0.00  0.00    +0.000 OA
BRANCH  32  34
ATOM     33  O   UNL     1     113.612 130.901 139.167  0.00  0.00    +0.000 OA
ATOM     34  C   UNL     1     113.122 130.477 138.656  0.00  0.00    +0.000 C 
BRANCH  34  35
ATOM     35  C   UNL     1     112.303 130.519 138.741  0.00  0.00    +0.000 C 
BRANCH  35  37
ATOM     36  O   UNL     1     112.027 130.583 140.141  0.00  0.00    +0.000 OA
ATOM     37  C   UNL     1     111.941 130.206 139.413  0.00  0.00    +0.000 C 
BRANCH  37  38
ATOM     38  O   UNL     1     111.493 129.516 139.357  0.00  0.00    +0.000 OA
BRANCH  38  47
ATOM     39  O   UNL     1     110.237 130.185 139.225  0.00  0.00    +0.000 OA
ATOM     40  O   UNL     1     109.119 128.323 140.411  0.00  0.00    +0.000 OA
ATOM     41  O   UNL     1     108.237 129.614 139.884  0.00  0.00    +0.000 OA
ATOM     42  O   UNL     1     110.747 128.274 140.148  0.00  0.00    +0.000 OA
ATOM     43  C   UNL     1     109.493 128.944 140.016  0.00  0.00    +0.000 C 
ATOM     44  C   UNL     1     109.051 129.589 139.752  0.00  0.00    +0.000 C 
ATOM     45  C   UNL     1     110.306 128.919 139.884  0.00  0.00    +0.000 C 
ATOM     46  C   UNL     1     109.423 130.210 139.356  0.00  0.00    +0.000 C 
ATOM     47  C   UNL     1     110.679 129.540 139.489  0.00  0.00    +0.000 C 
BRANCH  46  50
ATOM     48  O   UNL     1     108.640 130.841 138.343  0.00  0.00    +0.000 OA
ATOM     49  O   UNL     1     108.883 131.513 139.579  0.00  0.00    +0.000 OA
ATOM     50  C   UNL     1     108.982 130.855 139.093  0.00  0.00    +0.000 C 
ENDBRANCH  46  50
ENDBRANCH  38  47
ENDBRANCH  37  38
ENDBRANCH  35  37
ENDBRANCH  34  35
ENDBRANCH  32  34
ENDBRANCH  31  32
ENDBRANCH   7  31
TORSDOF 11
ENDMDL
MODEL 9
REMARK VINA RESULT:      -9.2      1.914      4.247
REMARK  Name = 131833827
REMARK  11 active torsions:
REMARK  status: ('A' for Active; 'I' for Inactive)
REMARK    1  A    between atoms: O_3  and  C_25
REMARK    2  A    between atoms: O_3  and  C_32
REMARK    3  A    between atoms: O_7  and  C_27
REMARK    4  A    between atoms: O_7  and  C_34
REMARK    5  A    between atoms: O_8  and  C_31
REMARK    6  A    between atoms: O_8  and  C_36
REMARK    7  A    between atoms: C_23  and  C_27
REMARK    8  A    between atoms: C_30  and  C_33
REMARK    9  A    between atoms: C_34  and  C_35
REMARK   10  A    between atoms: C_35  and  C_36
REMARK   11  A    between atoms: C_37  and  C_41
REMARK                            x       y       z     vdW  Elec       q    Type
REMARK                         _______ _______ _______ _____ _____    ______ ____
ROOT
ATOM      1  O   UNL     1     112.047 126.927 138.897  0.00  0.00    +0.000 OA
ATOM      2  O   UNL     1     111.953 127.283 141.049  0.00  0.00    +0.000 OA
ATOM      3  O   UNL     1     113.517 126.785 140.883  0.00  0.00    +0.000 OA
ATOM      4  O   UNL     1     114.102 126.382 139.394  0.00  0.00    +0.000 OA
ATOM      5  C   UNL     1     112.245 127.081 140.303  0.00  0.00    +0.000 C 
ATOM      6  C   UNL     1     113.027 126.832 140.221  0.00  0.00    +0.000 C 
ATOM      7  C   UNL     1     111.755 127.129 139.641  0.00  0.00    +0.000 C 
ATOM      8  C   UNL     1     113.320 126.631 139.476  0.00  0.00    +0.000 C 
ATOM      9  C   UNL     1     112.830 126.678 138.814  0.00  0.00    +0.000 C 
ENDROOT
BRANCH   9  10
ATOM     10  O   UNL     1     113.122 126.477 138.070  0.00  0.00    +0.000 OA
BRANCH  10  15
ATOM     11  O   UNL     1     112.233 126.906 136.122  0.00  0.00    +0.000 OA
ATOM     12  O   UNL     1     113.386 128.102 137.957  0.00  0.00    +0.000 OA
ATOM     13  O   UNL     1     113.278 129.353 137.247  0.00  0.00    +0.000 OA
ATOM     14  O   UNL     1     111.979 129.395 134.632  0.00  0.00    +0.000 OA
ATOM     15  C   UNL     1     112.870 126.891 137.402  0.00  0.00    +0.000 A 
ATOM     16  C   UNL     1     112.485 126.492 136.790  0.00  0.00    +0.000 A 
ATOM     17  C   UNL     1     113.002 127.703 137.345  0.00  0.00    +0.000 A 
ATOM     18  C   UNL     1     112.749 128.117 136.677  0.00  0.00    +0.000 A 
ATOM     19  C   UNL     1     112.365 127.718 136.066  0.00  0.00    +0.000 A 
ATOM     20  C   UNL     1     112.893 128.963 136.631  0.00  0.00    +0.000 A 
ATOM     21  C   UNL     1     112.098 128.138 135.366  0.00  0.00    +0.000 A 
ATOM     22  C   UNL     1     112.633 129.399 135.938  0.00  0.00    +0.000 A 
ATOM     23  C   UNL     1     112.233 128.985 135.301  0.00  0.00    +0.000 A 
BRANCH  16  25
ATOM     24  O   UNL     1     111.955 123.243 137.018  0.00  0.00    +0.000 OA
ATOM     25  C   UNL     1     112.353 125.680 136.847  0.00  0.00    +0.000 A 
ATOM     26  C   UNL     1     112.980 125.152 136.752  0.00  0.00    +0.000 A 
ATOM     27  C   UNL     1     111.594 125.396 136.998  0.00  0.00    +0.000 A 
ATOM     28  C   UNL     1     112.848 124.340 136.809  0.00  0.00    +0.000 A 
ATOM     29  C   UNL     1     111.461 124.583 137.055  0.00  0.00    +0.000 A 
ATOM     30  C   UNL     1     112.088 124.055 136.960  0.00  0.00    +0.000 A 
ENDBRANCH  16  25
ENDBRANCH  10  15
ENDBRANCH   9  10
BRANCH   7  31
ATOM     31  C   UNL     1     110.973 127.378 139.724  0.00  0.00    +0.000 C 
BRANCH  31  32
ATOM     32  O   UNL     1     110.737 128.106 139.419  0.00  0.00    +0.000 OA
BRANCH  32  34
ATOM     33  O   UNL     1     109.369 128.015 139.822  0.00  0.00    +0.000 OA
ATOM     34  C   UNL     1     109.938 128.254 139.275  0.00  0.00    +0.000 C 
BRANCH  34  35
ATOM     35  C   UNL     1     109.708 128.642 138.585  0.00  0.00    +0.000 C 
BRANCH  35  37
ATOM     36  O   UNL     1     108.798 129.669 138.983  0.00  0.00    +0.000 OA
ATOM     37  C   UNL     1     109.496 129.439 138.609  0.00  0.00    +0.000 C 
BRANCH  37  38
ATOM     38  O   UNL     1     109.982 130.006 138.259  0.00  0.00    +0.000 OA
BRANCH  38  47
ATOM     39  O   UNL     1     109.208 130.073 137.060  0.00  0.00    +0.000 OA
ATOM     40  O   UNL     1     109.937 132.413 136.720  0.00  0.00    +0.000 OA
ATOM     41  O   UNL     1     108.920 131.700 135.634  0.00  0.00    +0.000 OA
ATOM     42  O   UNL     1     110.468 131.566 138.033  0.00  0.00    +0.000 OA
ATOM     43  C   UNL     1     109.694 131.633 136.834  0.00  0.00    +0.000 C 
ATOM     44  C   UNL     1     109.186 131.276 136.291  0.00  0.00    +0.000 C 
ATOM     45  C   UNL     1     109.960 131.210 137.490  0.00  0.00    +0.000 C 
ATOM     46  C   UNL     1     108.942 130.496 136.404  0.00  0.00    +0.000 C 
ATOM     47  C   UNL     1     109.717 130.430 137.603  0.00  0.00    +0.000 C 
BRANCH  46  50
ATOM     48  O   UNL     1     107.619 130.252 135.924  0.00  0.00    +0.000 OA
ATOM     49  O   UNL     1     108.740 129.671 135.256  0.00  0.00    +0.000 OA
ATOM     50  C   UNL     1     108.434 130.140 135.861  0.00  0.00    +0.000 C 
ENDBRANCH  46  50
ENDBRANCH  38  47
ENDBRANCH  37  38
ENDBRANCH  35  37
ENDBRANCH  34  35
ENDBRANCH  32  34
ENDBRANCH  31  32
ENDBRANCH   7  31
TORSDOF 11
ENDMDL
MODEL 10
REMARK VINA RESULT:      -9.2      1.474      5.594
REMARK  Name = 131833827
REMARK  11 active torsions:
REMARK  status: ('A' for Active; 'I' for Inactive)
REMARK    1  A    between atoms: O_3  and  C_25
REMARK    2  A    between atoms: O_3  and  C_32
REMARK    3  A    between atoms: O_7  and  C_27
REMARK    4  A    between atoms: O_7  and  C_34
REMARK    5  A    between atoms: O_8  and  C_31
REMARK    6  A    between atoms: O_8  and  C_36
REMARK    7  A    between atoms: C_23  and  C_27
REMARK    8  A    between atoms: C_30  and  C_33
REMARK    9  A    between atoms: C_34  and  C_35
REMARK   10  A    between atoms: C_35  and  C_36
REMARK   11  A    between atoms: C_37  and  C_41
REMARK                            x       y       z     vdW  Elec       q    Type
REMARK                         _______ _______ _______ _____ _____    ______ ____
ROOT
ATOM      1  O   UNL     1     113.315 129.077 139.199  0.00  0.00    +0.000 OA
ATOM      2  O   UNL     1     114.394 128.686 141.056  0.00  0.00    +0.000 OA
ATOM      3  O   UNL     1     114.874 130.232 140.735  0.00  0.00    +0.000 OA
ATOM      4  O   UNL     1     114.315 131.007 139.390  0.00  0.00    +0.000 OA
ATOM      5  C   UNL     1     114.114 129.074 140.383  0.00  0.00    +0.000 C 
ATOM      6  C   UNL     1     114.355 129.847 140.223  0.00  0.00    +0.000 C 
ATOM      7  C   UNL     1     113.594 128.689 139.871  0.00  0.00    +0.000 C 
ATOM      8  C   UNL     1     114.075 130.235 139.550  0.00  0.00    +0.000 C 
ATOM      9  C   UNL     1     113.555 129.849 139.038  0.00  0.00    +0.000 C 
ENDROOT
BRANCH   9  10
ATOM     10  O   UNL     1     113.275 130.237 138.366  0.00  0.00    +0.000 OA
BRANCH  10  15
ATOM     11  O   UNL     1     111.537 129.754 137.136  0.00  0.00    +0.000 OA
ATOM     12  O   UNL     1     112.047 130.610 139.403  0.00  0.00    +0.000 OA
ATOM     13  O   UNL     1     110.641 130.708 139.713  0.00  0.00    +0.000 OA
ATOM     14  O   UNL     1     108.683 129.925 137.691  0.00  0.00    +0.000 OA
ATOM     15  C   UNL     1     112.491 130.138 138.129  0.00  0.00    +0.000 A 
ATOM     16  C   UNL     1     112.321 129.853 137.373  0.00  0.00    +0.000 A 
ATOM     17  C   UNL     1     111.877 130.324 138.647  0.00  0.00    +0.000 A 
ATOM     18  C   UNL     1     111.093 130.225 138.410  0.00  0.00    +0.000 A 
ATOM     19  C   UNL     1     110.923 129.940 137.655  0.00  0.00    +0.000 A 
ATOM     20  C   UNL     1     110.462 130.423 138.959  0.00  0.00    +0.000 A 
ATOM     21  C   UNL     1     110.111 129.833 137.396  0.00  0.00    +0.000 A 
ATOM     22  C   UNL     1     109.643 130.322 138.718  0.00  0.00    +0.000 A 
ATOM     23  C   UNL     1     109.466 130.025 137.932  0.00  0.00    +0.000 A 
BRANCH  16  25
ATOM     24  O   UNL     1     114.781 129.111 135.302  0.00  0.00    +0.000 OA
ATOM     25  C   UNL     1     112.936 129.667 136.855  0.00  0.00    +0.000 A 
ATOM     26  C   UNL     1     113.106 128.878 136.682  0.00  0.00    +0.000 A 
ATOM     27  C   UNL     1     113.381 130.270 136.511  0.00  0.00    +0.000 A 
ATOM     28  C   UNL     1     113.720 128.693 136.165  0.00  0.00    +0.000 A 
ATOM     29  C   UNL     1     113.996 130.084 135.993  0.00  0.00    +0.000 A 
ATOM     30  C   UNL     1     114.166 129.296 135.820  0.00  0.00    +0.000 A 
ENDBRANCH  16  25
ENDBRANCH  10  15
ENDBRANCH   9  10
BRANCH   7  31
ATOM     31  C   UNL     1     113.354 127.916 140.032  0.00  0.00    +0.000 C 
BRANCH  31  32
ATOM     32  O   UNL     1     112.662 127.620 139.697  0.00  0.00    +0.000 OA
BRANCH  32  34
ATOM     33  O   UNL     1     112.319 126.521 140.543  0.00  0.00    +0.000 OA
ATOM     34  C   UNL     1     112.464 126.824 139.789  0.00  0.00    +0.000 C 
BRANCH  34  35
ATOM     35  C   UNL     1     112.413 126.332 139.130  0.00  0.00    +0.000 C 
BRANCH  35  37
ATOM     36  O   UNL     1     111.209 125.592 139.338  0.00  0.00    +0.000 OA
ATOM     37  C   UNL     1     111.676 126.077 138.861  0.00  0.00    +0.000 C 
BRANCH  37  38
ATOM     38  O   UNL     1     111.406 126.306 138.117  0.00  0.00    +0.000 OA
BRANCH  38  47
ATOM     39  O   UNL     1     111.861 125.087 137.526  0.00  0.00    +0.000 OA
ATOM     40  O   UNL     1     110.367 125.465 135.591  0.00  0.00    +0.000 OA
ATOM     41  O   UNL     1     111.320 124.120 135.646  0.00  0.00    +0.000 OA
ATOM     42  O   UNL     1     110.409 126.558 136.826  0.00  0.00    +0.000 OA
ATOM     43  C   UNL     1     110.865 125.340 136.237  0.00  0.00    +0.000 C 
ATOM     44  C   UNL     1     111.342 124.667 136.264  0.00  0.00    +0.000 C 
ATOM     45  C   UNL     1     110.886 125.886 136.854  0.00  0.00    +0.000 C 
ATOM     46  C   UNL     1     111.840 124.541 136.909  0.00  0.00    +0.000 C 
ATOM     47  C   UNL     1     111.384 125.760 137.499  0.00  0.00    +0.000 C 
BRANCH  46  50
ATOM     48  O   UNL     1     112.015 123.161 137.233  0.00  0.00    +0.000 OA
ATOM     49  O   UNL     1     113.096 123.904 136.668  0.00  0.00    +0.000 OA
ATOM     50  C   UNL     1     112.317 123.868 136.937  0.00  0.00    +0.000 C 
ENDBRANCH  46  50
ENDBRANCH  38  47
ENDBRANCH  37  38
ENDBRANCH  35  37
ENDBRANCH  34  35
ENDBRANCH  32  34
ENDBRANCH  31  32
ENDBRANCH   7  31
TORSDOF 11
ENDMDL
