MODEL 1
REMARK VINA RESULT:      -9.7      0.000      0.000
REMARK  Name = 22524479
REMARK  4 active torsions:
REMARK  status: ('A' for Active; 'I' for Inactive)
REMARK    1  A    between atoms: O_2  and  C_15
REMARK    2  A    between atoms: O_2  and  C_17
REMARK    3  A    between atoms: C_14  and  C_16
REMARK    4  A    between atoms: C_19  and  C_24
REMARK                            x       y       z     vdW  Elec       q    Type
REMARK                         _______ _______ _______ _____ _____    ______ ____
ROOT
ATOM      1  O   UNL     1     104.162 123.400 139.343  0.00  0.00    +0.000 OA
ATOM      2  O   UNL     1     105.926 125.118 139.103  0.00  0.00    +0.000 OA
ATOM      3  O   UNL     1     104.808 123.101 142.167  0.00  0.00    +0.000 OA
ATOM      4  C   UNL     1     105.688 124.423 140.588  0.00  0.00    +0.000 A 
ATOM      5  C   UNL     1     105.207 124.189 139.915  0.00  0.00    +0.000 A 
ATOM      6  C   UNL     1     104.294 123.755 138.611  0.00  0.00    +0.000 C 
ATOM      7  C   UNL     1     104.882 124.328 138.530  0.00  0.00    +0.000 C 
ATOM      8  C   UNL     1     104.618 123.616 139.996  0.00  0.00    +0.000 A 
ATOM      9  C   UNL     1     105.339 124.546 139.183  0.00  0.00    +0.000 C 
ATOM     10  C   UNL     1     105.556 124.056 141.352  0.00  0.00    +0.000 A 
ATOM     11  C   UNL     1     104.471 123.238 140.753  0.00  0.00    +0.000 A 
ATOM     12  C   UNL     1     104.942 123.459 141.436  0.00  0.00    +0.000 A 
ENDROOT
BRANCH   6  14
ATOM     13  O   UNL     1     102.469 122.889 136.001  0.00  0.00    +0.000 OA
ATOM     14  C   UNL     1     103.838 123.539 137.959  0.00  0.00    +0.000 A 
ATOM     15  C   UNL     1     103.020 123.644 137.974  0.00  0.00    +0.000 A 
ATOM     16  C   UNL     1     104.200 123.216 137.291  0.00  0.00    +0.000 A 
ATOM     17  C   UNL     1     102.564 123.428 137.321  0.00  0.00    +0.000 A 
ATOM     18  C   UNL     1     103.744 123.000 136.638  0.00  0.00    +0.000 A 
ATOM     19  C   UNL     1     102.926 123.105 136.653  0.00  0.00    +0.000 A 
ENDBRANCH   6  14
BRANCH   4  20
ATOM     20  O   UNL     1     106.274 124.997 140.498  0.00  0.00    +0.000 OA
BRANCH  20  29
ATOM     21  O   UNL     1     105.738 126.139 141.170  0.00  0.00    +0.000 OA
ATOM     22  O   UNL     1     107.810 126.324 142.511  0.00  0.00    +0.000 OA
ATOM     23  O   UNL     1     106.583 127.404 142.735  0.00  0.00    +0.000 OA
ATOM     24  O   UNL     1     107.655 125.120 141.393  0.00  0.00    +0.000 OA
ATOM     25  C   UNL     1     107.119 126.262 142.064  0.00  0.00    +0.000 C 
ATOM     26  C   UNL     1     106.506 126.802 142.176  0.00  0.00    +0.000 C 
ATOM     27  C   UNL     1     107.042 125.660 141.505  0.00  0.00    +0.000 C 
ATOM     28  C   UNL     1     105.815 126.740 141.729  0.00  0.00    +0.000 C 
ATOM     29  C   UNL     1     106.352 125.598 141.058  0.00  0.00    +0.000 C 
BRANCH  28  31
ATOM     30  O   UNL     1     104.720 127.495 141.206  0.00  0.00    +0.000 OA
ATOM     31  C   UNL     1     105.201 127.281 141.841  0.00  0.00    +0.000 C 
ENDBRANCH  28  31
ENDBRANCH  20  29
ENDBRANCH   4  20
TORSDOF 4
ENDMDL
MODEL 2
REMARK VINA RESULT:      -9.3      5.928      7.876
REMARK  Name = 22524479
REMARK  4 active torsions:
REMARK  status: ('A' for Active; 'I' for Inactive)
REMARK    1  A    between atoms: O_2  and  C_15
REMARK    2  A    between atoms: O_2  and  C_17
REMARK    3  A    between atoms: C_14  and  C_16
REMARK    4  A    between atoms: C_19  and  C_24
REMARK                            x       y       z     vdW  Elec       q    Type
REMARK                         _______ _______ _______ _____ _____    ______ ____
ROOT
ATOM      1  O   UNL     1     113.616 126.416 138.850  0.00  0.00    +0.000 OA
ATOM      2  O   UNL     1     111.318 125.501 138.881  0.00  0.00    +0.000 OA
ATOM      3  O   UNL     1     113.151 127.728 141.407  0.00  0.00    +0.000 OA
ATOM      4  C   UNL     1     111.816 126.446 140.147  0.00  0.00    +0.000 A 
ATOM      5  C   UNL     1     112.348 126.278 139.493  0.00  0.00    +0.000 A 
ATOM      6  C   UNL     1     113.353 125.944 138.227  0.00  0.00    +0.000 C 
ATOM      7  C   UNL     1     112.586 125.639 138.237  0.00  0.00    +0.000 C 
ATOM      8  C   UNL     1     113.114 126.584 139.483  0.00  0.00    +0.000 A 
ATOM      9  C   UNL     1     112.083 125.806 138.871  0.00  0.00    +0.000 C 
ATOM     10  C   UNL     1     112.085 126.937 140.797  0.00  0.00    +0.000 A 
ATOM     11  C   UNL     1     113.402 127.077 140.125  0.00  0.00    +0.000 A 
ATOM     12  C   UNL     1     112.884 127.255 140.786  0.00  0.00    +0.000 A 
ENDROOT
BRANCH   6  14
ATOM     13  O   UNL     1     115.360 125.275 135.695  0.00  0.00    +0.000 OA
ATOM     14  C   UNL     1     113.854 125.777 137.594  0.00  0.00    +0.000 A 
ATOM     15  C   UNL     1     113.849 126.259 136.925  0.00  0.00    +0.000 A 
ATOM     16  C   UNL     1     114.362 125.127 137.631  0.00  0.00    +0.000 A 
ATOM     17  C   UNL     1     114.351 126.092 136.292  0.00  0.00    +0.000 A 
ATOM     18  C   UNL     1     114.863 124.959 136.998  0.00  0.00    +0.000 A 
ATOM     19  C   UNL     1     114.859 125.441 136.328  0.00  0.00    +0.000 A 
ENDBRANCH   6  14
BRANCH   4  20
ATOM     20  O   UNL     1     111.051 126.137 140.149  0.00  0.00    +0.000 OA
BRANCH  20  29
ATOM     21  O   UNL     1     110.262 127.319 140.004  0.00  0.00    +0.000 OA
ATOM     22  O   UNL     1     108.822 126.588 141.879  0.00  0.00    +0.000 OA
ATOM     23  O   UNL     1     108.513 128.014 141.109  0.00  0.00    +0.000 OA
ATOM     24  O   UNL     1     110.091 125.649 141.398  0.00  0.00    +0.000 OA
ATOM     25  C   UNL     1     109.302 126.831 141.254  0.00  0.00    +0.000 C 
ATOM     26  C   UNL     1     109.148 127.544 140.870  0.00  0.00    +0.000 C 
ATOM     27  C   UNL     1     109.936 126.361 141.014  0.00  0.00    +0.000 C 
ATOM     28  C   UNL     1     109.628 127.788 140.245  0.00  0.00    +0.000 C 
ATOM     29  C   UNL     1     110.417 126.605 140.389  0.00  0.00    +0.000 C 
BRANCH  28  31
ATOM     30  O   UNL     1     109.411 128.521 139.037  0.00  0.00    +0.000 OA
ATOM     31  C   UNL     1     109.474 128.502 139.860  0.00  0.00    +0.000 C 
ENDBRANCH  28  31
ENDBRANCH  20  29
ENDBRANCH   4  20
TORSDOF 4
ENDMDL
MODEL 3
REMARK VINA RESULT:      -9.3      7.620      9.242
REMARK  Name = 22524479
REMARK  4 active torsions:
REMARK  status: ('A' for Active; 'I' for Inactive)
REMARK    1  A    between atoms: O_2  and  C_15
REMARK    2  A    between atoms: O_2  and  C_17
REMARK    3  A    between atoms: C_14  and  C_16
REMARK    4  A    between atoms: C_19  and  C_24
REMARK                            x       y       z     vdW  Elec       q    Type
REMARK                         _______ _______ _______ _____ _____    ______ ____
ROOT
ATOM      1  O   UNL     1     113.366 127.691 136.663  0.00  0.00    +0.000 OA
ATOM      2  O   UNL     1     111.055 127.239 135.905  0.00  0.00    +0.000 OA
ATOM      3  O   UNL     1     112.964 130.546 136.255  0.00  0.00    +0.000 OA
ATOM      4  C   UNL     1     111.589 128.806 135.942  0.00  0.00    +0.000 A 
ATOM      5  C   UNL     1     112.107 128.164 136.182  0.00  0.00    +0.000 A 
ATOM      6  C   UNL     1     113.085 126.916 136.638  0.00  0.00    +0.000 C 
ATOM      7  C   UNL     1     112.314 126.765 136.386  0.00  0.00    +0.000 C 
ATOM      8  C   UNL     1     112.878 128.315 136.435  0.00  0.00    +0.000 A 
ATOM      9  C   UNL     1     111.825 127.390 136.157  0.00  0.00    +0.000 C 
ATOM     10  C   UNL     1     111.876 129.615 135.966  0.00  0.00    +0.000 A 
ATOM     11  C   UNL     1     113.184 129.118 136.465  0.00  0.00    +0.000 A 
ATOM     12  C   UNL     1     112.680 129.772 136.229  0.00  0.00    +0.000 A 
ENDROOT
BRANCH   6  14
ATOM     13  O   UNL     1     115.040 124.418 137.551  0.00  0.00    +0.000 OA
ATOM     14  C   UNL     1     113.574 126.292 136.866  0.00  0.00    +0.000 A 
ATOM     15  C   UNL     1     113.571 126.030 137.649  0.00  0.00    +0.000 A 
ATOM     16  C   UNL     1     114.066 125.929 136.312  0.00  0.00    +0.000 A 
ATOM     17  C   UNL     1     114.059 125.405 137.877  0.00  0.00    +0.000 A 
ATOM     18  C   UNL     1     114.554 125.305 136.540  0.00  0.00    +0.000 A 
ATOM     19  C   UNL     1     114.551 125.043 137.322  0.00  0.00    +0.000 A 
ENDBRANCH   6  14
BRANCH   4  20
ATOM     20  O   UNL     1     110.820 128.646 135.691  0.00  0.00    +0.000 OA
BRANCH  20  29
ATOM     21  O   UNL     1     110.066 129.199 136.772  0.00  0.00    +0.000 OA
ATOM     22  O   UNL     1     108.563 130.316 135.154  0.00  0.00    +0.000 OA
ATOM     23  O   UNL     1     108.311 130.496 136.775  0.00  0.00    +0.000 OA
ATOM     24  O   UNL     1     109.818 129.391 134.612  0.00  0.00    +0.000 OA
ATOM     25  C   UNL     1     109.064 129.944 135.694  0.00  0.00    +0.000 C 
ATOM     26  C   UNL     1     108.938 130.034 136.503  0.00  0.00    +0.000 C 
ATOM     27  C   UNL     1     109.691 129.481 135.422  0.00  0.00    +0.000 C 
ATOM     28  C   UNL     1     109.439 129.661 137.043  0.00  0.00    +0.000 C 
ATOM     29  C   UNL     1     110.192 129.109 135.961  0.00  0.00    +0.000 C 
BRANCH  28  31
ATOM     30  O   UNL     1     109.312 129.090 138.346  0.00  0.00    +0.000 OA
ATOM     31  C   UNL     1     109.313 129.751 137.854  0.00  0.00    +0.000 C 
ENDBRANCH  28  31
ENDBRANCH  20  29
ENDBRANCH   4  20
TORSDOF 4
ENDMDL
MODEL 4
REMARK VINA RESULT:      -9.2      4.499      7.126
REMARK  Name = 22524479
REMARK  4 active torsions:
REMARK  status: ('A' for Active; 'I' for Inactive)
REMARK    1  A    between atoms: O_2  and  C_15
REMARK    2  A    between atoms: O_2  and  C_17
REMARK    3  A    between atoms: C_14  and  C_16
REMARK    4  A    between atoms: C_19  and  C_24
REMARK                            x       y       z     vdW  Elec       q    Type
REMARK                         _______ _______ _______ _____ _____    ______ ____
ROOT
ATOM      1  O   UNL     1     106.463 124.877 146.133  0.00  0.00    +0.000 OA
ATOM      2  O   UNL     1     106.490 127.293 145.600  0.00  0.00    +0.000 OA
ATOM      3  O   UNL     1     105.318 124.293 143.521  0.00  0.00    +0.000 OA
ATOM      4  C   UNL     1     105.910 126.234 144.467  0.00  0.00    +0.000 A 
ATOM      5  C   UNL     1     106.196 125.947 145.225  0.00  0.00    +0.000 A 
ATOM      6  C   UNL     1     106.749 125.418 146.687  0.00  0.00    +0.000 C 
ATOM      7  C   UNL     1     106.758 126.223 146.509  0.00  0.00    +0.000 C 
ATOM      8  C   UNL     1     106.187 125.141 145.402  0.00  0.00    +0.000 A 
ATOM      9  C   UNL     1     106.481 126.488 145.777  0.00  0.00    +0.000 C 
ATOM     10  C   UNL     1     105.612 125.676 143.887  0.00  0.00    +0.000 A 
ATOM     11  C   UNL     1     105.892 124.567 144.835  0.00  0.00    +0.000 A 
ATOM     12  C   UNL     1     105.602 124.836 144.072  0.00  0.00    +0.000 A 
ENDROOT
BRANCH   6  14
ATOM     13  O   UNL     1     107.856 124.361 149.611  0.00  0.00    +0.000 OA
ATOM     14  C   UNL     1     107.025 125.154 147.417  0.00  0.00    +0.000 A 
ATOM     15  C   UNL     1     107.835 125.149 147.575  0.00  0.00    +0.000 A 
ATOM     16  C   UNL     1     106.492 124.893 147.991  0.00  0.00    +0.000 A 
ATOM     17  C   UNL     1     108.112 124.885 148.306  0.00  0.00    +0.000 A 
ATOM     18  C   UNL     1     106.768 124.629 148.722  0.00  0.00    +0.000 A 
ATOM     19  C   UNL     1     107.578 124.625 148.880  0.00  0.00    +0.000 A 
ENDBRANCH   6  14
BRANCH   4  20
ATOM     20  O   UNL     1     105.923 127.041 144.298  0.00  0.00    +0.000 OA
BRANCH  20  29
ATOM     21  O   UNL     1     106.901 127.105 143.258  0.00  0.00    +0.000 OA
ATOM     22  O   UNL     1     105.362 128.484 141.895  0.00  0.00    +0.000 OA
ATOM     23  O   UNL     1     106.853 128.088 141.309  0.00  0.00    +0.000 OA
ATOM     24  O   UNL     1     104.897 127.960 143.389  0.00  0.00    +0.000 OA
ATOM     25  C   UNL     1     105.875 128.024 142.349  0.00  0.00    +0.000 C 
ATOM     26  C   UNL     1     106.620 127.827 142.057  0.00  0.00    +0.000 C 
ATOM     27  C   UNL     1     105.642 127.763 143.096  0.00  0.00    +0.000 C 
ATOM     28  C   UNL     1     107.133 127.367 142.511  0.00  0.00    +0.000 C 
ATOM     29  C   UNL     1     106.155 127.303 143.551  0.00  0.00    +0.000 C 
BRANCH  28  31
ATOM     30  O   UNL     1     108.531 127.162 142.723  0.00  0.00    +0.000 OA
ATOM     31  C   UNL     1     107.879 127.169 142.218  0.00  0.00    +0.000 C 
ENDBRANCH  28  31
ENDBRANCH  20  29
ENDBRANCH   4  20
TORSDOF 4
ENDMDL
MODEL 5
REMARK VINA RESULT:      -9.1      8.261     10.050
REMARK  Name = 22524479
REMARK  4 active torsions:
REMARK  status: ('A' for Active; 'I' for Inactive)
REMARK    1  A    between atoms: O_2  and  C_15
REMARK    2  A    between atoms: O_2  and  C_17
REMARK    3  A    between atoms: C_14  and  C_16
REMARK    4  A    between atoms: C_19  and  C_24
REMARK                            x       y       z     vdW  Elec       q    Type
REMARK                         _______ _______ _______ _____ _____    ______ ____
ROOT
ATOM      1  O   UNL     1     112.934 128.874 135.300  0.00  0.00    +0.000 OA
ATOM      2  O   UNL     1     113.316 127.689 137.438  0.00  0.00    +0.000 OA
ATOM      3  O   UNL     1     110.514 127.320 134.847  0.00  0.00    +0.000 OA
ATOM      4  C   UNL     1     111.987 127.290 136.533  0.00  0.00    +0.000 A 
ATOM      5  C   UNL     1     112.532 127.898 136.263  0.00  0.00    +0.000 A 
ATOM      6  C   UNL     1     113.591 129.060 135.763  0.00  0.00    +0.000 C 
ATOM      7  C   UNL     1     113.719 128.665 136.476  0.00  0.00    +0.000 C 
ATOM      8  C   UNL     1     112.405 128.293 135.550  0.00  0.00    +0.000 A 
ATOM      9  C   UNL     1     113.188 128.083 136.726  0.00  0.00    +0.000 C 
ATOM     10  C   UNL     1     111.302 127.092 136.055  0.00  0.00    +0.000 A 
ATOM     11  C   UNL     1     111.725 128.109 135.058  0.00  0.00    +0.000 A 
ATOM     12  C   UNL     1     111.170 127.504 135.312  0.00  0.00    +0.000 A 
ENDROOT
BRANCH   6  14
ATOM     13  O   UNL     1     115.710 131.386 134.766  0.00  0.00    +0.000 OA
ATOM     14  C   UNL     1     114.121 129.642 135.514  0.00  0.00    +0.000 A 
ATOM     15  C   UNL     1     114.164 130.360 135.917  0.00  0.00    +0.000 A 
ATOM     16  C   UNL     1     114.607 129.504 134.861  0.00  0.00    +0.000 A 
ATOM     17  C   UNL     1     114.694 130.941 135.668  0.00  0.00    +0.000 A 
ATOM     18  C   UNL     1     115.136 130.085 134.612  0.00  0.00    +0.000 A 
ATOM     19  C   UNL     1     115.180 130.804 135.015  0.00  0.00    +0.000 A 
ENDBRANCH   6  14
BRANCH   4  20
ATOM     20  O   UNL     1     112.122 126.900 137.247  0.00  0.00    +0.000 OA
BRANCH  20  29
ATOM     21  O   UNL     1     112.459 125.588 136.791  0.00  0.00    +0.000 OA
ATOM     22  O   UNL     1     110.893 124.613 138.441  0.00  0.00    +0.000 OA
ATOM     23  O   UNL     1     111.751 123.626 137.435  0.00  0.00    +0.000 OA
ATOM     24  O   UNL     1     111.078 126.250 138.347  0.00  0.00    +0.000 OA
ATOM     25  C   UNL     1     111.415 124.938 137.891  0.00  0.00    +0.000 C 
ATOM     26  C   UNL     1     111.844 124.445 137.389  0.00  0.00    +0.000 C 
ATOM     27  C   UNL     1     111.507 125.757 137.844  0.00  0.00    +0.000 C 
ATOM     28  C   UNL     1     112.366 124.770 136.839  0.00  0.00    +0.000 C 
ATOM     29  C   UNL     1     112.029 126.082 137.295  0.00  0.00    +0.000 C 
BRANCH  28  31
ATOM     30  O   UNL     1     113.612 124.371 136.264  0.00  0.00    +0.000 OA
ATOM     31  C   UNL     1     112.796 124.276 136.336  0.00  0.00    +0.000 C 
ENDBRANCH  28  31
ENDBRANCH  20  29
ENDBRANCH   4  20
TORSDOF 4
ENDMDL
MODEL 6
REMARK VINA RESULT:      -9.1      8.630      9.733
REMARK  Name = 22524479
REMARK  4 active torsions:
REMARK  status: ('A' for Active; 'I' for Inactive)
REMARK    1  A    between atoms: O_2  and  C_15
REMARK    2  A    between atoms: O_2  and  C_17
REMARK    3  A    between atoms: C_14  and  C_16
REMARK    4  A    between atoms: C_19  and  C_24
REMARK                            x       y       z     vdW  Elec       q    Type
REMARK                         _______ _______ _______ _____ _____    ______ ____
ROOT
ATOM      1  O   UNL     1     113.722 127.348 136.329  0.00  0.00    +0.000 OA
ATOM      2  O   UNL     1     112.278 128.466 137.997  0.00  0.00    +0.000 OA
ATOM      3  O   UNL     1     114.247 129.904 135.039  0.00  0.00    +0.000 OA
ATOM      4  C   UNL     1     112.999 129.386 136.824  0.00  0.00    +0.000 A 
ATOM      5  C   UNL     1     113.126 128.536 136.850  0.00  0.00    +0.000 A 
ATOM      6  C   UNL     1     113.356 126.904 136.920  0.00  0.00    +0.000 C 
ATOM      7  C   UNL     1     112.874 127.277 137.476  0.00  0.00    +0.000 C 
ATOM      8  C   UNL     1     113.608 128.164 136.293  0.00  0.00    +0.000 A 
ATOM      9  C   UNL     1     112.759 128.094 137.441  0.00  0.00    +0.000 C 
ATOM     10  C   UNL     1     113.378 129.853 136.211  0.00  0.00    +0.000 A 
ATOM     11  C   UNL     1     113.995 128.614 135.673  0.00  0.00    +0.000 A 
ATOM     12  C   UNL     1     113.880 129.464 135.631  0.00  0.00    +0.000 A 
ENDROOT
BRANCH   6  14
ATOM     13  O   UNL     1     113.815 123.639 137.060  0.00  0.00    +0.000 OA
ATOM     14  C   UNL     1     113.471 126.088 136.955  0.00  0.00    +0.000 A 
ATOM     15  C   UNL     1     114.124 125.780 137.353  0.00  0.00    +0.000 A 
ATOM     16  C   UNL     1     112.932 125.579 136.591  0.00  0.00    +0.000 A 
ATOM     17  C   UNL     1     114.239 124.964 137.388  0.00  0.00    +0.000 A 
ATOM     18  C   UNL     1     113.046 124.763 136.626  0.00  0.00    +0.000 A 
ATOM     19  C   UNL     1     113.700 124.455 137.025  0.00  0.00    +0.000 A 
ENDBRANCH   6  14
BRANCH   4  20
ATOM     20  O   UNL     1     112.516 129.751 137.384  0.00  0.00    +0.000 OA
BRANCH  20  29
ATOM     21  O   UNL     1     111.389 130.089 136.573  0.00  0.00    +0.000 OA
ATOM     22  O   UNL     1     111.350 132.353 137.571  0.00  0.00    +0.000 OA
ATOM     23  O   UNL     1     110.236 131.937 136.427  0.00  0.00    +0.000 OA
ATOM     24  O   UNL     1     112.490 131.260 138.050  0.00  0.00    +0.000 OA
ATOM     25  C   UNL     1     111.363 131.598 137.238  0.00  0.00    +0.000 C 
ATOM     26  C   UNL     1     110.806 131.390 136.667  0.00  0.00    +0.000 C 
ATOM     27  C   UNL     1     111.933 131.052 137.478  0.00  0.00    +0.000 C 
ATOM     28  C   UNL     1     110.819 130.636 136.334  0.00  0.00    +0.000 C 
ATOM     29  C   UNL     1     111.946 130.297 137.146  0.00  0.00    +0.000 C 
BRANCH  28  31
ATOM     30  O   UNL     1     109.925 129.674 135.771  0.00  0.00    +0.000 OA
ATOM     31  C   UNL     1     110.262 130.427 135.762  0.00  0.00    +0.000 C 
ENDBRANCH  28  31
ENDBRANCH  20  29
ENDBRANCH   4  20
TORSDOF 4
ENDMDL
MODEL 7
REMARK VINA RESULT:      -9.0      6.567      8.025
REMARK  Name = 22524479
REMARK  4 active torsions:
REMARK  status: ('A' for Active; 'I' for Inactive)
REMARK    1  A    between atoms: O_2  and  C_15
REMARK    2  A    between atoms: O_2  and  C_17
REMARK    3  A    between atoms: C_14  and  C_16
REMARK    4  A    between atoms: C_19  and  C_24
REMARK                            x       y       z     vdW  Elec       q    Type
REMARK                         _______ _______ _______ _____ _____    ______ ____
ROOT
ATOM      1  O   UNL     1     111.604 125.843 137.508  0.00  0.00    +0.000 OA
ATOM      2  O   UNL     1     111.360 127.629 135.813  0.00  0.00    +0.000 OA
ATOM      3  O   UNL     1     108.853 126.253 138.367  0.00  0.00    +0.000 OA
ATOM      4  C   UNL     1     110.065 127.266 136.780  0.00  0.00    +0.000 A 
ATOM      5  C   UNL     1     110.807 126.840 136.867  0.00  0.00    +0.000 A 
ATOM      6  C   UNL     1     112.239 126.036 137.018  0.00  0.00    +0.000 C 
ATOM      7  C   UNL     1     112.158 126.631 136.453  0.00  0.00    +0.000 C 
ATOM      8  C   UNL     1     110.888 126.245 137.433  0.00  0.00    +0.000 A 
ATOM      9  C   UNL     1     111.441 127.034 136.377  0.00  0.00    +0.000 C 
ATOM     10  C   UNL     1     109.401 127.069 137.287  0.00  0.00    +0.000 A 
ATOM     11  C   UNL     1     110.234 126.033 137.949  0.00  0.00    +0.000 A 
ATOM     12  C   UNL     1     109.486 126.448 137.876  0.00  0.00    +0.000 A 
ENDROOT
BRANCH   6  14
ATOM     13  O   UNL     1     115.106 124.428 137.318  0.00  0.00    +0.000 OA
ATOM     14  C   UNL     1     112.956 125.634 137.093  0.00  0.00    +0.000 A 
ATOM     15  C   UNL     1     113.504 125.871 137.662  0.00  0.00    +0.000 A 
ATOM     16  C   UNL     1     113.124 124.994 136.599  0.00  0.00    +0.000 A 
ATOM     17  C   UNL     1     114.221 125.469 137.737  0.00  0.00    +0.000 A 
ATOM     18  C   UNL     1     113.840 124.593 136.674  0.00  0.00    +0.000 A 
ATOM     19  C   UNL     1     114.389 124.830 137.243  0.00  0.00    +0.000 A 
ENDBRANCH   6  14
BRANCH   4  20
ATOM     20  O   UNL     1     109.993 127.860 136.212  0.00  0.00    +0.000 OA
BRANCH  20  29
ATOM     21  O   UNL     1     109.887 129.024 137.034  0.00  0.00    +0.000 OA
ATOM     22  O   UNL     1     107.939 129.783 135.709  0.00  0.00    +0.000 OA
ATOM     23  O   UNL     1     108.483 130.694 136.972  0.00  0.00    +0.000 OA
ATOM     24  O   UNL     1     108.694 128.365 135.329  0.00  0.00    +0.000 OA
ATOM     25  C   UNL     1     108.588 129.530 136.150  0.00  0.00    +0.000 C 
ATOM     26  C   UNL     1     108.860 129.986 136.781  0.00  0.00    +0.000 C 
ATOM     27  C   UNL     1     108.965 128.821 135.960  0.00  0.00    +0.000 C 
ATOM     28  C   UNL     1     109.509 129.733 137.223  0.00  0.00    +0.000 C 
ATOM     29  C   UNL     1     109.615 128.568 136.401  0.00  0.00    +0.000 C 
BRANCH  28  31
ATOM     30  O   UNL     1     110.592 130.271 137.985  0.00  0.00    +0.000 OA
ATOM     31  C   UNL     1     109.782 130.189 137.855  0.00  0.00    +0.000 C 
ENDBRANCH  28  31
ENDBRANCH  20  29
ENDBRANCH   4  20
TORSDOF 4
ENDMDL
MODEL 8
REMARK VINA RESULT:      -9.0      7.588     10.210
REMARK  Name = 22524479
REMARK  4 active torsions:
REMARK  status: ('A' for Active; 'I' for Inactive)
REMARK    1  A    between atoms: O_2  and  C_15
REMARK    2  A    between atoms: O_2  and  C_17
REMARK    3  A    between atoms: C_14  and  C_16
REMARK    4  A    between atoms: C_19  and  C_24
REMARK                            x       y       z     vdW  Elec       q    Type
REMARK                         _______ _______ _______ _____ _____    ______ ____
ROOT
ATOM      1  O   UNL     1     113.373 129.230 138.860  0.00  0.00    +0.000 OA
ATOM      2  O   UNL     1     112.983 126.965 139.776  0.00  0.00    +0.000 OA
ATOM      3  O   UNL     1     112.392 128.370 136.257  0.00  0.00    +0.000 OA
ATOM      4  C   UNL     1     112.618 127.256 138.186  0.00  0.00    +0.000 A 
ATOM      5  C   UNL     1     112.937 127.882 138.681  0.00  0.00    +0.000 A 
ATOM      6  C   UNL     1     113.550 129.069 139.649  0.00  0.00    +0.000 C 
ATOM      7  C   UNL     1     113.420 128.314 139.955  0.00  0.00    +0.000 C 
ATOM      8  C   UNL     1     113.067 128.637 138.376  0.00  0.00    +0.000 A 
ATOM      9  C   UNL     1     113.113 127.719 139.470  0.00  0.00    +0.000 C 
ATOM     10  C   UNL     1     112.432 127.418 137.364  0.00  0.00    +0.000 A 
ATOM     11  C   UNL     1     112.887 128.819 137.555  0.00  0.00    +0.000 A 
ATOM     12  C   UNL     1     112.568 128.205 137.046  0.00  0.00    +0.000 A 
ENDROOT
BRANCH   6  14
ATOM     13  O   UNL     1     114.777 131.442 141.587  0.00  0.00    +0.000 OA
ATOM     14  C   UNL     1     113.857 129.662 140.134  0.00  0.00    +0.000 A 
ATOM     15  C   UNL     1     114.626 129.936 140.014  0.00  0.00    +0.000 A 
ATOM     16  C   UNL     1     113.394 129.981 140.738  0.00  0.00    +0.000 A 
ATOM     17  C   UNL     1     114.932 130.529 140.498  0.00  0.00    +0.000 A 
ATOM     18  C   UNL     1     113.701 130.574 141.222  0.00  0.00    +0.000 A 
ATOM     19  C   UNL     1     114.470 130.849 141.103  0.00  0.00    +0.000 A 
ENDBRANCH   6  14
BRANCH   4  20
ATOM     20  O   UNL     1     112.491 126.503 138.500  0.00  0.00    +0.000 OA
BRANCH  20  29
ATOM     21  O   UNL     1     113.461 125.715 137.808  0.00  0.00    +0.000 OA
ATOM     22  O   UNL     1     111.709 124.064 137.233  0.00  0.00    +0.000 OA
ATOM     23  O   UNL     1     113.263 123.826 136.732  0.00  0.00    +0.000 OA
ATOM     24  O   UNL     1     111.323 125.402 138.117  0.00  0.00    +0.000 OA
ATOM     25  C   UNL     1     112.293 124.614 137.425  0.00  0.00    +0.000 C 
ATOM     26  C   UNL     1     113.070 124.495 137.174  0.00  0.00    +0.000 C 
ATOM     27  C   UNL     1     112.099 125.283 137.867  0.00  0.00    +0.000 C 
ATOM     28  C   UNL     1     113.653 125.046 137.366  0.00  0.00    +0.000 C 
ATOM     29  C   UNL     1     112.683 125.834 138.058  0.00  0.00    +0.000 C 
BRANCH  28  31
ATOM     30  O   UNL     1     115.055 125.039 137.643  0.00  0.00    +0.000 OA
ATOM     31  C   UNL     1     114.431 124.927 137.116  0.00  0.00    +0.000 C 
ENDBRANCH  28  31
ENDBRANCH  20  29
ENDBRANCH   4  20
TORSDOF 4
ENDMDL
MODEL 9
REMARK VINA RESULT:      -8.9      8.348      9.327
REMARK  Name = 22524479
REMARK  4 active torsions:
REMARK  status: ('A' for Active; 'I' for Inactive)
REMARK    1  A    between atoms: O_2  and  C_15
REMARK    2  A    between atoms: O_2  and  C_17
REMARK    3  A    between atoms: C_14  and  C_16
REMARK    4  A    between atoms: C_19  and  C_24
REMARK                            x       y       z     vdW  Elec       q    Type
REMARK                         _______ _______ _______ _____ _____    ______ ____
ROOT
ATOM      1  O   UNL     1     112.982 127.330 137.892  0.00  0.00    +0.000 OA
ATOM      2  O   UNL     1     113.362 127.455 140.334  0.00  0.00    +0.000 OA
ATOM      3  O   UNL     1     112.128 130.113 137.862  0.00  0.00    +0.000 OA
ATOM      4  C   UNL     1     112.816 128.804 139.543  0.00  0.00    +0.000 A 
ATOM      5  C   UNL     1     112.964 128.075 139.111  0.00  0.00    +0.000 A 
ATOM      6  C   UNL     1     113.254 126.667 138.301  0.00  0.00    +0.000 C 
ATOM      7  C   UNL     1     113.381 126.709 139.116  0.00  0.00    +0.000 C 
ATOM      8  C   UNL     1     112.836 128.034 138.297  0.00  0.00    +0.000 A 
ATOM      9  C   UNL     1     113.236 127.414 139.521  0.00  0.00    +0.000 C 
ATOM     10  C   UNL     1     112.532 129.496 139.122  0.00  0.00    +0.000 A 
ATOM     11  C   UNL     1     112.553 128.717 137.858  0.00  0.00    +0.000 A 
ATOM     12  C   UNL     1     112.400 129.453 138.274  0.00  0.00    +0.000 A 
ENDROOT
BRANCH   6  14
ATOM     13  O   UNL     1     113.836 123.850 136.684  0.00  0.00    +0.000 OA
ATOM     14  C   UNL     1     113.400 125.963 137.897  0.00  0.00    +0.000 A 
ATOM     15  C   UNL     1     112.770 125.489 137.654  0.00  0.00    +0.000 A 
ATOM     16  C   UNL     1     114.176 125.733 137.736  0.00  0.00    +0.000 A 
ATOM     17  C   UNL     1     112.915 124.785 137.249  0.00  0.00    +0.000 A 
ATOM     18  C   UNL     1     114.321 125.029 137.332  0.00  0.00    +0.000 A 
ATOM     19  C   UNL     1     113.691 124.555 137.088  0.00  0.00    +0.000 A 
ENDBRANCH   6  14
BRANCH   4  20
ATOM     20  O   UNL     1     112.945 128.836 140.357  0.00  0.00    +0.000 OA
BRANCH  20  29
ATOM     21  O   UNL     1     114.031 129.759 140.463  0.00  0.00    +0.000 OA
ATOM     22  O   UNL     1     112.777 131.037 142.172  0.00  0.00    +0.000 OA
ATOM     23  O   UNL     1     114.281 131.534 141.709  0.00  0.00    +0.000 OA
ATOM     24  O   UNL     1     112.109 129.689 141.496  0.00  0.00    +0.000 OA
ATOM     25  C   UNL     1     113.195 130.611 141.602  0.00  0.00    +0.000 C 
ATOM     26  C   UNL     1     113.947 130.860 141.371  0.00  0.00    +0.000 C 
ATOM     27  C   UNL     1     112.861 129.937 141.265  0.00  0.00    +0.000 C 
ATOM     28  C   UNL     1     114.364 130.433 140.802  0.00  0.00    +0.000 C 
ATOM     29  C   UNL     1     113.279 129.511 140.695  0.00  0.00    +0.000 C 
BRANCH  28  31
ATOM     30  O   UNL     1     115.710 130.125 140.432  0.00  0.00    +0.000 OA
ATOM     31  C   UNL     1     115.117 130.682 140.570  0.00  0.00    +0.000 C 
ENDBRANCH  28  31
ENDBRANCH  20  29
ENDBRANCH   4  20
TORSDOF 4
ENDMDL
MODEL 10
REMARK VINA RESULT:      -8.9      8.530      9.753
REMARK  Name = 22524479
REMARK  4 active torsions:
REMARK  status: ('A' for Active; 'I' for Inactive)
REMARK    1  A    between atoms: O_2  and  C_15
REMARK    2  A    between atoms: O_2  and  C_17
REMARK    3  A    between atoms: C_14  and  C_16
REMARK    4  A    between atoms: C_19  and  C_24
REMARK                            x       y       z     vdW  Elec       q    Type
REMARK                         _______ _______ _______ _____ _____    ______ ____
ROOT
ATOM      1  O   UNL     1     111.847 126.381 136.097  0.00  0.00    +0.000 OA
ATOM      2  O   UNL     1     113.476 127.720 137.390  0.00  0.00    +0.000 OA
ATOM      3  O   UNL     1     111.032 128.755 134.622  0.00  0.00    +0.000 OA
ATOM      4  C   UNL     1     112.552 128.479 136.244  0.00  0.00    +0.000 A 
ATOM      5  C   UNL     1     112.465 127.636 136.385  0.00  0.00    +0.000 A 
ATOM      6  C   UNL     1     112.314 126.018 136.672  0.00  0.00    +0.000 C 
ATOM      7  C   UNL     1     112.858 126.464 137.103  0.00  0.00    +0.000 C 
ATOM      8  C   UNL     1     111.921 127.189 135.953  0.00  0.00    +0.000 A 
ATOM      9  C   UNL     1     112.933 127.274 136.959  0.00  0.00    +0.000 C 
ATOM     10  C   UNL     1     112.068 128.862 135.647  0.00  0.00    +0.000 A 
ATOM     11  C   UNL     1     111.428 127.554 135.352  0.00  0.00    +0.000 A 
ATOM     12  C   UNL     1     111.501 128.396 135.198  0.00  0.00    +0.000 A 
ENDROOT
BRANCH   6  14
ATOM     13  O   UNL     1     112.014 122.782 137.247  0.00  0.00    +0.000 OA
ATOM     14  C   UNL     1     112.239 125.209 136.815  0.00  0.00    +0.000 A 
ATOM     15  C   UNL     1     111.657 124.934 137.330  0.00  0.00    +0.000 A 
ATOM     16  C   UNL     1     112.747 124.675 136.443  0.00  0.00    +0.000 A 
ATOM     17  C   UNL     1     111.582 124.125 137.474  0.00  0.00    +0.000 A 
ATOM     18  C   UNL     1     112.672 123.867 136.587  0.00  0.00    +0.000 A 
ATOM     19  C   UNL     1     112.090 123.591 137.102  0.00  0.00    +0.000 A 
ENDBRANCH   6  14
BRANCH   4  20
ATOM     20  O   UNL     1     113.098 128.918 136.680  0.00  0.00    +0.000 OA
BRANCH  20  29
ATOM     21  O   UNL     1     114.042 129.216 135.650  0.00  0.00    +0.000 OA
ATOM     22  O   UNL     1     114.180 131.553 136.451  0.00  0.00    +0.000 OA
ATOM     23  O   UNL     1     115.079 131.072 135.154  0.00  0.00    +0.000 OA
ATOM     24  O   UNL     1     113.189 130.476 137.214  0.00  0.00    +0.000 OA
ATOM     25  C   UNL     1     114.134 130.774 136.184  0.00  0.00    +0.000 C 
ATOM     26  C   UNL     1     114.583 130.534 135.536  0.00  0.00    +0.000 C 
ATOM     27  C   UNL     1     113.639 130.236 136.566  0.00  0.00    +0.000 C 
ATOM     28  C   UNL     1     114.538 129.754 135.269  0.00  0.00    +0.000 C 
ATOM     29  C   UNL     1     113.593 129.457 136.299  0.00  0.00    +0.000 C 
BRANCH  28  31
ATOM     30  O   UNL     1     115.329 128.763 134.612  0.00  0.00    +0.000 OA
ATOM     31  C   UNL     1     114.987 129.513 134.620  0.00  0.00    +0.000 C 
ENDBRANCH  28  31
ENDBRANCH  20  29
ENDBRANCH   4  20
TORSDOF 4
ENDMDL
