MODEL 1
REMARK VINA RESULT:      -8.4      0.000      0.000
REMARK  Name = 320054
REMARK  3 active torsions:
REMARK  status: ('A' for Active; 'I' for Inactive)
REMARK    1  A    between atoms: O_4  and  C_17
REMARK    2  A    between atoms: O_5  and  C_21
REMARK    3  A    between atoms: C_7  and  C_9
REMARK                            x       y       z     vdW  Elec       q    Type
REMARK                         _______ _______ _______ _____ _____    ______ ____
ROOT
ATOM      1  O   UNL     1     105.085 124.380 147.449  0.00  0.00    +0.000 OA
ATOM      2  O   UNL     1     106.420 125.279 145.569  0.00  0.00    +0.000 OA
ATOM      3  O   UNL     1     107.535 125.537 146.448  0.00  0.00    +0.000 OA
ATOM      4  C   UNL     1     104.762 124.407 146.690  0.00  0.00    +0.000 C 
ATOM      5  C   UNL     1     105.207 124.707 146.064  0.00  0.00    +0.000 C 
ATOM      6  C   UNL     1     106.297 124.952 146.955  0.00  0.00    +0.000 A 
ATOM      7  C   UNL     1     105.975 124.979 146.196  0.00  0.00    +0.000 C 
ATOM      8  C   UNL     1     105.851 124.653 147.582  0.00  0.00    +0.000 A 
ATOM      9  C   UNL     1     107.098 125.240 147.080  0.00  0.00    +0.000 A 
ATOM     10  C   UNL     1     106.176 124.620 148.377  0.00  0.00    +0.000 A 
ATOM     11  C   UNL     1     106.974 124.902 148.521  0.00  0.00    +0.000 A 
ATOM     12  C   UNL     1     107.439 125.214 147.868  0.00  0.00    +0.000 A 
ENDROOT
BRANCH   4  14
ATOM     13  O   UNL     1     101.940 124.685 147.050  0.00  0.00    +0.000 OA
ATOM     14  C   UNL     1     103.995 124.135 146.558  0.00  0.00    +0.000 A 
ATOM     15  C   UNL     1     103.352 124.546 146.870  0.00  0.00    +0.000 A 
ATOM     16  C   UNL     1     103.870 123.451 146.113  0.00  0.00    +0.000 A 
ATOM     17  C   UNL     1     102.584 124.273 146.738  0.00  0.00    +0.000 A 
ATOM     18  C   UNL     1     103.104 123.179 145.981  0.00  0.00    +0.000 A 
ATOM     19  C   UNL     1     102.460 123.590 146.293  0.00  0.00    +0.000 A 
BRANCH  19  20
ATOM     20  O   UNL     1     101.692 123.317 146.160  0.00  0.00    +0.000 OA
ATOM     21  C   UNL     1     101.544 122.786 145.547  0.00  0.00    +0.000 C 
ENDBRANCH  19  20
ENDBRANCH   4  14
BRANCH  11  22
ATOM     22  O   UNL     1     107.294 124.874 149.281  0.00  0.00    +0.000 OA
ATOM     23  C   UNL     1     107.585 124.162 149.580  0.00  0.00    +0.000 C 
ENDBRANCH  11  22
TORSDOF 3
ENDMDL
MODEL 2
REMARK VINA RESULT:      -8.0      0.849      4.694
REMARK  Name = 320054
REMARK  3 active torsions:
REMARK  status: ('A' for Active; 'I' for Inactive)
REMARK    1  A    between atoms: O_4  and  C_17
REMARK    2  A    between atoms: O_5  and  C_21
REMARK    3  A    between atoms: C_7  and  C_9
REMARK                            x       y       z     vdW  Elec       q    Type
REMARK                         _______ _______ _______ _____ _____    ______ ____
ROOT
ATOM      1  O   UNL     1     104.284 124.189 146.751  0.00  0.00    +0.000 OA
ATOM      2  O   UNL     1     102.812 125.695 148.050  0.00  0.00    +0.000 OA
ATOM      3  O   UNL     1     101.639 125.000 147.580  0.00  0.00    +0.000 OA
ATOM      4  C   UNL     1     104.612 124.793 147.207  0.00  0.00    +0.000 C 
ATOM      5  C   UNL     1     104.121 125.295 147.641  0.00  0.00    +0.000 C 
ATOM      6  C   UNL     1     102.975 124.589 147.160  0.00  0.00    +0.000 A 
ATOM      7  C   UNL     1     103.302 125.193 147.617  0.00  0.00    +0.000 C 
ATOM      8  C   UNL     1     103.466 124.087 146.727  0.00  0.00    +0.000 A 
ATOM      9  C   UNL     1     102.121 124.494 147.144  0.00  0.00    +0.000 A 
ATOM     10  C   UNL     1     103.137 123.455 146.247  0.00  0.00    +0.000 A 
ATOM     11  C   UNL     1     102.285 123.344 146.219  0.00  0.00    +0.000 A 
ATOM     12  C   UNL     1     101.774 123.867 146.670  0.00  0.00    +0.000 A 
ENDROOT
BRANCH   4  14
ATOM     13  O   UNL     1     107.058 125.493 145.904  0.00  0.00    +0.000 OA
ATOM     14  C   UNL     1     105.430 124.895 147.231  0.00  0.00    +0.000 A 
ATOM     15  C   UNL     1     105.834 125.143 146.556  0.00  0.00    +0.000 A 
ATOM     16  C   UNL     1     105.845 124.749 147.929  0.00  0.00    +0.000 A 
ATOM     17  C   UNL     1     106.653 125.245 146.579  0.00  0.00    +0.000 A 
ATOM     18  C   UNL     1     106.662 124.851 147.953  0.00  0.00    +0.000 A 
ATOM     19  C   UNL     1     107.067 125.099 147.278  0.00  0.00    +0.000 A 
BRANCH  19  20
ATOM     20  O   UNL     1     107.886 125.201 147.301  0.00  0.00    +0.000 OA
ATOM     21  C   UNL     1     108.306 125.001 147.982  0.00  0.00    +0.000 C 
ENDBRANCH  19  20
ENDBRANCH   4  14
BRANCH  11  22
ATOM     22  O   UNL     1     101.960 122.739 145.761  0.00  0.00    +0.000 OA
ATOM     23  C   UNL     1     101.321 122.896 145.264  0.00  0.00    +0.000 C 
ENDBRANCH  11  22
TORSDOF 3
ENDMDL
MODEL 3
REMARK VINA RESULT:      -7.9      1.014      4.467
REMARK  Name = 320054
REMARK  3 active torsions:
REMARK  status: ('A' for Active; 'I' for Inactive)
REMARK    1  A    between atoms: O_4  and  C_17
REMARK    2  A    between atoms: O_5  and  C_21
REMARK    3  A    between atoms: C_7  and  C_9
REMARK                            x       y       z     vdW  Elec       q    Type
REMARK                         _______ _______ _______ _____ _____    ______ ____
ROOT
ATOM      1  O   UNL     1     104.080 124.890 147.406  0.00  0.00    +0.000 OA
ATOM      2  O   UNL     1     103.406 123.502 145.470  0.00  0.00    +0.000 OA
ATOM      3  O   UNL     1     102.020 123.580 145.861  0.00  0.00    +0.000 OA
ATOM      4  C   UNL     1     104.651 124.612 146.879  0.00  0.00    +0.000 C 
ATOM      5  C   UNL     1     104.427 124.150 146.234  0.00  0.00    +0.000 C 
ATOM      6  C   UNL     1     103.061 124.242 146.643  0.00  0.00    +0.000 A 
ATOM      7  C   UNL     1     103.631 123.964 146.115  0.00  0.00    +0.000 C 
ATOM      8  C   UNL     1     103.285 124.705 147.288  0.00  0.00    +0.000 A 
ATOM      9  C   UNL     1     102.235 124.042 146.508  0.00  0.00    +0.000 A 
ATOM     10  C   UNL     1     102.700 125.000 147.844  0.00  0.00    +0.000 A 
ATOM     11  C   UNL     1     101.870 124.811 147.726  0.00  0.00    +0.000 A 
ATOM     12  C   UNL     1     101.636 124.328 147.054  0.00  0.00    +0.000 A 
ENDROOT
BRANCH   4  14
ATOM     13  O   UNL     1     107.095 125.748 145.928  0.00  0.00    +0.000 OA
ATOM     14  C   UNL     1     105.446 124.797 146.996  0.00  0.00    +0.000 A 
ATOM     15  C   UNL     1     105.873 125.180 146.403  0.00  0.00    +0.000 A 
ATOM     16  C   UNL     1     105.815 124.599 147.707  0.00  0.00    +0.000 A 
ATOM     17  C   UNL     1     106.669 125.365 146.521  0.00  0.00    +0.000 A 
ATOM     18  C   UNL     1     106.610 124.784 147.825  0.00  0.00    +0.000 A 
ATOM     19  C   UNL     1     107.037 125.167 147.232  0.00  0.00    +0.000 A 
BRANCH  19  20
ATOM     20  O   UNL     1     107.833 125.352 147.349  0.00  0.00    +0.000 OA
ATOM     21  C   UNL     1     108.238 125.036 147.994  0.00  0.00    +0.000 C 
ENDBRANCH  19  20
ENDBRANCH   4  14
BRANCH  11  22
ATOM     22  O   UNL     1     101.302 125.090 148.255  0.00  0.00    +0.000 OA
ATOM     23  C   UNL     1     101.087 124.634 148.908  0.00  0.00    +0.000 C 
ENDBRANCH  11  22
TORSDOF 3
ENDMDL
MODEL 4
REMARK VINA RESULT:      -7.7     11.317     12.649
REMARK  Name = 320054
REMARK  3 active torsions:
REMARK  status: ('A' for Active; 'I' for Inactive)
REMARK    1  A    between atoms: O_4  and  C_17
REMARK    2  A    between atoms: O_5  and  C_21
REMARK    3  A    between atoms: C_7  and  C_9
REMARK                            x       y       z     vdW  Elec       q    Type
REMARK                         _______ _______ _______ _____ _____    ______ ____
ROOT
ATOM      1  O   UNL     1     110.533 127.437 136.306  0.00  0.00    +0.000 OA
ATOM      2  O   UNL     1     108.075 127.316 136.043  0.00  0.00    +0.000 OA
ATOM      3  O   UNL     1     108.014 128.717 135.707  0.00  0.00    +0.000 OA
ATOM      4  C   UNL     1     110.140 126.721 136.428  0.00  0.00    +0.000 C 
ATOM      5  C   UNL     1     109.321 126.681 136.340  0.00  0.00    +0.000 C 
ATOM      6  C   UNL     1     109.288 128.071 136.009  0.00  0.00    +0.000 A 
ATOM      7  C   UNL     1     108.894 127.356 136.131  0.00  0.00    +0.000 C 
ATOM      8  C   UNL     1     110.107 128.111 136.097  0.00  0.00    +0.000 A 
ATOM      9  C   UNL     1     108.832 128.767 135.792  0.00  0.00    +0.000 A 
ATOM     10  C   UNL     1     110.528 128.850 135.973  0.00  0.00    +0.000 A 
ATOM     11  C   UNL     1     110.090 129.556 135.756  0.00  0.00    +0.000 A 
ATOM     12  C   UNL     1     109.236 129.514 135.664  0.00  0.00    +0.000 A 
ENDROOT
BRANCH   4  14
ATOM     13  O   UNL     1     111.240 125.013 138.437  0.00  0.00    +0.000 OA
ATOM     14  C   UNL     1     110.566 126.047 136.636  0.00  0.00    +0.000 A 
ATOM     15  C   UNL     1     110.690 125.867 137.432  0.00  0.00    +0.000 A 
ATOM     16  C   UNL     1     110.868 125.551 136.050  0.00  0.00    +0.000 A 
ATOM     17  C   UNL     1     111.116 125.192 137.642  0.00  0.00    +0.000 A 
ATOM     18  C   UNL     1     111.294 124.876 136.259  0.00  0.00    +0.000 A 
ATOM     19  C   UNL     1     111.418 124.697 137.055  0.00  0.00    +0.000 A 
BRANCH  19  20
ATOM     20  O   UNL     1     111.844 124.022 137.265  0.00  0.00    +0.000 OA
ATOM     21  C   UNL     1     112.203 123.563 136.680  0.00  0.00    +0.000 C 
ENDBRANCH  19  20
ENDBRANCH   4  14
BRANCH  11  22
ATOM     22  O   UNL     1     110.486 130.270 135.635  0.00  0.00    +0.000 OA
ATOM     23  C   UNL     1     110.654 130.762 136.275  0.00  0.00    +0.000 C 
ENDBRANCH  11  22
TORSDOF 3
ENDMDL
MODEL 5
REMARK VINA RESULT:      -7.7      8.946     10.040
REMARK  Name = 320054
REMARK  3 active torsions:
REMARK  status: ('A' for Active; 'I' for Inactive)
REMARK    1  A    between atoms: O_4  and  C_17
REMARK    2  A    between atoms: O_5  and  C_21
REMARK    3  A    between atoms: C_7  and  C_9
REMARK                            x       y       z     vdW  Elec       q    Type
REMARK                         _______ _______ _______ _____ _____    ______ ____
ROOT
ATOM      1  O   UNL     1     102.870 131.950 141.220  0.00  0.00    +0.000 OA
ATOM      2  O   UNL     1     100.710 132.162 142.409  0.00  0.00    +0.000 OA
ATOM      3  O   UNL     1     100.720 133.594 142.231  0.00  0.00    +0.000 OA
ATOM      4  C   UNL     1     102.494 131.277 141.513  0.00  0.00    +0.000 C 
ATOM      5  C   UNL     1     101.774 131.348 141.910  0.00  0.00    +0.000 C 
ATOM      6  C   UNL     1     101.808 132.764 141.719  0.00  0.00    +0.000 A 
ATOM      7  C   UNL     1     101.430 132.092 142.013  0.00  0.00    +0.000 C 
ATOM      8  C   UNL     1     102.528 132.693 141.323  0.00  0.00    +0.000 A 
ATOM      9  C   UNL     1     101.440 133.533 141.833  0.00  0.00    +0.000 A 
ATOM     10  C   UNL     1     102.931 133.386 141.013  0.00  0.00    +0.000 A 
ATOM     11  C   UNL     1     102.579 134.163 141.117  0.00  0.00    +0.000 A 
ATOM     12  C   UNL     1     101.828 134.237 141.530  0.00  0.00    +0.000 A 
ENDROOT
BRANCH   4  14
ATOM     13  O   UNL     1     102.852 128.912 139.949  0.00  0.00    +0.000 OA
ATOM     14  C   UNL     1     102.836 130.534 141.410  0.00  0.00    +0.000 A 
ATOM     15  C   UNL     1     102.672 130.095 140.731  0.00  0.00    +0.000 A 
ATOM     16  C   UNL     1     103.342 130.229 141.986  0.00  0.00    +0.000 A 
ATOM     17  C   UNL     1     103.015 129.351 140.628  0.00  0.00    +0.000 A 
ATOM     18  C   UNL     1     103.685 129.487 141.883  0.00  0.00    +0.000 A 
ATOM     19  C   UNL     1     103.521 129.048 141.204  0.00  0.00    +0.000 A 
BRANCH  19  20
ATOM     20  O   UNL     1     103.864 128.303 141.101  0.00  0.00    +0.000 OA
ATOM     21  C   UNL     1     104.473 128.058 141.600  0.00  0.00    +0.000 C 
ENDBRANCH  19  20
ENDBRANCH   4  14
BRANCH  11  22
ATOM     22  O   UNL     1     102.958 134.834 140.823  0.00  0.00    +0.000 OA
ATOM     23  C   UNL     1     103.569 135.184 141.252  0.00  0.00    +0.000 C 
ENDBRANCH  11  22
TORSDOF 3
ENDMDL
MODEL 6
REMARK VINA RESULT:      -7.6     10.937     12.583
REMARK  Name = 320054
REMARK  3 active torsions:
REMARK  status: ('A' for Active; 'I' for Inactive)
REMARK    1  A    between atoms: O_4  and  C_17
REMARK    2  A    between atoms: O_5  and  C_21
REMARK    3  A    between atoms: C_7  and  C_9
REMARK                            x       y       z     vdW  Elec       q    Type
REMARK                         _______ _______ _______ _____ _____    ______ ____
ROOT
ATOM      1  O   UNL     1     112.647 126.150 138.322  0.00  0.00    +0.000 OA
ATOM      2  O   UNL     1     114.755 125.056 137.626  0.00  0.00    +0.000 OA
ATOM      3  O   UNL     1     114.059 124.291 136.621  0.00  0.00    +0.000 OA
ATOM      4  C   UNL     1     113.354 126.341 138.701  0.00  0.00    +0.000 C 
ATOM      5  C   UNL     1     114.057 125.976 138.469  0.00  0.00    +0.000 C 
ATOM      6  C   UNL     1     113.344 125.231 137.480  0.00  0.00    +0.000 A 
ATOM      7  C   UNL     1     114.052 125.421 137.858  0.00  0.00    +0.000 C 
ATOM      8  C   UNL     1     112.641 125.596 137.712  0.00  0.00    +0.000 A 
ATOM      9  C   UNL     1     113.352 124.651 136.845  0.00  0.00    +0.000 A 
ATOM     10  C   UNL     1     111.897 125.406 137.326  0.00  0.00    +0.000 A 
ATOM     11  C   UNL     1     111.886 124.829 136.689  0.00  0.00    +0.000 A 
ATOM     12  C   UNL     1     112.618 124.448 136.448  0.00  0.00    +0.000 A 
ENDROOT
BRANCH   4  14
ATOM     13  O   UNL     1     113.254 126.952 141.491  0.00  0.00    +0.000 OA
ATOM     14  C   UNL     1     113.360 126.896 139.311  0.00  0.00    +0.000 A 
ATOM     15  C   UNL     1     113.304 126.646 140.095  0.00  0.00    +0.000 A 
ATOM     16  C   UNL     1     113.421 127.700 139.138  0.00  0.00    +0.000 A 
ATOM     17  C   UNL     1     113.309 127.202 140.707  0.00  0.00    +0.000 A 
ATOM     18  C   UNL     1     113.426 128.255 139.747  0.00  0.00    +0.000 A 
ATOM     19  C   UNL     1     113.371 128.006 140.532  0.00  0.00    +0.000 A 
BRANCH  19  20
ATOM     20  O   UNL     1     113.376 128.561 141.143  0.00  0.00    +0.000 OA
ATOM     21  C   UNL     1     113.523 129.355 140.976  0.00  0.00    +0.000 C 
ENDBRANCH  19  20
ENDBRANCH   4  14
BRANCH  11  22
ATOM     22  O   UNL     1     111.176 124.640 136.313  0.00  0.00    +0.000 OA
ATOM     23  C   UNL     1     110.867 125.146 135.739  0.00  0.00    +0.000 C 
ENDBRANCH  11  22
TORSDOF 3
ENDMDL
MODEL 7
REMARK VINA RESULT:      -7.6     12.870     14.240
REMARK  Name = 320054
REMARK  3 active torsions:
REMARK  status: ('A' for Active; 'I' for Inactive)
REMARK    1  A    between atoms: O_4  and  C_17
REMARK    2  A    between atoms: O_5  and  C_21
REMARK    3  A    between atoms: C_7  and  C_9
REMARK                            x       y       z     vdW  Elec       q    Type
REMARK                         _______ _______ _______ _____ _____    ______ ____
ROOT
ATOM      1  O   UNL     1     112.282 127.265 136.022  0.00  0.00    +0.000 OA
ATOM      2  O   UNL     1     113.546 125.363 136.975  0.00  0.00    +0.000 OA
ATOM      3  O   UNL     1     112.473 124.454 136.657  0.00  0.00    +0.000 OA
ATOM      4  C   UNL     1     113.032 127.389 136.343  0.00  0.00    +0.000 C 
ATOM      5  C   UNL     1     113.453 126.755 136.661  0.00  0.00    +0.000 C 
ATOM      6  C   UNL     1     112.375 125.875 136.336  0.00  0.00    +0.000 A 
ATOM      7  C   UNL     1     113.125 125.997 136.657  0.00  0.00    +0.000 C 
ATOM      8  C   UNL     1     111.954 126.509 136.018  0.00  0.00    +0.000 A 
ATOM      9  C   UNL     1     112.044 125.081 136.338  0.00  0.00    +0.000 A 
ATOM     10  C   UNL     1     111.172 126.394 135.680  0.00  0.00    +0.000 A 
ATOM     11  C   UNL     1     110.825 125.608 135.673  0.00  0.00    +0.000 A 
ATOM     12  C   UNL     1     111.264 124.947 136.004  0.00  0.00    +0.000 A 
ENDROOT
BRANCH   4  14
ATOM     13  O   UNL     1     113.348 129.943 137.587  0.00  0.00    +0.000 OA
ATOM     14  C   UNL     1     113.360 128.145 136.347  0.00  0.00    +0.000 A 
ATOM     15  C   UNL     1     113.190 128.665 136.965  0.00  0.00    +0.000 A 
ATOM     16  C   UNL     1     113.858 128.383 135.734  0.00  0.00    +0.000 A 
ATOM     17  C   UNL     1     113.518 129.423 136.969  0.00  0.00    +0.000 A 
ATOM     18  C   UNL     1     114.186 129.139 135.738  0.00  0.00    +0.000 A 
ATOM     19  C   UNL     1     114.016 129.659 136.355  0.00  0.00    +0.000 A 
BRANCH  19  20
ATOM     20  O   UNL     1     114.345 130.416 136.360  0.00  0.00    +0.000 OA
ATOM     21  C   UNL     1     114.904 130.626 135.791  0.00  0.00    +0.000 C 
ENDBRANCH  19  20
ENDBRANCH   4  14
BRANCH  11  22
ATOM     22  O   UNL     1     110.075 125.488 135.351  0.00  0.00    +0.000 OA
ATOM     23  C   UNL     1     109.887 125.806 134.613  0.00  0.00    +0.000 C 
ENDBRANCH  11  22
TORSDOF 3
ENDMDL
MODEL 8
REMARK VINA RESULT:      -7.6     11.180     12.575
REMARK  Name = 320054
REMARK  3 active torsions:
REMARK  status: ('A' for Active; 'I' for Inactive)
REMARK    1  A    between atoms: O_4  and  C_17
REMARK    2  A    between atoms: O_5  and  C_21
REMARK    3  A    between atoms: C_7  and  C_9
REMARK                            x       y       z     vdW  Elec       q    Type
REMARK                         _______ _______ _______ _____ _____    ______ ____
ROOT
ATOM      1  O   UNL     1     112.006 125.863 136.565  0.00  0.00    +0.000 OA
ATOM      2  O   UNL     1     111.800 123.462 137.129  0.00  0.00    +0.000 OA
ATOM      3  O   UNL     1     113.234 123.309 137.124  0.00  0.00    +0.000 OA
ATOM      4  C   UNL     1     111.260 125.526 136.664  0.00  0.00    +0.000 C 
ATOM      5  C   UNL     1     111.191 124.725 136.852  0.00  0.00    +0.000 C 
ATOM      6  C   UNL     1     112.614 124.601 136.841  0.00  0.00    +0.000 A 
ATOM      7  C   UNL     1     111.869 124.262 136.941  0.00  0.00    +0.000 C 
ATOM      8  C   UNL     1     112.683 125.401 136.654  0.00  0.00    +0.000 A 
ATOM      9  C   UNL     1     113.313 124.108 136.936  0.00  0.00    +0.000 A 
ATOM     10  C   UNL     1     113.455 125.765 136.547  0.00  0.00    +0.000 A 
ATOM     11  C   UNL     1     114.164 125.288 136.638  0.00  0.00    +0.000 A 
ATOM     12  C   UNL     1     114.092 124.454 136.834  0.00  0.00    +0.000 A 
ENDROOT
BRANCH   4  14
ATOM     13  O   UNL     1     109.117 127.022 137.820  0.00  0.00    +0.000 OA
ATOM     14  C   UNL     1     110.583 125.988 136.576  0.00  0.00    +0.000 A 
ATOM     15  C   UNL     1     110.189 126.274 137.242  0.00  0.00    +0.000 A 
ATOM     16  C   UNL     1     110.298 126.164 135.822  0.00  0.00    +0.000 A 
ATOM     17  C   UNL     1     109.511 126.736 137.154  0.00  0.00    +0.000 A 
ATOM     18  C   UNL     1     109.621 126.626 135.734  0.00  0.00    +0.000 A 
ATOM     19  C   UNL     1     109.227 126.912 136.400  0.00  0.00    +0.000 A 
BRANCH  19  20
ATOM     20  O   UNL     1     108.549 127.375 136.312  0.00  0.00    +0.000 OA
ATOM     21  C   UNL     1     108.505 127.928 135.701  0.00  0.00    +0.000 C 
ENDBRANCH  19  20
ENDBRANCH   4  14
BRANCH  11  22
ATOM     22  O   UNL     1     114.909 125.629 136.538  0.00  0.00    +0.000 OA
ATOM     23  C   UNL     1     115.318 125.524 135.830  0.00  0.00    +0.000 C 
ENDBRANCH  11  22
TORSDOF 3
ENDMDL
MODEL 9
REMARK VINA RESULT:      -7.6     12.935     14.277
REMARK  Name = 320054
REMARK  3 active torsions:
REMARK  status: ('A' for Active; 'I' for Inactive)
REMARK    1  A    between atoms: O_4  and  C_17
REMARK    2  A    between atoms: O_5  and  C_21
REMARK    3  A    between atoms: C_7  and  C_9
REMARK                            x       y       z     vdW  Elec       q    Type
REMARK                         _______ _______ _______ _____ _____    ______ ____
ROOT
ATOM      1  O   UNL     1     113.792 127.558 136.068  0.00  0.00    +0.000 OA
ATOM      2  O   UNL     1     112.865 128.911 137.922  0.00  0.00    +0.000 OA
ATOM      3  O   UNL     1     113.251 130.133 137.261  0.00  0.00    +0.000 OA
ATOM      4  C   UNL     1     113.441 127.185 136.715  0.00  0.00    +0.000 C 
ATOM      5  C   UNL     1     113.132 127.636 137.333  0.00  0.00    +0.000 C 
ATOM      6  C   UNL     1     113.525 128.832 136.657  0.00  0.00    +0.000 A 
ATOM      7  C   UNL     1     113.174 128.460 137.304  0.00  0.00    +0.000 C 
ATOM      8  C   UNL     1     113.834 128.381 136.039  0.00  0.00    +0.000 A 
ATOM      9  C   UNL     1     113.562 129.691 136.639  0.00  0.00    +0.000 A 
ATOM     10  C   UNL     1     114.202 128.758 135.360  0.00  0.00    +0.000 A 
ATOM     11  C   UNL     1     114.248 129.615 135.324  0.00  0.00    +0.000 A 
ATOM     12  C   UNL     1     113.926 130.085 135.968  0.00  0.00    +0.000 A 
ENDROOT
BRANCH   4  14
ATOM     13  O   UNL     1     114.657 124.664 137.292  0.00  0.00    +0.000 OA
ATOM     14  C   UNL     1     113.399 126.362 136.744  0.00  0.00    +0.000 A 
ATOM     15  C   UNL     1     114.049 125.925 137.003  0.00  0.00    +0.000 A 
ATOM     16  C   UNL     1     112.708 125.975 136.514  0.00  0.00    +0.000 A 
ATOM     17  C   UNL     1     114.007 125.101 137.033  0.00  0.00    +0.000 A 
ATOM     18  C   UNL     1     112.666 125.152 136.543  0.00  0.00    +0.000 A 
ATOM     19  C   UNL     1     113.316 124.715 136.803  0.00  0.00    +0.000 A 
BRANCH  19  20
ATOM     20  O   UNL     1     113.274 123.891 136.832  0.00  0.00    +0.000 OA
ATOM     21  C   UNL     1     112.540 123.516 136.825  0.00  0.00    +0.000 C 
ENDBRANCH  19  20
ENDBRANCH   4  14
BRANCH  11  22
ATOM     22  O   UNL     1     114.600 129.985 134.676  0.00  0.00    +0.000 OA
ATOM     23  C   UNL     1     115.349 130.322 134.750  0.00  0.00    +0.000 C 
ENDBRANCH  11  22
TORSDOF 3
ENDMDL
MODEL 10
REMARK VINA RESULT:      -7.5      7.646      8.542
REMARK  Name = 320054
REMARK  3 active torsions:
REMARK  status: ('A' for Active; 'I' for Inactive)
REMARK    1  A    between atoms: O_4  and  C_17
REMARK    2  A    between atoms: O_5  and  C_21
REMARK    3  A    between atoms: C_7  and  C_9
REMARK                            x       y       z     vdW  Elec       q    Type
REMARK                         _______ _______ _______ _____ _____    ______ ____
ROOT
ATOM      1  O   UNL     1     103.478 130.311 142.154  0.00  0.00    +0.000 OA
ATOM      2  O   UNL     1     103.087 128.817 140.221  0.00  0.00    +0.000 OA
ATOM      3  O   UNL     1     104.054 127.871 140.721  0.00  0.00    +0.000 OA
ATOM      4  C   UNL     1     102.931 130.523 141.574  0.00  0.00    +0.000 C 
ATOM      5  C   UNL     1     102.801 130.025 140.929  0.00  0.00    +0.000 C 
ATOM      6  C   UNL     1     103.764 129.104 141.446  0.00  0.00    +0.000 A 
ATOM      7  C   UNL     1     103.217 129.315 140.865  0.00  0.00    +0.000 C 
ATOM      8  C   UNL     1     103.894 129.602 142.091  0.00  0.00    +0.000 A 
ATOM      9  C   UNL     1     104.191 128.362 141.368  0.00  0.00    +0.000 A 
ATOM     10  C   UNL     1     104.461 129.393 142.702  0.00  0.00    +0.000 A 
ATOM     11  C   UNL     1     104.897 128.656 142.641  0.00  0.00    +0.000 A 
ATOM     12  C   UNL     1     104.761 128.136 141.969  0.00  0.00    +0.000 A 
ENDROOT
BRANCH   4  14
ATOM     13  O   UNL     1     102.717 133.323 141.041  0.00  0.00    +0.000 OA
ATOM     14  C   UNL     1     102.515 131.232 141.637  0.00  0.00    +0.000 A 
ATOM     15  C   UNL     1     102.824 131.922 141.307  0.00  0.00    +0.000 A 
ATOM     16  C   UNL     1     101.790 131.252 142.031  0.00  0.00    +0.000 A 
ATOM     17  C   UNL     1     102.408 132.633 141.371  0.00  0.00    +0.000 A 
ATOM     18  C   UNL     1     101.375 131.961 142.094  0.00  0.00    +0.000 A 
ATOM     19  C   UNL     1     101.683 132.651 141.765  0.00  0.00    +0.000 A 
BRANCH  19  20
ATOM     20  O   UNL     1     101.267 133.361 141.828  0.00  0.00    +0.000 OA
ATOM     21  C   UNL     1     100.710 133.460 142.428  0.00  0.00    +0.000 C 
ENDBRANCH  19  20
ENDBRANCH   4  14
BRANCH  11  22
ATOM     22  O   UNL     1     105.443 128.447 143.223  0.00  0.00    +0.000 OA
ATOM     23  C   UNL     1     105.214 127.959 143.848  0.00  0.00    +0.000 C 
ENDBRANCH  11  22
TORSDOF 3
ENDMDL
