MODEL 1
REMARK VINA RESULT:      -9.2      0.000      0.000
REMARK  Name = 44257857
REMARK  10 active torsions:
REMARK  status: ('A' for Active; 'I' for Inactive)
REMARK    1  A    between atoms: O_4  and  C_19
REMARK    2  A    between atoms: O_4  and  C_22
REMARK    3  A    between atoms: O_6  and  C_20
REMARK    4  A    between atoms: O_6  and  C_24
REMARK    5  A    between atoms: C_17  and  C_20
REMARK    6  A    between atoms: C_21  and  C_23
REMARK    7  A    between atoms: C_21  and  C_25
REMARK    8  A    between atoms: C_23  and  C_24
REMARK    9  A    between atoms: C_25  and  C_32
REMARK   10  A    between atoms: C_34  and  C_36
REMARK                            x       y       z     vdW  Elec       q    Type
REMARK                         _______ _______ _______ _____ _____    ______ ____
ROOT
ATOM      1  O   UNL     1     110.167 129.077 136.753  0.00  0.00    +0.000 OA
ATOM      2  O   UNL     1     108.546 130.238 137.642  0.00  0.00    +0.000 OA
ATOM      3  O   UNL     1     107.986 130.050 136.101  0.00  0.00    +0.000 OA
ATOM      4  O   UNL     1     108.880 129.214 134.995  0.00  0.00    +0.000 OA
ATOM      5  C   UNL     1     108.993 129.819 137.088  0.00  0.00    +0.000 C 
ATOM      6  C   UNL     1     108.713 129.726 136.318  0.00  0.00    +0.000 C 
ATOM      7  C   UNL     1     109.720 129.495 137.306  0.00  0.00    +0.000 C 
ATOM      8  C   UNL     1     109.160 129.307 135.765  0.00  0.00    +0.000 C 
ATOM      9  C   UNL     1     109.887 128.983 135.982  0.00  0.00    +0.000 C 
ENDROOT
BRANCH   9  10
ATOM     10  O   UNL     1     110.334 128.565 135.429  0.00  0.00    +0.000 OA
BRANCH  10  14
ATOM     11  O   UNL     1     112.696 127.102 136.303  0.00  0.00    +0.000 OA
ATOM     12  O   UNL     1     113.001 129.704 135.084  0.00  0.00    +0.000 OA
ATOM     13  O   UNL     1     114.148 128.951 135.528  0.00  0.00    +0.000 OA
ATOM     14  C   UNL     1     111.153 128.514 135.514  0.00  0.00    +0.000 A 
ATOM     15  C   UNL     1     111.507 127.817 135.873  0.00  0.00    +0.000 A 
ATOM     16  C   UNL     1     111.657 129.155 135.246  0.00  0.00    +0.000 A 
ATOM     17  C   UNL     1     112.361 127.773 135.958  0.00  0.00    +0.000 A 
ATOM     18  C   UNL     1     112.845 128.389 135.700  0.00  0.00    +0.000 A 
ATOM     19  C   UNL     1     112.509 129.092 135.339  0.00  0.00    +0.000 A 
ATOM     20  C   UNL     1     113.664 128.335 135.786  0.00  0.00    +0.000 A 
ATOM     21  C   UNL     1     113.515 127.048 136.389  0.00  0.00    +0.000 A 
ATOM     22  C   UNL     1     113.998 127.664 136.131  0.00  0.00    +0.000 A 
BRANCH  21  24
ATOM     23  O   UNL     1     114.853 124.366 137.769  0.00  0.00    +0.000 OA
ATOM     24  C   UNL     1     113.849 126.377 136.734  0.00  0.00    +0.000 A 
ATOM     25  C   UNL     1     114.234 125.819 136.263  0.00  0.00    +0.000 A 
ATOM     26  C   UNL     1     113.799 126.264 137.550  0.00  0.00    +0.000 A 
ATOM     27  C   UNL     1     114.568 125.149 136.609  0.00  0.00    +0.000 A 
ATOM     28  C   UNL     1     114.134 125.594 137.895  0.00  0.00    +0.000 A 
ATOM     29  C   UNL     1     114.519 125.036 137.424  0.00  0.00    +0.000 A 
ENDBRANCH  21  24
ENDBRANCH  10  14
ENDBRANCH   9  10
BRANCH   7  30
ATOM     30  C   UNL     1     110.000 129.590 138.076  0.00  0.00    +0.000 C 
BRANCH  30  31
ATOM     31  O   UNL     1     110.739 129.930 138.209  0.00  0.00    +0.000 OA
BRANCH  31  33
ATOM     32  O   UNL     1     110.943 129.132 139.376  0.00  0.00    +0.000 OA
ATOM     33  C   UNL     1     111.138 129.790 138.917  0.00  0.00    +0.000 C 
BRANCH  33  34
ATOM     34  C   UNL     1     111.730 130.306 139.167  0.00  0.00    +0.000 C 
BRANCH  34  36
ATOM     35  O   UNL     1     112.594 130.568 138.429  0.00  0.00    +0.000 OA
ATOM     36  C   UNL     1     112.523 130.090 139.096  0.00  0.00    +0.000 C 
ATOM     37  C   UNL     1     112.452 129.611 139.765  0.00  0.00    +0.000 C 
BRANCH  36  38
ATOM     38  C   UNL     1     113.316 129.874 139.027  0.00  0.00    +0.000 C 
BRANCH  38  41
ATOM     39  O   UNL     1     114.311 130.649 138.355  0.00  0.00    +0.000 OA
ATOM     40  O   UNL     1     114.083 130.835 139.754  0.00  0.00    +0.000 OA
ATOM     41  C   UNL     1     113.903 130.453 139.046  0.00  0.00    +0.000 C 
ENDBRANCH  38  41
ENDBRANCH  36  38
ENDBRANCH  34  36
ENDBRANCH  33  34
ENDBRANCH  31  33
ENDBRANCH  30  31
ENDBRANCH   7  30
TORSDOF 10
ENDMDL
MODEL 2
REMARK VINA RESULT:      -9.2      1.613      2.343
REMARK  Name = 44257857
REMARK  10 active torsions:
REMARK  status: ('A' for Active; 'I' for Inactive)
REMARK    1  A    between atoms: O_4  and  C_19
REMARK    2  A    between atoms: O_4  and  C_22
REMARK    3  A    between atoms: O_6  and  C_20
REMARK    4  A    between atoms: O_6  and  C_24
REMARK    5  A    between atoms: C_17  and  C_20
REMARK    6  A    between atoms: C_21  and  C_23
REMARK    7  A    between atoms: C_21  and  C_25
REMARK    8  A    between atoms: C_23  and  C_24
REMARK    9  A    between atoms: C_25  and  C_32
REMARK   10  A    between atoms: C_34  and  C_36
REMARK                            x       y       z     vdW  Elec       q    Type
REMARK                         _______ _______ _______ _____ _____    ______ ____
ROOT
ATOM      1  O   UNL     1     110.038 128.858 136.337  0.00  0.00    +0.000 OA
ATOM      2  O   UNL     1     109.136 130.844 136.421  0.00  0.00    +0.000 OA
ATOM      3  O   UNL     1     107.854 129.940 135.909  0.00  0.00    +0.000 OA
ATOM      4  O   UNL     1     108.028 128.315 135.682  0.00  0.00    +0.000 OA
ATOM      5  C   UNL     1     109.223 130.031 136.307  0.00  0.00    +0.000 C 
ATOM      6  C   UNL     1     108.582 129.580 136.051  0.00  0.00    +0.000 C 
ATOM      7  C   UNL     1     109.951 129.670 136.450  0.00  0.00    +0.000 C 
ATOM      8  C   UNL     1     108.669 128.766 135.938  0.00  0.00    +0.000 C 
ATOM      9  C   UNL     1     109.397 128.406 136.081  0.00  0.00    +0.000 C 
ENDROOT
BRANCH   9  10
ATOM     10  O   UNL     1     109.484 127.594 135.967  0.00  0.00    +0.000 OA
BRANCH  10  14
ATOM     11  O   UNL     1     111.752 126.112 137.038  0.00  0.00    +0.000 OA
ATOM     12  O   UNL     1     109.282 126.214 138.534  0.00  0.00    +0.000 OA
ATOM     13  O   UNL     1     110.426 125.490 139.033  0.00  0.00    +0.000 OA
ATOM     14  C   UNL     1     109.819 127.128 136.560  0.00  0.00    +0.000 A 
ATOM     15  C   UNL     1     110.632 126.855 136.489  0.00  0.00    +0.000 A 
ATOM     16  C   UNL     1     109.360 126.912 137.253  0.00  0.00    +0.000 A 
ATOM     17  C   UNL     1     110.972 126.371 137.111  0.00  0.00    +0.000 A 
ATOM     18  C   UNL     1     110.530 126.164 137.776  0.00  0.00    +0.000 A 
ATOM     19  C   UNL     1     109.717 126.427 137.865  0.00  0.00    +0.000 A 
ATOM     20  C   UNL     1     110.868 125.698 138.368  0.00  0.00    +0.000 A 
ATOM     21  C   UNL     1     112.090 125.647 137.629  0.00  0.00    +0.000 A 
ATOM     22  C   UNL     1     111.648 125.440 138.294  0.00  0.00    +0.000 A 
BRANCH  21  24
ATOM     23  O   UNL     1     115.210 124.613 137.335  0.00  0.00    +0.000 OA
ATOM     24  C   UNL     1     112.870 125.388 137.555  0.00  0.00    +0.000 A 
ATOM     25  C   UNL     1     113.044 124.726 137.095  0.00  0.00    +0.000 A 
ATOM     26  C   UNL     1     113.477 125.793 137.942  0.00  0.00    +0.000 A 
ATOM     27  C   UNL     1     113.823 124.468 137.022  0.00  0.00    +0.000 A 
ATOM     28  C   UNL     1     114.257 125.534 137.869  0.00  0.00    +0.000 A 
ATOM     29  C   UNL     1     114.430 124.872 137.408  0.00  0.00    +0.000 A 
ENDBRANCH  21  24
ENDBRANCH  10  14
ENDBRANCH   9  10
BRANCH   7  30
ATOM     30  C   UNL     1     110.592 130.122 136.706  0.00  0.00    +0.000 C 
BRANCH  30  31
ATOM     31  O   UNL     1     111.153 129.794 137.214  0.00  0.00    +0.000 OA
BRANCH  31  33
ATOM     32  O   UNL     1     112.176 130.745 136.913  0.00  0.00    +0.000 OA
ATOM     33  C   UNL     1     111.807 130.238 137.449  0.00  0.00    +0.000 C 
BRANCH  33  34
ATOM     34  C   UNL     1     112.094 130.175 138.220  0.00  0.00    +0.000 C 
BRANCH  34  36
ATOM     35  O   UNL     1     112.872 131.008 138.465  0.00  0.00    +0.000 OA
ATOM     36  C   UNL     1     112.906 130.191 138.362  0.00  0.00    +0.000 C 
ATOM     37  C   UNL     1     112.940 129.373 138.258  0.00  0.00    +0.000 C 
BRANCH  36  38
ATOM     38  C   UNL     1     113.719 130.206 138.503  0.00  0.00    +0.000 C 
BRANCH  38  41
ATOM     39  O   UNL     1     114.331 130.980 139.537  0.00  0.00    +0.000 OA
ATOM     40  O   UNL     1     113.952 129.624 139.787  0.00  0.00    +0.000 OA
ATOM     41  C   UNL     1     114.001 130.269 139.276  0.00  0.00    +0.000 C 
ENDBRANCH  38  41
ENDBRANCH  36  38
ENDBRANCH  34  36
ENDBRANCH  33  34
ENDBRANCH  31  33
ENDBRANCH  30  31
ENDBRANCH   7  30
TORSDOF 10
ENDMDL
MODEL 3
REMARK VINA RESULT:      -9.2      6.855      9.176
REMARK  Name = 44257857
REMARK  10 active torsions:
REMARK  status: ('A' for Active; 'I' for Inactive)
REMARK    1  A    between atoms: O_4  and  C_19
REMARK    2  A    between atoms: O_4  and  C_22
REMARK    3  A    between atoms: O_6  and  C_20
REMARK    4  A    between atoms: O_6  and  C_24
REMARK    5  A    between atoms: C_17  and  C_20
REMARK    6  A    between atoms: C_21  and  C_23
REMARK    7  A    between atoms: C_21  and  C_25
REMARK    8  A    between atoms: C_23  and  C_24
REMARK    9  A    between atoms: C_25  and  C_32
REMARK   10  A    between atoms: C_34  and  C_36
REMARK                            x       y       z     vdW  Elec       q    Type
REMARK                         _______ _______ _______ _____ _____    ______ ____
ROOT
ATOM      1  O   UNL     1     106.861 126.530 141.252  0.00  0.00    +0.000 OA
ATOM      2  O   UNL     1     107.838 127.753 142.774  0.00  0.00    +0.000 OA
ATOM      3  O   UNL     1     109.124 126.905 142.182  0.00  0.00    +0.000 OA
ATOM      4  O   UNL     1     108.902 125.808 140.971  0.00  0.00    +0.000 OA
ATOM      5  C   UNL     1     107.726 127.204 142.168  0.00  0.00    +0.000 C 
ATOM      6  C   UNL     1     108.370 126.780 141.872  0.00  0.00    +0.000 C 
ATOM      7  C   UNL     1     106.972 127.079 141.857  0.00  0.00    +0.000 C 
ATOM      8  C   UNL     1     108.258 126.231 141.266  0.00  0.00    +0.000 C 
ATOM      9  C   UNL     1     107.504 126.106 140.956  0.00  0.00    +0.000 C 
ENDROOT
BRANCH   9  10
ATOM     10  O   UNL     1     107.393 125.558 140.350  0.00  0.00    +0.000 OA
BRANCH  10  14
ATOM     11  O   UNL     1     105.020 124.315 139.207  0.00  0.00    +0.000 OA
ATOM     12  O   UNL     1     105.992 123.432 141.782  0.00  0.00    +0.000 OA
ATOM     13  O   UNL     1     104.819 122.840 141.184  0.00  0.00    +0.000 OA
ATOM     14  C   UNL     1     106.779 125.009 140.398  0.00  0.00    +0.000 A 
ATOM     15  C   UNL     1     106.204 124.946 139.762  0.00  0.00    +0.000 A 
ATOM     16  C   UNL     1     106.709 124.497 141.084  0.00  0.00    +0.000 A 
ATOM     17  C   UNL     1     105.568 124.371 139.821  0.00  0.00    +0.000 A 
ATOM     18  C   UNL     1     105.502 123.880 140.480  0.00  0.00    +0.000 A 
ATOM     19  C   UNL     1     106.066 123.928 141.125  0.00  0.00    +0.000 A 
ATOM     20  C   UNL     1     104.887 123.332 140.525  0.00  0.00    +0.000 A 
ATOM     21  C   UNL     1     104.405 123.767 139.252  0.00  0.00    +0.000 A 
ATOM     22  C   UNL     1     104.338 123.276 139.912  0.00  0.00    +0.000 A 
BRANCH  21  24
ATOM     23  O   UNL     1     102.210 123.542 136.798  0.00  0.00    +0.000 OA
ATOM     24  C   UNL     1     103.856 123.711 138.639  0.00  0.00    +0.000 A 
ATOM     25  C   UNL     1     104.088 123.415 137.904  0.00  0.00    +0.000 A 
ATOM     26  C   UNL     1     103.076 123.951 138.760  0.00  0.00    +0.000 A 
ATOM     27  C   UNL     1     103.539 123.359 137.291  0.00  0.00    +0.000 A 
ATOM     28  C   UNL     1     102.527 123.895 138.146  0.00  0.00    +0.000 A 
ATOM     29  C   UNL     1     102.759 123.599 137.412  0.00  0.00    +0.000 A 
ENDBRANCH  21  24
ENDBRANCH  10  14
ENDBRANCH   9  10
BRANCH   7  30
ATOM     30  C   UNL     1     106.329 127.503 142.154  0.00  0.00    +0.000 C 
BRANCH  30  31
ATOM     31  O   UNL     1     105.739 127.768 141.643  0.00  0.00    +0.000 OA
BRANCH  31  33
ATOM     32  O   UNL     1     104.630 127.730 142.544  0.00  0.00    +0.000 OA
ATOM     33  C   UNL     1     105.053 128.112 141.947  0.00  0.00    +0.000 C 
BRANCH  33  34
ATOM     34  C   UNL     1     104.790 128.837 141.655  0.00  0.00    +0.000 C 
BRANCH  34  36
ATOM     35  O   UNL     1     104.092 128.515 140.778  0.00  0.00    +0.000 OA
ATOM     36  C   UNL     1     103.992 128.945 141.475  0.00  0.00    +0.000 C 
ATOM     37  C   UNL     1     103.893 129.375 142.172  0.00  0.00    +0.000 C 
BRANCH  36  38
ATOM     38  C   UNL     1     103.195 129.053 141.295  0.00  0.00    +0.000 C 
BRANCH  38  41
ATOM     39  O   UNL     1     102.931 130.422 140.978  0.00  0.00    +0.000 OA
ATOM     40  O   UNL     1     102.786 129.414 139.974  0.00  0.00    +0.000 OA
ATOM     41  C   UNL     1     102.971 129.629 140.749  0.00  0.00    +0.000 C 
ENDBRANCH  38  41
ENDBRANCH  36  38
ENDBRANCH  34  36
ENDBRANCH  33  34
ENDBRANCH  31  33
ENDBRANCH  30  31
ENDBRANCH   7  30
TORSDOF 10
ENDMDL
MODEL 4
REMARK VINA RESULT:      -9.0      1.618      4.011
REMARK  Name = 44257857
REMARK  10 active torsions:
REMARK  status: ('A' for Active; 'I' for Inactive)
REMARK    1  A    between atoms: O_4  and  C_19
REMARK    2  A    between atoms: O_4  and  C_22
REMARK    3  A    between atoms: O_6  and  C_20
REMARK    4  A    between atoms: O_6  and  C_24
REMARK    5  A    between atoms: C_17  and  C_20
REMARK    6  A    between atoms: C_21  and  C_23
REMARK    7  A    between atoms: C_21  and  C_25
REMARK    8  A    between atoms: C_23  and  C_24
REMARK    9  A    between atoms: C_25  and  C_32
REMARK   10  A    between atoms: C_34  and  C_36
REMARK                            x       y       z     vdW  Elec       q    Type
REMARK                         _______ _______ _______ _____ _____    ______ ____
ROOT
ATOM      1  O   UNL     1     110.127 128.232 135.338  0.00  0.00    +0.000 OA
ATOM      2  O   UNL     1     108.207 127.383 135.933  0.00  0.00    +0.000 OA
ATOM      3  O   UNL     1     107.854 128.995 135.950  0.00  0.00    +0.000 OA
ATOM      4  O   UNL     1     109.017 130.098 135.559  0.00  0.00    +0.000 OA
ATOM      5  C   UNL     1     108.789 127.935 135.737  0.00  0.00    +0.000 C 
ATOM      6  C   UNL     1     108.612 128.740 135.746  0.00  0.00    +0.000 C 
ATOM      7  C   UNL     1     109.547 127.680 135.533  0.00  0.00    +0.000 C 
ATOM      8  C   UNL     1     109.194 129.292 135.550  0.00  0.00    +0.000 C 
ATOM      9  C   UNL     1     109.952 129.038 135.346  0.00  0.00    +0.000 C 
ENDROOT
BRANCH   9  10
ATOM     10  O   UNL     1     110.533 129.589 135.150  0.00  0.00    +0.000 OA
BRANCH  10  14
ATOM     11  O   UNL     1     112.525 129.658 137.274  0.00  0.00    +0.000 OA
ATOM     12  O   UNL     1     113.306 128.845 134.613  0.00  0.00    +0.000 OA
ATOM     13  O   UNL     1     114.266 128.891 135.689  0.00  0.00    +0.000 OA
ATOM     14  C   UNL     1     111.309 129.479 135.407  0.00  0.00    +0.000 A 
ATOM     15  C   UNL     1     111.519 129.630 136.227  0.00  0.00    +0.000 A 
ATOM     16  C   UNL     1     111.913 129.213 134.858  0.00  0.00    +0.000 A 
ATOM     17  C   UNL     1     112.330 129.512 136.486  0.00  0.00    +0.000 A 
ATOM     18  C   UNL     1     112.909 129.256 135.957  0.00  0.00    +0.000 A 
ATOM     19  C   UNL     1     112.719 129.101 135.135  0.00  0.00    +0.000 A 
ATOM     20  C   UNL     1     113.685 129.147 136.217  0.00  0.00    +0.000 A 
ATOM     21  C   UNL     1     113.301 129.549 137.534  0.00  0.00    +0.000 A 
ATOM     22  C   UNL     1     113.881 129.293 137.005  0.00  0.00    +0.000 A 
BRANCH  21  24
ATOM     23  O   UNL     1     114.083 130.133 140.686  0.00  0.00    +0.000 OA
ATOM     24  C   UNL     1     113.496 129.695 138.322  0.00  0.00    +0.000 A 
ATOM     25  C   UNL     1     113.874 130.399 138.529  0.00  0.00    +0.000 A 
ATOM     26  C   UNL     1     113.315 129.137 138.902  0.00  0.00    +0.000 A 
ATOM     27  C   UNL     1     114.069 130.544 139.317  0.00  0.00    +0.000 A 
ATOM     28  C   UNL     1     113.510 129.283 139.690  0.00  0.00    +0.000 A 
ATOM     29  C   UNL     1     113.887 129.987 139.898  0.00  0.00    +0.000 A 
ENDBRANCH  21  24
ENDBRANCH  10  14
ENDBRANCH   9  10
BRANCH   7  30
ATOM     30  C   UNL     1     109.722 126.874 135.525  0.00  0.00    +0.000 C 
BRANCH  30  31
ATOM     31  O   UNL     1     110.384 126.592 135.927  0.00  0.00    +0.000 OA
BRANCH  31  33
ATOM     32  O   UNL     1     110.496 125.426 135.108  0.00  0.00    +0.000 OA
ATOM     33  C   UNL     1     110.625 125.809 135.828  0.00  0.00    +0.000 C 
BRANCH  33  34
ATOM     34  C   UNL     1     110.994 125.408 136.447  0.00  0.00    +0.000 C 
BRANCH  34  36
ATOM     35  O   UNL     1     111.199 124.310 136.113  0.00  0.00    +0.000 OA
ATOM     36  C   UNL     1     111.670 124.959 136.304  0.00  0.00    +0.000 C 
ATOM     37  C   UNL     1     112.142 125.609 136.495  0.00  0.00    +0.000 C 
BRANCH  36  38
ATOM     38  C   UNL     1     112.348 124.510 136.161  0.00  0.00    +0.000 C 
BRANCH  38  41
ATOM     39  O   UNL     1     113.344 124.387 137.178  0.00  0.00    +0.000 OA
ATOM     40  O   UNL     1     112.388 123.342 136.984  0.00  0.00    +0.000 OA
ATOM     41  C   UNL     1     112.693 124.080 136.774  0.00  0.00    +0.000 C 
ENDBRANCH  38  41
ENDBRANCH  36  38
ENDBRANCH  34  36
ENDBRANCH  33  34
ENDBRANCH  31  33
ENDBRANCH  30  31
ENDBRANCH   7  30
TORSDOF 10
ENDMDL
MODEL 5
REMARK VINA RESULT:      -9.0      1.711      2.358
REMARK  Name = 44257857
REMARK  10 active torsions:
REMARK  status: ('A' for Active; 'I' for Inactive)
REMARK    1  A    between atoms: O_4  and  C_19
REMARK    2  A    between atoms: O_4  and  C_22
REMARK    3  A    between atoms: O_6  and  C_20
REMARK    4  A    between atoms: O_6  and  C_24
REMARK    5  A    between atoms: C_17  and  C_20
REMARK    6  A    between atoms: C_21  and  C_23
REMARK    7  A    between atoms: C_21  and  C_25
REMARK    8  A    between atoms: C_23  and  C_24
REMARK    9  A    between atoms: C_25  and  C_32
REMARK   10  A    between atoms: C_34  and  C_36
REMARK                            x       y       z     vdW  Elec       q    Type
REMARK                         _______ _______ _______ _____ _____    ______ ____
ROOT
ATOM      1  O   UNL     1     110.028 128.925 136.503  0.00  0.00    +0.000 OA
ATOM      2  O   UNL     1     108.506 130.264 137.312  0.00  0.00    +0.000 OA
ATOM      3  O   UNL     1     108.280 130.477 135.691  0.00  0.00    +0.000 OA
ATOM      4  O   UNL     1     109.219 129.654 134.612  0.00  0.00    +0.000 OA
ATOM      5  C   UNL     1     108.976 129.853 136.772  0.00  0.00    +0.000 C 
ATOM      6  C   UNL     1     108.862 129.959 135.962  0.00  0.00    +0.000 C 
ATOM      7  C   UNL     1     109.559 129.335 137.043  0.00  0.00    +0.000 C 
ATOM      8  C   UNL     1     109.332 129.548 135.422  0.00  0.00    +0.000 C 
ATOM      9  C   UNL     1     109.915 129.030 135.693  0.00  0.00    +0.000 C 
ENDROOT
BRANCH   9  10
ATOM     10  O   UNL     1     110.384 128.620 135.154  0.00  0.00    +0.000 OA
BRANCH  10  14
ATOM     11  O   UNL     1     112.149 126.508 136.109  0.00  0.00    +0.000 OA
ATOM     12  O   UNL     1     109.604 125.814 134.927  0.00  0.00    +0.000 OA
ATOM     13  O   UNL     1     110.504 124.794 135.411  0.00  0.00    +0.000 OA
ATOM     14  C   UNL     1     110.543 127.819 135.272  0.00  0.00    +0.000 A 
ATOM     15  C   UNL     1     111.282 127.573 135.638  0.00  0.00    +0.000 A 
ATOM     16  C   UNL     1     109.973 127.224 135.030  0.00  0.00    +0.000 A 
ATOM     17  C   UNL     1     111.439 126.737 135.757  0.00  0.00    +0.000 A 
ATOM     18  C   UNL     1     110.890 126.166 135.524  0.00  0.00    +0.000 A 
ATOM     19  C   UNL     1     110.148 126.392 135.157  0.00  0.00    +0.000 A 
ATOM     20  C   UNL     1     111.052 125.366 135.644  0.00  0.00    +0.000 A 
ATOM     21  C   UNL     1     112.311 125.708 136.228  0.00  0.00    +0.000 A 
ATOM     22  C   UNL     1     111.762 125.137 135.996  0.00  0.00    +0.000 A 
BRANCH  21  24
ATOM     23  O   UNL     1     115.151 124.791 137.635  0.00  0.00    +0.000 OA
ATOM     24  C   UNL     1     113.021 125.478 136.580  0.00  0.00    +0.000 A 
ATOM     25  C   UNL     1     113.067 124.762 136.987  0.00  0.00    +0.000 A 
ATOM     26  C   UNL     1     113.685 125.966 136.524  0.00  0.00    +0.000 A 
ATOM     27  C   UNL     1     113.777 124.534 137.338  0.00  0.00    +0.000 A 
ATOM     28  C   UNL     1     114.395 125.737 136.876  0.00  0.00    +0.000 A 
ATOM     29  C   UNL     1     114.441 125.020 137.283  0.00  0.00    +0.000 A 
ENDBRANCH  21  24
ENDBRANCH  10  14
ENDBRANCH   9  10
BRANCH   7  30
ATOM     30  C   UNL     1     109.672 129.230 137.853  0.00  0.00    +0.000 C 
BRANCH  30  31
ATOM     31  O   UNL     1     110.404 128.982 138.139  0.00  0.00    +0.000 OA
BRANCH  31  33
ATOM     32  O   UNL     1     110.266 129.146 139.552  0.00  0.00    +0.000 OA
ATOM     33  C   UNL     1     110.468 128.678 138.904  0.00  0.00    +0.000 C 
BRANCH  33  34
ATOM     34  C   UNL     1     110.734 127.906 139.020  0.00  0.00    +0.000 C 
BRANCH  34  36
ATOM     35  O   UNL     1     111.884 128.092 139.084  0.00  0.00    +0.000 OA
ATOM     36  C   UNL     1     111.321 127.751 139.579  0.00  0.00    +0.000 C 
ATOM     37  C   UNL     1     110.756 127.409 140.075  0.00  0.00    +0.000 C 
BRANCH  36  38
ATOM     38  C   UNL     1     111.906 127.595 140.139  0.00  0.00    +0.000 C 
BRANCH  38  41
ATOM     39  O   UNL     1     113.209 127.088 139.844  0.00  0.00    +0.000 OA
ATOM     40  O   UNL     1     112.135 126.184 140.115  0.00  0.00    +0.000 OA
ATOM     41  C   UNL     1     112.416 126.955 140.033  0.00  0.00    +0.000 C 
ENDBRANCH  38  41
ENDBRANCH  36  38
ENDBRANCH  34  36
ENDBRANCH  33  34
ENDBRANCH  31  33
ENDBRANCH  30  31
ENDBRANCH   7  30
TORSDOF 10
ENDMDL
MODEL 6
REMARK VINA RESULT:      -8.9      1.982      4.338
REMARK  Name = 44257857
REMARK  10 active torsions:
REMARK  status: ('A' for Active; 'I' for Inactive)
REMARK    1  A    between atoms: O_4  and  C_19
REMARK    2  A    between atoms: O_4  and  C_22
REMARK    3  A    between atoms: O_6  and  C_20
REMARK    4  A    between atoms: O_6  and  C_24
REMARK    5  A    between atoms: C_17  and  C_20
REMARK    6  A    between atoms: C_21  and  C_23
REMARK    7  A    between atoms: C_21  and  C_25
REMARK    8  A    between atoms: C_23  and  C_24
REMARK    9  A    between atoms: C_25  and  C_32
REMARK   10  A    between atoms: C_34  and  C_36
REMARK                            x       y       z     vdW  Elec       q    Type
REMARK                         _______ _______ _______ _____ _____    ______ ____
ROOT
ATOM      1  O   UNL     1     112.825 128.860 140.588  0.00  0.00    +0.000 OA
ATOM      2  O   UNL     1     112.441 130.886 141.301  0.00  0.00    +0.000 OA
ATOM      3  O   UNL     1     112.135 130.012 142.667  0.00  0.00    +0.000 OA
ATOM      4  O   UNL     1     112.289 128.369 142.646  0.00  0.00    +0.000 OA
ATOM      5  C   UNL     1     112.518 130.064 141.291  0.00  0.00    +0.000 C 
ATOM      6  C   UNL     1     112.365 129.628 141.974  0.00  0.00    +0.000 C 
ATOM      7  C   UNL     1     112.748 129.680 140.598  0.00  0.00    +0.000 C 
ATOM      8  C   UNL     1     112.442 128.806 141.963  0.00  0.00    +0.000 C 
ATOM      9  C   UNL     1     112.672 128.422 141.270  0.00  0.00    +0.000 C 
ENDROOT
BRANCH   9  10
ATOM     10  O   UNL     1     112.749 127.601 141.260  0.00  0.00    +0.000 OA
BRANCH  10  14
ATOM     11  O   UNL     1     113.433 126.304 138.743  0.00  0.00    +0.000 OA
ATOM     12  O   UNL     1     110.694 126.275 139.662  0.00  0.00    +0.000 OA
ATOM     13  O   UNL     1     111.070 125.644 138.421  0.00  0.00    +0.000 OA
ATOM     14  C   UNL     1     112.524 127.174 140.590  0.00  0.00    +0.000 A 
ATOM     15  C   UNL     1     113.110 126.956 140.000  0.00  0.00    +0.000 A 
ATOM     16  C   UNL     1     111.704 126.944 140.478  0.00  0.00    +0.000 A 
ATOM     17  C   UNL     1     112.867 126.511 139.306  0.00  0.00    +0.000 A 
ATOM     18  C   UNL     1     112.079 126.291 139.199  0.00  0.00    +0.000 A 
ATOM     19  C   UNL     1     111.480 126.500 139.778  0.00  0.00    +0.000 A 
ATOM     20  C   UNL     1     111.858 125.864 138.529  0.00  0.00    +0.000 A 
ATOM     21  C   UNL     1     113.212 125.878 138.072  0.00  0.00    +0.000 A 
ATOM     22  C   UNL     1     112.424 125.658 137.965  0.00  0.00    +0.000 A 
BRANCH  21  24
ATOM     23  O   UNL     1     115.477 125.050 135.820  0.00  0.00    +0.000 OA
ATOM     24  C   UNL     1     113.778 125.671 137.509  0.00  0.00    +0.000 A 
ATOM     25  C   UNL     1     113.911 126.161 136.859  0.00  0.00    +0.000 A 
ATOM     26  C   UNL     1     114.212 124.974 137.597  0.00  0.00    +0.000 A 
ATOM     27  C   UNL     1     114.478 125.954 136.296  0.00  0.00    +0.000 A 
ATOM     28  C   UNL     1     114.778 124.767 137.034  0.00  0.00    +0.000 A 
ATOM     29  C   UNL     1     114.911 125.257 136.383  0.00  0.00    +0.000 A 
ENDBRANCH  21  24
ENDBRANCH  10  14
ENDBRANCH   9  10
BRANCH   7  30
ATOM     30  C   UNL     1     112.901 130.118 139.915  0.00  0.00    +0.000 C 
BRANCH  30  31
ATOM     31  O   UNL     1     112.531 129.920 139.206  0.00  0.00    +0.000 OA
BRANCH  31  33
ATOM     32  O   UNL     1     112.882 131.049 138.403  0.00  0.00    +0.000 OA
ATOM     33  C   UNL     1     112.808 130.232 138.494  0.00  0.00    +0.000 C 
BRANCH  33  34
ATOM     34  C   UNL     1     113.011 129.729 137.873  0.00  0.00    +0.000 C 
BRANCH  34  36
ATOM     35  O   UNL     1     111.956 129.411 137.490  0.00  0.00    +0.000 OA
ATOM     36  C   UNL     1     112.612 129.779 137.153  0.00  0.00    +0.000 C 
ATOM     37  C   UNL     1     113.270 130.147 136.815  0.00  0.00    +0.000 C 
BRANCH  36  38
ATOM     38  C   UNL     1     112.215 129.829 136.432  0.00  0.00    +0.000 C 
BRANCH  38  41
ATOM     39  O   UNL     1     111.642 128.603 135.974  0.00  0.00    +0.000 OA
ATOM     40  O   UNL     1     112.805 129.132 135.333  0.00  0.00    +0.000 OA
ATOM     41  C   UNL     1     112.221 129.188 135.913  0.00  0.00    +0.000 C 
ENDBRANCH  38  41
ENDBRANCH  36  38
ENDBRANCH  34  36
ENDBRANCH  33  34
ENDBRANCH  31  33
ENDBRANCH  30  31
ENDBRANCH   7  30
TORSDOF 10
ENDMDL
MODEL 7
REMARK VINA RESULT:      -8.8      1.879      4.739
REMARK  Name = 44257857
REMARK  10 active torsions:
REMARK  status: ('A' for Active; 'I' for Inactive)
REMARK    1  A    between atoms: O_4  and  C_19
REMARK    2  A    between atoms: O_4  and  C_22
REMARK    3  A    between atoms: O_6  and  C_20
REMARK    4  A    between atoms: O_6  and  C_24
REMARK    5  A    between atoms: C_17  and  C_20
REMARK    6  A    between atoms: C_21  and  C_23
REMARK    7  A    between atoms: C_21  and  C_25
REMARK    8  A    between atoms: C_23  and  C_24
REMARK    9  A    between atoms: C_25  and  C_32
REMARK   10  A    between atoms: C_34  and  C_36
REMARK                            x       y       z     vdW  Elec       q    Type
REMARK                         _______ _______ _______ _____ _____    ______ ____
ROOT
ATOM      1  O   UNL     1     111.359 127.120 136.213  0.00  0.00    +0.000 OA
ATOM      2  O   UNL     1     111.859 125.176 137.072  0.00  0.00    +0.000 OA
ATOM      3  O   UNL     1     111.119 124.717 135.670  0.00  0.00    +0.000 OA
ATOM      4  O   UNL     1     110.540 125.859 134.630  0.00  0.00    +0.000 OA
ATOM      5  C   UNL     1     111.569 125.748 136.551  0.00  0.00    +0.000 C 
ATOM      6  C   UNL     1     111.199 125.518 135.851  0.00  0.00    +0.000 C 
ATOM      7  C   UNL     1     111.649 126.549 136.732  0.00  0.00    +0.000 C 
ATOM      8  C   UNL     1     110.909 126.090 135.331  0.00  0.00    +0.000 C 
ATOM      9  C   UNL     1     110.989 126.891 135.511  0.00  0.00    +0.000 C 
ENDROOT
BRANCH   9  10
ATOM     10  O   UNL     1     110.700 127.461 134.992  0.00  0.00    +0.000 OA
BRANCH  10  14
ATOM     11  O   UNL     1     110.187 130.182 135.897  0.00  0.00    +0.000 OA
ATOM     12  O   UNL     1     108.005 128.292 135.754  0.00  0.00    +0.000 OA
ATOM     13  O   UNL     1     107.788 129.648 136.197  0.00  0.00    +0.000 OA
ATOM     14  C   UNL     1     110.177 128.039 135.263  0.00  0.00    +0.000 A 
ATOM     15  C   UNL     1     110.461 128.830 135.443  0.00  0.00    +0.000 A 
ATOM     16  C   UNL     1     109.344 127.854 135.368  0.00  0.00    +0.000 A 
ATOM     17  C   UNL     1     109.908 129.425 135.725  0.00  0.00    +0.000 A 
ATOM     18  C   UNL     1     109.109 129.246 135.825  0.00  0.00    +0.000 A 
ATOM     19  C   UNL     1     108.807 128.461 135.651  0.00  0.00    +0.000 A 
ATOM     20  C   UNL     1     108.588 129.825 136.097  0.00  0.00    +0.000 A 
ATOM     21  C   UNL     1     109.666 130.761 136.168  0.00  0.00    +0.000 A 
ATOM     22  C   UNL     1     108.866 130.583 136.268  0.00  0.00    +0.000 A 
BRANCH  21  24
ATOM     23  O   UNL     1     110.778 133.792 136.853  0.00  0.00    +0.000 OA
ATOM     24  C   UNL     1     109.944 131.519 136.339  0.00  0.00    +0.000 A 
ATOM     25  C   UNL     1     110.499 131.629 136.940  0.00  0.00    +0.000 A 
ATOM     26  C   UNL     1     109.666 132.167 135.910  0.00  0.00    +0.000 A 
ATOM     27  C   UNL     1     110.777 132.386 137.110  0.00  0.00    +0.000 A 
ATOM     28  C   UNL     1     109.944 132.924 136.081  0.00  0.00    +0.000 A 
ATOM     29  C   UNL     1     110.500 133.034 136.681  0.00  0.00    +0.000 A 
ENDBRANCH  21  24
ENDBRANCH  10  14
ENDBRANCH   9  10
BRANCH   7  30
ATOM     30  C   UNL     1     112.019 126.778 137.433  0.00  0.00    +0.000 C 
BRANCH  30  31
ATOM     31  O   UNL     1     112.337 127.535 137.504  0.00  0.00    +0.000 OA
BRANCH  31  33
ATOM     32  O   UNL     1     113.099 127.331 138.695  0.00  0.00    +0.000 OA
ATOM     33  C   UNL     1     112.603 127.805 138.237  0.00  0.00    +0.000 C 
BRANCH  33  34
ATOM     34  C   UNL     1     112.373 128.547 138.512  0.00  0.00    +0.000 C 
BRANCH  34  36
ATOM     35  O   UNL     1     113.069 129.327 137.992  0.00  0.00    +0.000 OA
ATOM     36  C   UNL     1     112.942 129.087 138.771  0.00  0.00    +0.000 C 
ATOM     37  C   UNL     1     112.814 128.846 139.550  0.00  0.00    +0.000 C 
BRANCH  36  38
ATOM     38  C   UNL     1     113.510 129.625 139.030  0.00  0.00    +0.000 C 
BRANCH  38  41
ATOM     39  O   UNL     1     113.715 130.933 138.493  0.00  0.00    +0.000 OA
ATOM     40  O   UNL     1     112.798 130.740 139.572  0.00  0.00    +0.000 OA
ATOM     41  C   UNL     1     113.341 130.433 139.032  0.00  0.00    +0.000 C 
ENDBRANCH  38  41
ENDBRANCH  36  38
ENDBRANCH  34  36
ENDBRANCH  33  34
ENDBRANCH  31  33
ENDBRANCH  30  31
ENDBRANCH   7  30
TORSDOF 10
ENDMDL
MODEL 8
REMARK VINA RESULT:      -8.8      1.685      5.126
REMARK  Name = 44257857
REMARK  10 active torsions:
REMARK  status: ('A' for Active; 'I' for Inactive)
REMARK    1  A    between atoms: O_4  and  C_19
REMARK    2  A    between atoms: O_4  and  C_22
REMARK    3  A    between atoms: O_6  and  C_20
REMARK    4  A    between atoms: O_6  and  C_24
REMARK    5  A    between atoms: C_17  and  C_20
REMARK    6  A    between atoms: C_21  and  C_23
REMARK    7  A    between atoms: C_21  and  C_25
REMARK    8  A    between atoms: C_23  and  C_24
REMARK    9  A    between atoms: C_25  and  C_32
REMARK   10  A    between atoms: C_34  and  C_36
REMARK                            x       y       z     vdW  Elec       q    Type
REMARK                         _______ _______ _______ _____ _____    ______ ____
ROOT
ATOM      1  O   UNL     1     112.552 125.626 136.270  0.00  0.00    +0.000 OA
ATOM      2  O   UNL     1     111.717 123.630 136.558  0.00  0.00    +0.000 OA
ATOM      3  O   UNL     1     113.209 123.444 137.236  0.00  0.00    +0.000 OA
ATOM      4  O   UNL     1     114.264 124.713 137.271  0.00  0.00    +0.000 OA
ATOM      5  C   UNL     1     112.244 124.265 136.575  0.00  0.00    +0.000 C 
ATOM      6  C   UNL     1     112.990 124.171 136.914  0.00  0.00    +0.000 C 
ATOM      7  C   UNL     1     112.025 124.992 136.253  0.00  0.00    +0.000 C 
ATOM      8  C   UNL     1     113.518 124.806 136.931  0.00  0.00    +0.000 C 
ATOM      9  C   UNL     1     113.299 125.534 136.609  0.00  0.00    +0.000 C 
ENDROOT
BRANCH   9  10
ATOM     10  O   UNL     1     113.826 126.167 136.627  0.00  0.00    +0.000 OA
BRANCH  10  14
ATOM     11  O   UNL     1     112.735 128.331 138.244  0.00  0.00    +0.000 OA
ATOM     12  O   UNL     1     113.165 128.742 135.416  0.00  0.00    +0.000 OA
ATOM     13  O   UNL     1     112.626 129.791 136.248  0.00  0.00    +0.000 OA
ATOM     14  C   UNL     1     113.541 126.939 136.692  0.00  0.00    +0.000 A 
ATOM     15  C   UNL     1     113.279 127.241 137.453  0.00  0.00    +0.000 A 
ATOM     16  C   UNL     1     113.503 127.446 135.999  0.00  0.00    +0.000 A 
ATOM     17  C   UNL     1     112.984 128.046 137.511  0.00  0.00    +0.000 A 
ATOM     18  C   UNL     1     112.948 128.532 136.845  0.00  0.00    +0.000 A 
ATOM     19  C   UNL     1     113.204 128.248 136.077  0.00  0.00    +0.000 A 
ATOM     20  C   UNL     1     112.663 129.303 136.913  0.00  0.00    +0.000 A 
ATOM     21  C   UNL     1     112.449 129.102 138.312  0.00  0.00    +0.000 A 
ATOM     22  C   UNL     1     112.413 129.588 137.646  0.00  0.00    +0.000 A 
BRANCH  21  24
ATOM     23  O   UNL     1     111.452 130.240 141.244  0.00  0.00    +0.000 OA
ATOM     24  C   UNL     1     112.200 129.386 139.045  0.00  0.00    +0.000 A 
ATOM     25  C   UNL     1     112.737 129.765 139.545  0.00  0.00    +0.000 A 
ATOM     26  C   UNL     1     111.414 129.292 139.278  0.00  0.00    +0.000 A 
ATOM     27  C   UNL     1     112.487 130.049 140.277  0.00  0.00    +0.000 A 
ATOM     28  C   UNL     1     111.165 129.577 140.011  0.00  0.00    +0.000 A 
ATOM     29  C   UNL     1     111.701 129.955 140.511  0.00  0.00    +0.000 A 
ENDBRANCH  21  24
ENDBRANCH  10  14
ENDBRANCH   9  10
BRANCH   7  30
ATOM     30  C   UNL     1     111.279 125.084 135.913  0.00  0.00    +0.000 C 
BRANCH  30  31
ATOM     31  O   UNL     1     110.802 125.721 136.131  0.00  0.00    +0.000 OA
BRANCH  31  33
ATOM     32  O   UNL     1     110.153 125.730 134.858  0.00  0.00    +0.000 OA
ATOM     33  C   UNL     1     110.165 125.942 135.655  0.00  0.00    +0.000 C 
BRANCH  33  34
ATOM     34  C   UNL     1     109.541 126.374 135.976  0.00  0.00    +0.000 C 
BRANCH  34  36
ATOM     35  O   UNL     1     109.708 127.295 136.673  0.00  0.00    +0.000 OA
ATOM     36  C   UNL     1     109.512 127.193 135.878  0.00  0.00    +0.000 C 
ATOM     37  C   UNL     1     109.316 127.091 135.083  0.00  0.00    +0.000 C 
BRANCH  36  38
ATOM     38  C   UNL     1     109.484 128.012 135.780  0.00  0.00    +0.000 C 
BRANCH  38  41
ATOM     39  O   UNL     1     109.017 128.853 136.836  0.00  0.00    +0.000 OA
ATOM     40  O   UNL     1     108.132 128.477 135.779  0.00  0.00    +0.000 OA
ATOM     41  C   UNL     1     108.878 128.447 136.131  0.00  0.00    +0.000 C 
ENDBRANCH  38  41
ENDBRANCH  36  38
ENDBRANCH  34  36
ENDBRANCH  33  34
ENDBRANCH  31  33
ENDBRANCH  30  31
ENDBRANCH   7  30
TORSDOF 10
ENDMDL
MODEL 9
REMARK VINA RESULT:      -8.7      2.541      4.544
REMARK  Name = 44257857
REMARK  10 active torsions:
REMARK  status: ('A' for Active; 'I' for Inactive)
REMARK    1  A    between atoms: O_4  and  C_19
REMARK    2  A    between atoms: O_4  and  C_22
REMARK    3  A    between atoms: O_6  and  C_20
REMARK    4  A    between atoms: O_6  and  C_24
REMARK    5  A    between atoms: C_17  and  C_20
REMARK    6  A    between atoms: C_21  and  C_23
REMARK    7  A    between atoms: C_21  and  C_25
REMARK    8  A    between atoms: C_23  and  C_24
REMARK    9  A    between atoms: C_25  and  C_32
REMARK   10  A    between atoms: C_34  and  C_36
REMARK                            x       y       z     vdW  Elec       q    Type
REMARK                         _______ _______ _______ _____ _____    ______ ____
ROOT
ATOM      1  O   UNL     1     112.950 128.914 140.483  0.00  0.00    +0.000 OA
ATOM      2  O   UNL     1     112.625 129.988 142.355  0.00  0.00    +0.000 OA
ATOM      3  O   UNL     1     113.601 131.049 141.552  0.00  0.00    +0.000 OA
ATOM      4  O   UNL     1     114.142 130.687 140.036  0.00  0.00    +0.000 OA
ATOM      5  C   UNL     1     112.896 129.807 141.597  0.00  0.00    +0.000 C 
ATOM      6  C   UNL     1     113.384 130.337 141.196  0.00  0.00    +0.000 C 
ATOM      7  C   UNL     1     112.679 129.095 141.240  0.00  0.00    +0.000 C 
ATOM      8  C   UNL     1     113.655 130.156 140.437  0.00  0.00    +0.000 C 
ATOM      9  C   UNL     1     113.438 129.444 140.081  0.00  0.00    +0.000 C 
ENDROOT
BRANCH   9  10
ATOM     10  O   UNL     1     113.708 129.263 139.323  0.00  0.00    +0.000 OA
BRANCH  10  14
ATOM     11  O   UNL     1     112.639 126.938 137.933  0.00  0.00    +0.000 OA
ATOM     12  O   UNL     1     111.616 129.568 137.308  0.00  0.00    +0.000 OA
ATOM     13  O   UNL     1     111.110 128.394 136.639  0.00  0.00    +0.000 OA
ATOM     14  C   UNL     1     113.193 128.936 138.769  0.00  0.00    +0.000 A 
ATOM     15  C   UNL     1     113.183 128.086 138.636  0.00  0.00    +0.000 A 
ATOM     16  C   UNL     1     112.663 129.440 138.319  0.00  0.00    +0.000 A 
ATOM     17  C   UNL     1     112.643 127.754 138.056  0.00  0.00    +0.000 A 
ATOM     18  C   UNL     1     112.134 128.239 137.625  0.00  0.00    +0.000 A 
ATOM     19  C   UNL     1     112.130 129.090 137.744  0.00  0.00    +0.000 A 
ATOM     20  C   UNL     1     111.620 127.909 137.071  0.00  0.00    +0.000 A 
ATOM     21  C   UNL     1     112.124 126.608 137.379  0.00  0.00    +0.000 A 
ATOM     22  C   UNL     1     111.615 127.093 136.948  0.00  0.00    +0.000 A 
BRANCH  21  24
ATOM     23  O   UNL     1     112.104 123.345 136.886  0.00  0.00    +0.000 OA
ATOM     24  C   UNL     1     112.119 125.792 137.255  0.00  0.00    +0.000 A 
ATOM     25  C   UNL     1     112.615 125.458 136.686  0.00  0.00    +0.000 A 
ATOM     26  C   UNL     1     111.619 125.311 137.702  0.00  0.00    +0.000 A 
ATOM     27  C   UNL     1     112.609 124.642 136.564  0.00  0.00    +0.000 A 
ATOM     28  C   UNL     1     111.614 124.495 137.578  0.00  0.00    +0.000 A 
ATOM     29  C   UNL     1     112.109 124.161 137.009  0.00  0.00    +0.000 A 
ENDBRANCH  21  24
ENDBRANCH  10  14
ENDBRANCH   9  10
BRANCH   7  30
ATOM     30  C   UNL     1     112.191 128.565 141.642  0.00  0.00    +0.000 C 
BRANCH  30  31
ATOM     31  O   UNL     1     111.530 128.246 141.267  0.00  0.00    +0.000 OA
BRANCH  31  33
ATOM     32  O   UNL     1     110.924 127.606 142.392  0.00  0.00    +0.000 OA
ATOM     33  C   UNL     1     111.141 127.597 141.596  0.00  0.00    +0.000 C 
BRANCH  33  34
ATOM     34  C   UNL     1     110.969 126.939 141.130  0.00  0.00    +0.000 C 
BRANCH  34  36
ATOM     35  O   UNL     1     110.444 126.082 141.723  0.00  0.00    +0.000 OA
ATOM     36  C   UNL     1     110.210 126.613 141.138  0.00  0.00    +0.000 C 
ATOM     37  C   UNL     1     109.976 127.146 140.552  0.00  0.00    +0.000 C 
BRANCH  36  38
ATOM     38  C   UNL     1     109.452 126.289 141.145  0.00  0.00    +0.000 C 
BRANCH  38  41
ATOM     39  O   UNL     1     109.367 124.872 140.979  0.00  0.00    +0.000 OA
ATOM     40  O   UNL     1     109.021 125.741 139.898  0.00  0.00    +0.000 OA
ATOM     41  C   UNL     1     109.280 125.635 140.674  0.00  0.00    +0.000 C 
ENDBRANCH  38  41
ENDBRANCH  36  38
ENDBRANCH  34  36
ENDBRANCH  33  34
ENDBRANCH  31  33
ENDBRANCH  30  31
ENDBRANCH   7  30
TORSDOF 10
ENDMDL
MODEL 10
REMARK VINA RESULT:      -8.7      1.733      2.516
REMARK  Name = 44257857
REMARK  10 active torsions:
REMARK  status: ('A' for Active; 'I' for Inactive)
REMARK    1  A    between atoms: O_4  and  C_19
REMARK    2  A    between atoms: O_4  and  C_22
REMARK    3  A    between atoms: O_6  and  C_20
REMARK    4  A    between atoms: O_6  and  C_24
REMARK    5  A    between atoms: C_17  and  C_20
REMARK    6  A    between atoms: C_21  and  C_23
REMARK    7  A    between atoms: C_21  and  C_25
REMARK    8  A    between atoms: C_23  and  C_24
REMARK    9  A    between atoms: C_25  and  C_32
REMARK   10  A    between atoms: C_34  and  C_36
REMARK                            x       y       z     vdW  Elec       q    Type
REMARK                         _______ _______ _______ _____ _____    ______ ____
ROOT
ATOM      1  O   UNL     1     111.495 130.024 137.244  0.00  0.00    +0.000 OA
ATOM      2  O   UNL     1     111.305 132.109 137.863  0.00  0.00    +0.000 OA
ATOM      3  O   UNL     1     110.186 132.040 136.653  0.00  0.00    +0.000 OA
ATOM      4  O   UNL     1     109.940 130.627 135.837  0.00  0.00    +0.000 OA
ATOM      5  C   UNL     1     111.182 131.402 137.455  0.00  0.00    +0.000 C 
ATOM      6  C   UNL     1     110.623 131.368 136.850  0.00  0.00    +0.000 C 
ATOM      7  C   UNL     1     111.619 130.730 137.652  0.00  0.00    +0.000 C 
ATOM      8  C   UNL     1     110.500 130.661 136.442  0.00  0.00    +0.000 C 
ATOM      9  C   UNL     1     110.936 129.989 136.639  0.00  0.00    +0.000 C 
ENDROOT
BRANCH   9  10
ATOM     10  O   UNL     1     110.813 129.283 136.231  0.00  0.00    +0.000 OA
BRANCH  10  14
ATOM     11  O   UNL     1     112.250 126.876 137.022  0.00  0.00    +0.000 OA
ATOM     12  O   UNL     1     109.530 127.272 137.916  0.00  0.00    +0.000 OA
ATOM     13  O   UNL     1     110.273 126.092 138.288  0.00  0.00    +0.000 OA
ATOM     14  C   UNL     1     110.837 128.564 136.634  0.00  0.00    +0.000 A 
ATOM     15  C   UNL     1     111.548 128.082 136.618  0.00  0.00    +0.000 A 
ATOM     16  C   UNL     1     110.151 128.291 137.074  0.00  0.00    +0.000 A 
ATOM     17  C   UNL     1     111.564 127.335 137.041  0.00  0.00    +0.000 A 
ATOM     18  C   UNL     1     110.905 127.073 137.463  0.00  0.00    +0.000 A 
ATOM     19  C   UNL     1     110.185 127.541 137.491  0.00  0.00    +0.000 A 
ATOM     20  C   UNL     1     110.932 126.354 137.866  0.00  0.00    +0.000 A 
ATOM     21  C   UNL     1     112.276 126.157 137.424  0.00  0.00    +0.000 A 
ATOM     22  C   UNL     1     111.617 125.895 137.846  0.00  0.00    +0.000 A 
BRANCH  21  24
ATOM     23  O   UNL     1     115.019 124.324 137.347  0.00  0.00    +0.000 OA
ATOM     24  C   UNL     1     112.962 125.698 137.405  0.00  0.00    +0.000 A 
ATOM     25  C   UNL     1     113.008 125.045 136.903  0.00  0.00    +0.000 A 
ATOM     26  C   UNL     1     113.602 125.893 137.888  0.00  0.00    +0.000 A 
ATOM     27  C   UNL     1     113.694 124.588 136.884  0.00  0.00    +0.000 A 
ATOM     28  C   UNL     1     114.288 125.435 137.869  0.00  0.00    +0.000 A 
ATOM     29  C   UNL     1     114.334 124.782 137.367  0.00  0.00    +0.000 A 
ENDBRANCH  21  24
ENDBRANCH  10  14
ENDBRANCH   9  10
BRANCH   7  30
ATOM     30  C   UNL     1     112.178 130.765 138.258  0.00  0.00    +0.000 C 
BRANCH  30  31
ATOM     31  O   UNL     1     112.239 130.147 138.800  0.00  0.00    +0.000 OA
BRANCH  31  33
ATOM     32  O   UNL     1     113.073 130.775 139.775  0.00  0.00    +0.000 OA
ATOM     33  C   UNL     1     112.879 130.115 139.320  0.00  0.00    +0.000 C 
BRANCH  33  34
ATOM     34  C   UNL     1     113.325 129.425 139.384  0.00  0.00    +0.000 C 
BRANCH  34  36
ATOM     35  O   UNL     1     112.675 128.694 140.021  0.00  0.00    +0.000 OA
ATOM     36  C   UNL     1     113.410 129.055 140.117  0.00  0.00    +0.000 C 
ATOM     37  C   UNL     1     114.146 129.416 140.213  0.00  0.00    +0.000 C 
BRANCH  36  38
ATOM     38  C   UNL     1     113.497 128.686 140.850  0.00  0.00    +0.000 C 
BRANCH  38  41
ATOM     39  O   UNL     1     114.530 127.698 140.855  0.00  0.00    +0.000 OA
ATOM     40  O   UNL     1     113.160 127.301 140.956  0.00  0.00    +0.000 OA
ATOM     41  C   UNL     1     113.728 127.895 140.887  0.00  0.00    +0.000 C 
ENDBRANCH  38  41
ENDBRANCH  36  38
ENDBRANCH  34  36
ENDBRANCH  33  34
ENDBRANCH  31  33
ENDBRANCH  30  31
ENDBRANCH   7  30
TORSDOF 10
ENDMDL
