MODEL 1
REMARK VINA RESULT:      -7.8      0.000      0.000
REMARK  Name = 15736235
REMARK  7 active torsions:
REMARK  status: ('A' for Active; 'I' for Inactive)
REMARK    1  A    between atoms: O_2  and  C_13
REMARK    2  A    between atoms: O_2  and  C_25
REMARK    3  A    between atoms: O_3  and  C_16
REMARK    4  A    between atoms: O_4  and  C_17
REMARK    5  A    between atoms: O_8  and  C_24
REMARK    6  A    between atoms: C_12  and  C_19
REMARK    7  A    between atoms: C_25  and  C_27
REMARK                            x       y       z     vdW  Elec       q    Type
REMARK                         _______ _______ _______ _____ _____    ______ ____
ROOT
ATOM      1  O   UNL     1     112.878 127.766 136.694  0.00  0.00    +0.000 OA
ATOM      2  O   UNL     1     110.031 127.519 137.154  0.00  0.00    +0.000 OA
ATOM      3  O   UNL     1     111.796 125.435 137.997  0.00  0.00    +0.000 OA
ATOM      4  O   UNL     1     110.534 128.703 136.498  0.00  0.00    +0.000 OA
ATOM      5  C   UNL     1     111.438 127.639 136.928  0.00  0.00    +0.000 A 
ATOM      6  C   UNL     1     112.200 127.331 136.993  0.00  0.00    +0.000 A 
ATOM      7  C   UNL     1     112.760 128.532 136.322  0.00  0.00    +0.000 A 
ATOM      8  C   UNL     1     112.319 126.597 137.349  0.00  0.00    +0.000 A 
ATOM      9  C   UNL     1     111.300 128.402 136.559  0.00  0.00    +0.000 A 
ATOM     10  C   UNL     1     110.794 127.212 137.219  0.00  0.00    +0.000 A 
ATOM     11  C   UNL     1     111.966 128.852 136.254  0.00  0.00    +0.000 A 
ATOM     12  C   UNL     1     110.914 126.477 137.575  0.00  0.00    +0.000 A 
ATOM     13  C   UNL     1     111.677 126.170 137.640  0.00  0.00    +0.000 A 
ENDROOT
BRANCH   7  14
ATOM     14  C   UNL     1     113.405 128.957 136.031  0.00  0.00    +0.000 A 
ATOM     15  C   UNL     1     113.784 129.511 136.510  0.00  0.00    +0.000 A 
ATOM     16  C   UNL     1     113.671 128.827 135.261  0.00  0.00    +0.000 A 
ATOM     17  C   UNL     1     114.429 129.935 136.220  0.00  0.00    +0.000 A 
ATOM     18  C   UNL     1     114.316 129.251 134.970  0.00  0.00    +0.000 A 
ATOM     19  C   UNL     1     114.695 129.806 135.450  0.00  0.00    +0.000 A 
BRANCH  19  20
ATOM     20  O   UNL     1     115.340 130.230 135.160  0.00  0.00    +0.000 OA
ATOM     21  C   UNL     1     115.332 131.055 135.177  0.00  0.00    +0.000 C 
ENDBRANCH  19  20
ENDBRANCH   7  14
BRANCH  11  22
ATOM     22  O   UNL     1     111.843 129.587 135.898  0.00  0.00    +0.000 OA
ATOM     23  C   UNL     1     111.099 129.782 135.600  0.00  0.00    +0.000 C 
ENDBRANCH  11  22
BRANCH  12  24
ATOM     24  O   UNL     1     110.270 126.050 137.866  0.00  0.00    +0.000 OA
ATOM     25  C   UNL     1     110.067 126.105 138.664  0.00  0.00    +0.000 C 
ENDBRANCH  12  24
BRANCH   8  26
ATOM     26  O   UNL     1     113.082 126.289 137.414  0.00  0.00    +0.000 OA
BRANCH  26  28
ATOM     27  O   UNL     1     112.794 125.346 136.380  0.00  0.00    +0.000 OA
ATOM     28  C   UNL     1     113.331 125.690 136.905  0.00  0.00    +0.000 C 
BRANCH  28  29
ATOM     29  C   UNL     1     114.115 125.434 136.919  0.00  0.00    +0.000 C 
ATOM     30  C   UNL     1     114.482 125.271 137.639  0.00  0.00    +0.000 C 
ATOM     31  C   UNL     1     114.531 125.343 136.213  0.00  0.00    +0.000 C 
ATOM     32  C   UNL     1     115.316 125.087 136.227  0.00  0.00    +0.000 C 
ENDBRANCH  28  29
ENDBRANCH  26  28
ENDBRANCH   8  26
TORSDOF 7
ENDMDL
MODEL 2
REMARK VINA RESULT:      -7.8      2.402      3.677
REMARK  Name = 15736235
REMARK  7 active torsions:
REMARK  status: ('A' for Active; 'I' for Inactive)
REMARK    1  A    between atoms: O_2  and  C_13
REMARK    2  A    between atoms: O_2  and  C_25
REMARK    3  A    between atoms: O_3  and  C_16
REMARK    4  A    between atoms: O_4  and  C_17
REMARK    5  A    between atoms: O_8  and  C_24
REMARK    6  A    between atoms: C_12  and  C_19
REMARK    7  A    between atoms: C_25  and  C_27
REMARK                            x       y       z     vdW  Elec       q    Type
REMARK                         _______ _______ _______ _____ _____    ______ ____
ROOT
ATOM      1  O   UNL     1     112.985 127.266 138.664  0.00  0.00    +0.000 OA
ATOM      2  O   UNL     1     111.090 125.079 138.704  0.00  0.00    +0.000 OA
ATOM      3  O   UNL     1     112.521 125.679 136.304  0.00  0.00    +0.000 OA
ATOM      4  O   UNL     1     111.294 125.850 139.907  0.00  0.00    +0.000 OA
ATOM      5  C   UNL     1     112.027 126.159 138.682  0.00  0.00    +0.000 A 
ATOM      6  C   UNL     1     112.577 126.619 138.274  0.00  0.00    +0.000 A 
ATOM      7  C   UNL     1     112.818 127.438 139.489  0.00  0.00    +0.000 A 
ATOM      8  C   UNL     1     112.742 126.458 137.482  0.00  0.00    +0.000 A 
ATOM      9  C   UNL     1     111.846 126.315 139.507  0.00  0.00    +0.000 A 
ATOM     10  C   UNL     1     111.641 125.539 138.297  0.00  0.00    +0.000 A 
ATOM     11  C   UNL     1     112.244 126.959 139.914  0.00  0.00    +0.000 A 
ATOM     12  C   UNL     1     111.806 125.380 137.504  0.00  0.00    +0.000 A 
ATOM     13  C   UNL     1     112.357 125.839 137.097  0.00  0.00    +0.000 A 
ENDROOT
BRANCH   7  14
ATOM     14  C   UNL     1     113.205 128.058 139.872  0.00  0.00    +0.000 A 
ATOM     15  C   UNL     1     113.902 127.916 140.288  0.00  0.00    +0.000 A 
ATOM     16  C   UNL     1     112.894 128.821 139.838  0.00  0.00    +0.000 A 
ATOM     17  C   UNL     1     114.289 128.536 140.670  0.00  0.00    +0.000 A 
ATOM     18  C   UNL     1     113.279 129.442 140.220  0.00  0.00    +0.000 A 
ATOM     19  C   UNL     1     113.978 129.299 140.637  0.00  0.00    +0.000 A 
BRANCH  19  20
ATOM     20  O   UNL     1     114.364 129.919 141.019  0.00  0.00    +0.000 OA
ATOM     21  C   UNL     1     114.893 130.395 140.601  0.00  0.00    +0.000 C 
ENDBRANCH  19  20
ENDBRANCH   7  14
BRANCH  11  22
ATOM     22  O   UNL     1     112.077 127.116 140.707  0.00  0.00    +0.000 OA
ATOM     23  C   UNL     1     111.390 126.816 141.051  0.00  0.00    +0.000 C 
ENDBRANCH  11  22
BRANCH  12  24
ATOM     24  O   UNL     1     111.420 124.759 137.119  0.00  0.00    +0.000 OA
ATOM     25  C   UNL     1     111.786 124.023 137.055  0.00  0.00    +0.000 C 
ENDBRANCH  12  24
BRANCH   8  26
ATOM     26  O   UNL     1     113.292 126.918 137.074  0.00  0.00    +0.000 OA
BRANCH  26  28
ATOM     27  O   UNL     1     112.235 127.551 136.351  0.00  0.00    +0.000 OA
ATOM     28  C   UNL     1     113.036 127.493 136.540  0.00  0.00    +0.000 C 
BRANCH  28  29
ATOM     29  C   UNL     1     113.580 128.009 136.196  0.00  0.00    +0.000 C 
ATOM     30  C   UNL     1     114.303 127.722 135.922  0.00  0.00    +0.000 C 
ATOM     31  C   UNL     1     113.400 128.811 136.126  0.00  0.00    +0.000 C 
ATOM     32  C   UNL     1     113.944 129.327 135.782  0.00  0.00    +0.000 C 
ENDBRANCH  28  29
ENDBRANCH  26  28
ENDBRANCH   8  26
TORSDOF 7
ENDMDL
MODEL 3
REMARK VINA RESULT:      -7.7     10.568     14.261
REMARK  Name = 15736235
REMARK  7 active torsions:
REMARK  status: ('A' for Active; 'I' for Inactive)
REMARK    1  A    between atoms: O_2  and  C_13
REMARK    2  A    between atoms: O_2  and  C_25
REMARK    3  A    between atoms: O_3  and  C_16
REMARK    4  A    between atoms: O_4  and  C_17
REMARK    5  A    between atoms: O_8  and  C_24
REMARK    6  A    between atoms: C_12  and  C_19
REMARK    7  A    between atoms: C_25  and  C_27
REMARK                            x       y       z     vdW  Elec       q    Type
REMARK                         _______ _______ _______ _____ _____    ______ ____
ROOT
ATOM      1  O   UNL     1     104.019 125.214 146.836  0.00  0.00    +0.000 OA
ATOM      2  O   UNL     1     105.822 124.281 144.773  0.00  0.00    +0.000 OA
ATOM      3  O   UNL     1     106.198 126.867 145.932  0.00  0.00    +0.000 OA
ATOM      4  O   UNL     1     104.742 123.423 145.198  0.00  0.00    +0.000 OA
ATOM      5  C   UNL     1     104.933 124.744 145.792  0.00  0.00    +0.000 A 
ATOM      6  C   UNL     1     104.699 125.329 146.325  0.00  0.00    +0.000 A 
ATOM      7  C   UNL     1     103.575 124.479 146.792  0.00  0.00    +0.000 A 
ATOM      8  C   UNL     1     105.121 126.037 146.371  0.00  0.00    +0.000 A 
ATOM      9  C   UNL     1     104.502 124.003 145.734  0.00  0.00    +0.000 A 
ATOM     10  C   UNL     1     105.589 124.866 145.306  0.00  0.00    +0.000 A 
ATOM     11  C   UNL     1     103.818 123.869 146.237  0.00  0.00    +0.000 A 
ATOM     12  C   UNL     1     106.010 125.574 145.353  0.00  0.00    +0.000 A 
ATOM     13  C   UNL     1     105.776 126.159 145.885  0.00  0.00    +0.000 A 
ENDROOT
BRANCH   7  14
ATOM     14  C   UNL     1     102.920 124.359 147.279  0.00  0.00    +0.000 A 
ATOM     15  C   UNL     1     103.010 123.984 148.008  0.00  0.00    +0.000 A 
ATOM     16  C   UNL     1     102.174 124.614 147.037  0.00  0.00    +0.000 A 
ATOM     17  C   UNL     1     102.355 123.864 148.495  0.00  0.00    +0.000 A 
ATOM     18  C   UNL     1     101.518 124.494 147.523  0.00  0.00    +0.000 A 
ATOM     19  C   UNL     1     101.609 124.119 148.253  0.00  0.00    +0.000 A 
BRANCH  19  20
ATOM     20  O   UNL     1     100.955 124.000 148.739  0.00  0.00    +0.000 OA
ATOM     21  C   UNL     1     100.756 124.563 149.309  0.00  0.00    +0.000 C 
ENDBRANCH  19  20
ENDBRANCH   7  14
BRANCH  11  22
ATOM     22  O   UNL     1     103.399 123.160 146.188  0.00  0.00    +0.000 OA
ATOM     23  C   UNL     1     103.380 122.740 145.479  0.00  0.00    +0.000 C 
ENDBRANCH  11  22
BRANCH  12  24
ATOM     24  O   UNL     1     106.666 125.696 144.866  0.00  0.00    +0.000 OA
ATOM     25  C   UNL     1     106.584 126.123 144.165  0.00  0.00    +0.000 C 
ENDBRANCH  12  24
BRANCH   8  26
ATOM     26  O   UNL     1     104.888 126.622 146.903  0.00  0.00    +0.000 OA
BRANCH  26  28
ATOM     27  O   UNL     1     106.023 126.336 147.723  0.00  0.00    +0.000 OA
ATOM     28  C   UNL     1     105.312 126.739 147.601  0.00  0.00    +0.000 C 
BRANCH  28  29
ATOM     29  C   UNL     1     105.027 127.257 148.176  0.00  0.00    +0.000 C 
ATOM     30  C   UNL     1     105.082 127.057 148.974  0.00  0.00    +0.000 C 
ATOM     31  C   UNL     1     104.688 127.975 147.952  0.00  0.00    +0.000 C 
ATOM     32  C   UNL     1     104.403 128.493 148.527  0.00  0.00    +0.000 C 
ENDBRANCH  28  29
ENDBRANCH  26  28
ENDBRANCH   8  26
TORSDOF 7
ENDMDL
MODEL 4
REMARK VINA RESULT:      -7.7      1.603      3.800
REMARK  Name = 15736235
REMARK  7 active torsions:
REMARK  status: ('A' for Active; 'I' for Inactive)
REMARK    1  A    between atoms: O_2  and  C_13
REMARK    2  A    between atoms: O_2  and  C_25
REMARK    3  A    between atoms: O_3  and  C_16
REMARK    4  A    between atoms: O_4  and  C_17
REMARK    5  A    between atoms: O_8  and  C_24
REMARK    6  A    between atoms: C_12  and  C_19
REMARK    7  A    between atoms: C_25  and  C_27
REMARK                            x       y       z     vdW  Elec       q    Type
REMARK                         _______ _______ _______ _____ _____    ______ ____
ROOT
ATOM      1  O   UNL     1     111.377 127.409 136.235  0.00  0.00    +0.000 OA
ATOM      2  O   UNL     1     112.035 124.605 135.947  0.00  0.00    +0.000 OA
ATOM      3  O   UNL     1     113.924 126.397 137.125  0.00  0.00    +0.000 OA
ATOM      4  O   UNL     1     110.749 125.072 135.489  0.00  0.00    +0.000 OA
ATOM      5  C   UNL     1     111.712 125.990 136.090  0.00  0.00    +0.000 A 
ATOM      6  C   UNL     1     111.920 126.750 136.334  0.00  0.00    +0.000 A 
ATOM      7  C   UNL     1     110.607 127.274 135.876  0.00  0.00    +0.000 A 
ATOM      8  C   UNL     1     112.657 126.886 136.679  0.00  0.00    +0.000 A 
ATOM      9  C   UNL     1     110.948 125.836 135.730  0.00  0.00    +0.000 A 
ATOM     10  C   UNL     1     112.242 125.365 136.191  0.00  0.00    +0.000 A 
ATOM     11  C   UNL     1     110.391 126.482 135.622  0.00  0.00    +0.000 A 
ATOM     12  C   UNL     1     112.979 125.502 136.536  0.00  0.00    +0.000 A 
ATOM     13  C   UNL     1     113.186 126.262 136.780  0.00  0.00    +0.000 A 
ENDROOT
BRANCH   7  14
ATOM     14  C   UNL     1     110.080 127.900 135.777  0.00  0.00    +0.000 A 
ATOM     15  C   UNL     1     109.518 128.063 136.358  0.00  0.00    +0.000 A 
ATOM     16  C   UNL     1     110.113 128.363 135.095  0.00  0.00    +0.000 A 
ATOM     17  C   UNL     1     108.990 128.689 136.259  0.00  0.00    +0.000 A 
ATOM     18  C   UNL     1     109.586 128.990 134.995  0.00  0.00    +0.000 A 
ATOM     19  C   UNL     1     109.024 129.153 135.577  0.00  0.00    +0.000 A 
BRANCH  19  20
ATOM     20  O   UNL     1     108.497 129.778 135.477  0.00  0.00    +0.000 OA
ATOM     21  C   UNL     1     108.481 130.395 136.025  0.00  0.00    +0.000 C 
ENDBRANCH  19  20
ENDBRANCH   7  14
BRANCH  11  22
ATOM     22  O   UNL     1     109.655 126.342 135.277  0.00  0.00    +0.000 OA
ATOM     23  C   UNL     1     109.563 125.729 134.733  0.00  0.00    +0.000 C 
ENDBRANCH  11  22
BRANCH  12  24
ATOM     24  O   UNL     1     113.509 124.877 136.636  0.00  0.00    +0.000 OA
ATOM     25  C   UNL     1     113.521 124.457 137.346  0.00  0.00    +0.000 C 
ENDBRANCH  12  24
BRANCH   8  26
ATOM     26  O   UNL     1     112.864 127.646 136.923  0.00  0.00    +0.000 OA
BRANCH  26  28
ATOM     27  O   UNL     1     113.796 127.749 135.845  0.00  0.00    +0.000 OA
ATOM     28  C   UNL     1     113.385 128.098 136.470  0.00  0.00    +0.000 C 
BRANCH  28  29
ATOM     29  C   UNL     1     113.495 128.897 136.641  0.00  0.00    +0.000 C 
ATOM     30  C   UNL     1     113.397 129.170 137.413  0.00  0.00    +0.000 C 
ATOM     31  C   UNL     1     113.702 129.423 136.040  0.00  0.00    +0.000 C 
ATOM     32  C   UNL     1     113.812 130.222 136.211  0.00  0.00    +0.000 C 
ENDBRANCH  28  29
ENDBRANCH  26  28
ENDBRANCH   8  26
TORSDOF 7
ENDMDL
MODEL 5
REMARK VINA RESULT:      -7.7      2.705      3.674
REMARK  Name = 15736235
REMARK  7 active torsions:
REMARK  status: ('A' for Active; 'I' for Inactive)
REMARK    1  A    between atoms: O_2  and  C_13
REMARK    2  A    between atoms: O_2  and  C_25
REMARK    3  A    between atoms: O_3  and  C_16
REMARK    4  A    between atoms: O_4  and  C_17
REMARK    5  A    between atoms: O_8  and  C_24
REMARK    6  A    between atoms: C_12  and  C_19
REMARK    7  A    between atoms: C_25  and  C_27
REMARK                            x       y       z     vdW  Elec       q    Type
REMARK                         _______ _______ _______ _____ _____    ______ ____
ROOT
ATOM      1  O   UNL     1     112.126 125.870 138.383  0.00  0.00    +0.000 OA
ATOM      2  O   UNL     1     109.270 126.213 138.063  0.00  0.00    +0.000 OA
ATOM      3  O   UNL     1     110.475 126.618 140.623  0.00  0.00    +0.000 OA
ATOM      4  O   UNL     1     110.063 125.838 136.917  0.00  0.00    +0.000 OA
ATOM      5  C   UNL     1     110.681 126.044 138.224  0.00  0.00    +0.000 A 
ATOM      6  C   UNL     1     111.352 126.055 138.704  0.00  0.00    +0.000 A 
ATOM      7  C   UNL     1     112.204 125.670 137.551  0.00  0.00    +0.000 A 
ATOM      8  C   UNL     1     111.283 126.247 139.503  0.00  0.00    +0.000 A 
ATOM      9  C   UNL     1     110.738 125.847 137.390  0.00  0.00    +0.000 A 
ATOM     10  C   UNL     1     109.941 126.224 138.543  0.00  0.00    +0.000 A 
ATOM     11  C   UNL     1     111.506 125.658 137.051  0.00  0.00    +0.000 A 
ATOM     12  C   UNL     1     109.874 126.415 139.343  0.00  0.00    +0.000 A 
ATOM     13  C   UNL     1     110.544 126.426 139.823  0.00  0.00    +0.000 A 
ENDROOT
BRANCH   7  14
ATOM     14  C   UNL     1     112.944 125.490 137.234  0.00  0.00    +0.000 A 
ATOM     15  C   UNL     1     113.399 126.083 136.885  0.00  0.00    +0.000 A 
ATOM     16  C   UNL     1     113.230 124.717 137.265  0.00  0.00    +0.000 A 
ATOM     17  C   UNL     1     114.140 125.903 136.568  0.00  0.00    +0.000 A 
ATOM     18  C   UNL     1     113.970 124.536 136.949  0.00  0.00    +0.000 A 
ATOM     19  C   UNL     1     114.425 125.130 136.600  0.00  0.00    +0.000 A 
BRANCH  19  20
ATOM     20  O   UNL     1     115.165 124.950 136.283  0.00  0.00    +0.000 OA
ATOM     21  C   UNL     1     115.417 125.319 135.590  0.00  0.00    +0.000 C 
ENDBRANCH  19  20
ENDBRANCH   7  14
BRANCH  11  22
ATOM     22  O   UNL     1     111.570 125.467 136.250  0.00  0.00    +0.000 OA
ATOM     23  C   UNL     1     110.892 125.313 135.806  0.00  0.00    +0.000 C 
ENDBRANCH  11  22
BRANCH  12  24
ATOM     24  O   UNL     1     109.134 126.595 139.662  0.00  0.00    +0.000 OA
ATOM     25  C   UNL     1     108.716 126.021 140.082  0.00  0.00    +0.000 C 
ENDBRANCH  12  24
BRANCH   8  26
ATOM     26  O   UNL     1     111.953 126.258 139.984  0.00  0.00    +0.000 OA
BRANCH  26  28
ATOM     27  O   UNL     1     111.952 127.686 139.954  0.00  0.00    +0.000 OA
ATOM     28  C   UNL     1     112.300 126.976 140.192  0.00  0.00    +0.000 C 
BRANCH  28  29
ATOM     29  C   UNL     1     112.994 126.986 140.639  0.00  0.00    +0.000 C 
ATOM     30  C   UNL     1     112.989 126.706 141.414  0.00  0.00    +0.000 C 
ATOM     31  C   UNL     1     113.692 127.277 140.309  0.00  0.00    +0.000 C 
ATOM     32  C   UNL     1     114.386 127.287 140.756  0.00  0.00    +0.000 C 
ENDBRANCH  28  29
ENDBRANCH  26  28
ENDBRANCH   8  26
TORSDOF 7
ENDMDL
MODEL 6
REMARK VINA RESULT:      -7.7      1.635      2.502
REMARK  Name = 15736235
REMARK  7 active torsions:
REMARK  status: ('A' for Active; 'I' for Inactive)
REMARK    1  A    between atoms: O_2  and  C_13
REMARK    2  A    between atoms: O_2  and  C_25
REMARK    3  A    between atoms: O_3  and  C_16
REMARK    4  A    between atoms: O_4  and  C_17
REMARK    5  A    between atoms: O_8  and  C_24
REMARK    6  A    between atoms: C_12  and  C_19
REMARK    7  A    between atoms: C_25  and  C_27
REMARK                            x       y       z     vdW  Elec       q    Type
REMARK                         _______ _______ _______ _____ _____    ______ ____
ROOT
ATOM      1  O   UNL     1     112.294 127.257 137.296  0.00  0.00    +0.000 OA
ATOM      2  O   UNL     1     111.843 127.312 140.155  0.00  0.00    +0.000 OA
ATOM      3  O   UNL     1     110.823 125.147 138.594  0.00  0.00    +0.000 OA
ATOM      4  O   UNL     1     112.585 128.388 139.543  0.00  0.00    +0.000 OA
ATOM      5  C   UNL     1     112.065 127.283 138.743  0.00  0.00    +0.000 A 
ATOM      6  C   UNL     1     111.968 126.912 138.012  0.00  0.00    +0.000 A 
ATOM      7  C   UNL     1     112.726 127.999 137.342  0.00  0.00    +0.000 A 
ATOM      8  C   UNL     1     111.554 126.200 137.963  0.00  0.00    +0.000 A 
ATOM      9  C   UNL     1     112.493 128.024 138.808  0.00  0.00    +0.000 A 
ATOM     10  C   UNL     1     111.747 126.942 139.424  0.00  0.00    +0.000 A 
ATOM     11  C   UNL     1     112.827 128.385 138.102  0.00  0.00    +0.000 A 
ATOM     12  C   UNL     1     111.333 126.230 139.374  0.00  0.00    +0.000 A 
ATOM     13  C   UNL     1     111.237 125.859 138.643  0.00  0.00    +0.000 A 
ENDROOT
BRANCH   7  14
ATOM     14  C   UNL     1     113.043 128.338 136.659  0.00  0.00    +0.000 A 
ATOM     15  C   UNL     1     112.621 128.919 136.253  0.00  0.00    +0.000 A 
ATOM     16  C   UNL     1     113.781 128.095 136.383  0.00  0.00    +0.000 A 
ATOM     17  C   UNL     1     112.938 129.258 135.571  0.00  0.00    +0.000 A 
ATOM     18  C   UNL     1     114.098 128.433 135.701  0.00  0.00    +0.000 A 
ATOM     19  C   UNL     1     113.676 129.015 135.294  0.00  0.00    +0.000 A 
BRANCH  19  20
ATOM     20  O   UNL     1     113.993 129.354 134.612  0.00  0.00    +0.000 OA
ATOM     21  C   UNL     1     114.551 129.958 134.673  0.00  0.00    +0.000 C 
ENDBRANCH  19  20
ENDBRANCH   7  14
BRANCH  11  22
ATOM     22  O   UNL     1     113.240 129.097 138.156  0.00  0.00    +0.000 OA
ATOM     23  C   UNL     1     113.470 129.387 138.893  0.00  0.00    +0.000 C 
ENDBRANCH  11  22
BRANCH  12  24
ATOM     24  O   UNL     1     111.016 125.889 140.055  0.00  0.00    +0.000 OA
ATOM     25  C   UNL     1     110.287 126.146 140.343  0.00  0.00    +0.000 C 
ENDBRANCH  12  24
BRANCH   8  26
ATOM     26  O   UNL     1     111.458 125.829 137.233  0.00  0.00    +0.000 OA
BRANCH  26  28
ATOM     27  O   UNL     1     110.095 126.256 137.189  0.00  0.00    +0.000 OA
ATOM     28  C   UNL     1     110.744 125.899 136.825  0.00  0.00    +0.000 C 
BRANCH  28  29
ATOM     29  C   UNL     1     110.679 125.613 136.054  0.00  0.00    +0.000 C 
ATOM     30  C   UNL     1     111.128 124.964 135.816  0.00  0.00    +0.000 C 
ATOM     31  C   UNL     1     110.165 125.978 135.521  0.00  0.00    +0.000 C 
ATOM     32  C   UNL     1     110.101 125.692 134.750  0.00  0.00    +0.000 C 
ENDBRANCH  28  29
ENDBRANCH  26  28
ENDBRANCH   8  26
TORSDOF 7
ENDMDL
MODEL 7
REMARK VINA RESULT:      -7.6      2.695      3.335
REMARK  Name = 15736235
REMARK  7 active torsions:
REMARK  status: ('A' for Active; 'I' for Inactive)
REMARK    1  A    between atoms: O_2  and  C_13
REMARK    2  A    between atoms: O_2  and  C_25
REMARK    3  A    between atoms: O_3  and  C_16
REMARK    4  A    between atoms: O_4  and  C_17
REMARK    5  A    between atoms: O_8  and  C_24
REMARK    6  A    between atoms: C_12  and  C_19
REMARK    7  A    between atoms: C_25  and  C_27
REMARK                            x       y       z     vdW  Elec       q    Type
REMARK                         _______ _______ _______ _____ _____    ______ ____
ROOT
ATOM      1  O   UNL     1     111.939 126.502 137.904  0.00  0.00    +0.000 OA
ATOM      2  O   UNL     1     109.221 126.547 136.911  0.00  0.00    +0.000 OA
ATOM      3  O   UNL     1     111.288 125.343 135.348  0.00  0.00    +0.000 OA
ATOM      4  O   UNL     1     109.506 127.138 138.196  0.00  0.00    +0.000 OA
ATOM      5  C   UNL     1     110.564 126.524 137.399  0.00  0.00    +0.000 A 
ATOM      6  C   UNL     1     111.356 126.315 137.302  0.00  0.00    +0.000 A 
ATOM      7  C   UNL     1     111.694 126.912 138.619  0.00  0.00    +0.000 A 
ATOM      8  C   UNL     1     111.597 125.922 136.617  0.00  0.00    +0.000 A 
ATOM      9  C   UNL     1     110.300 126.934 138.107  0.00  0.00    +0.000 A 
ATOM     10  C   UNL     1     110.013 126.338 136.813  0.00  0.00    +0.000 A 
ATOM     11  C   UNL     1     110.869 127.129 138.721  0.00  0.00    +0.000 A 
ATOM     12  C   UNL     1     110.255 125.945 136.130  0.00  0.00    +0.000 A 
ATOM     13  C   UNL     1     111.047 125.736 136.032  0.00  0.00    +0.000 A 
ENDROOT
BRANCH   7  14
ATOM     14  C   UNL     1     112.247 127.096 139.203  0.00  0.00    +0.000 A 
ATOM     15  C   UNL     1     112.365 126.581 139.836  0.00  0.00    +0.000 A 
ATOM     16  C   UNL     1     112.681 127.796 139.154  0.00  0.00    +0.000 A 
ATOM     17  C   UNL     1     112.918 126.765 140.420  0.00  0.00    +0.000 A 
ATOM     18  C   UNL     1     113.234 127.981 139.737  0.00  0.00    +0.000 A 
ATOM     19  C   UNL     1     113.353 127.465 140.371  0.00  0.00    +0.000 A 
BRANCH  19  20
ATOM     20  O   UNL     1     113.905 127.649 140.954  0.00  0.00    +0.000 OA
ATOM     21  C   UNL     1     114.633 127.261 140.970  0.00  0.00    +0.000 C 
ENDBRANCH  19  20
ENDBRANCH   7  14
BRANCH  11  22
ATOM     22  O   UNL     1     110.624 127.523 139.403  0.00  0.00    +0.000 OA
ATOM     23  C   UNL     1     109.849 127.800 139.465  0.00  0.00    +0.000 C 
ENDBRANCH  11  22
BRANCH  12  24
ATOM     24  O   UNL     1     109.704 125.760 135.544  0.00  0.00    +0.000 OA
ATOM     25  C   UNL     1     109.650 126.227 134.866  0.00  0.00    +0.000 C 
ENDBRANCH  12  24
BRANCH   8  26
ATOM     26  O   UNL     1     112.389 125.713 136.520  0.00  0.00    +0.000 OA
BRANCH  26  28
ATOM     27  O   UNL     1     112.068 124.336 136.724  0.00  0.00    +0.000 OA
ATOM     28  C   UNL     1     112.631 124.935 136.651  0.00  0.00    +0.000 C 
BRANCH  28  29
ATOM     29  C   UNL     1     113.434 124.757 136.710  0.00  0.00    +0.000 C 
ATOM     30  C   UNL     1     113.678 124.081 137.114  0.00  0.00    +0.000 C 
ATOM     31  C   UNL     1     113.994 125.256 136.363  0.00  0.00    +0.000 C 
ATOM     32  C   UNL     1     114.797 125.077 136.422  0.00  0.00    +0.000 C 
ENDBRANCH  28  29
ENDBRANCH  26  28
ENDBRANCH   8  26
TORSDOF 7
ENDMDL
MODEL 8
REMARK VINA RESULT:      -7.6      1.378      4.002
REMARK  Name = 15736235
REMARK  7 active torsions:
REMARK  status: ('A' for Active; 'I' for Inactive)
REMARK    1  A    between atoms: O_2  and  C_13
REMARK    2  A    between atoms: O_2  and  C_25
REMARK    3  A    between atoms: O_3  and  C_16
REMARK    4  A    between atoms: O_4  and  C_17
REMARK    5  A    between atoms: O_8  and  C_24
REMARK    6  A    between atoms: C_12  and  C_19
REMARK    7  A    between atoms: C_25  and  C_27
REMARK                            x       y       z     vdW  Elec       q    Type
REMARK                         _______ _______ _______ _____ _____    ______ ____
ROOT
ATOM      1  O   UNL     1     112.242 127.718 136.210  0.00  0.00    +0.000 OA
ATOM      2  O   UNL     1     109.747 127.806 134.744  0.00  0.00    +0.000 OA
ATOM      3  O   UNL     1     111.176 130.224 135.270  0.00  0.00    +0.000 OA
ATOM      4  O   UNL     1     110.248 126.530 135.198  0.00  0.00    +0.000 OA
ATOM      5  C   UNL     1     110.980 127.765 135.468  0.00  0.00    +0.000 A 
ATOM      6  C   UNL     1     111.628 128.155 135.797  0.00  0.00    +0.000 A 
ATOM      7  C   UNL     1     112.179 126.864 136.282  0.00  0.00    +0.000 A 
ATOM      8  C   UNL     1     111.693 128.975 135.730  0.00  0.00    +0.000 A 
ATOM      9  C   UNL     1     110.900 126.912 135.530  0.00  0.00    +0.000 A 
ATOM     10  C   UNL     1     110.396 128.195 135.073  0.00  0.00    +0.000 A 
ATOM     11  C   UNL     1     111.504 126.458 135.940  0.00  0.00    +0.000 A 
ATOM     12  C   UNL     1     110.462 129.015 135.007  0.00  0.00    +0.000 A 
ATOM     13  C   UNL     1     111.111 129.405 135.336  0.00  0.00    +0.000 A 
ENDROOT
BRANCH   7  14
ATOM     14  C   UNL     1     112.764 126.436 136.677  0.00  0.00    +0.000 A 
ATOM     15  C   UNL     1     113.399 126.121 136.258  0.00  0.00    +0.000 A 
ATOM     16  C   UNL     1     112.712 126.324 137.493  0.00  0.00    +0.000 A 
ATOM     17  C   UNL     1     113.984 125.693 136.653  0.00  0.00    +0.000 A 
ATOM     18  C   UNL     1     113.295 125.896 137.889  0.00  0.00    +0.000 A 
ATOM     19  C   UNL     1     113.932 125.581 137.469  0.00  0.00    +0.000 A 
BRANCH  19  20
ATOM     20  O   UNL     1     114.516 125.153 137.864  0.00  0.00    +0.000 OA
ATOM     21  C   UNL     1     114.887 124.519 137.489  0.00  0.00    +0.000 C 
ENDBRANCH  19  20
ENDBRANCH   7  14
BRANCH  11  22
ATOM     22  O   UNL     1     111.435 125.638 136.004  0.00  0.00    +0.000 OA
ATOM     23  C   UNL     1     110.787 125.251 135.670  0.00  0.00    +0.000 C 
ENDBRANCH  11  22
BRANCH  12  24
ATOM     24  O   UNL     1     109.879 129.445 134.612  0.00  0.00    +0.000 OA
ATOM     25  C   UNL     1     109.308 129.856 135.043  0.00  0.00    +0.000 C 
ENDBRANCH  12  24
BRANCH   8  26
ATOM     26  O   UNL     1     112.342 129.364 136.059  0.00  0.00    +0.000 OA
BRANCH  26  28
ATOM     27  O   UNL     1     112.925 129.492 134.761  0.00  0.00    +0.000 OA
ATOM     28  C   UNL     1     112.968 129.603 135.578  0.00  0.00    +0.000 C 
BRANCH  28  29
ATOM     29  C   UNL     1     113.637 129.952 135.912  0.00  0.00    +0.000 C 
ATOM     30  C   UNL     1     113.579 130.340 136.637  0.00  0.00    +0.000 C 
ATOM     31  C   UNL     1     114.362 129.911 135.521  0.00  0.00    +0.000 C 
ATOM     32  C   UNL     1     115.030 130.260 135.855  0.00  0.00    +0.000 C 
ENDBRANCH  28  29
ENDBRANCH  26  28
ENDBRANCH   8  26
TORSDOF 7
ENDMDL
MODEL 9
REMARK VINA RESULT:      -7.6      1.653      2.324
REMARK  Name = 15736235
REMARK  7 active torsions:
REMARK  status: ('A' for Active; 'I' for Inactive)
REMARK    1  A    between atoms: O_2  and  C_13
REMARK    2  A    between atoms: O_2  and  C_25
REMARK    3  A    between atoms: O_3  and  C_16
REMARK    4  A    between atoms: O_4  and  C_17
REMARK    5  A    between atoms: O_8  and  C_24
REMARK    6  A    between atoms: C_12  and  C_19
REMARK    7  A    between atoms: C_25  and  C_27
REMARK                            x       y       z     vdW  Elec       q    Type
REMARK                         _______ _______ _______ _____ _____    ______ ____
ROOT
ATOM      1  O   UNL     1     112.530 127.128 136.927  0.00  0.00    +0.000 OA
ATOM      2  O   UNL     1     110.966 125.012 135.721  0.00  0.00    +0.000 OA
ATOM      3  O   UNL     1     112.527 124.476 138.053  0.00  0.00    +0.000 OA
ATOM      4  O   UNL     1     110.940 126.327 135.126  0.00  0.00    +0.000 OA
ATOM      5  C   UNL     1     111.739 126.056 136.318  0.00  0.00    +0.000 A 
ATOM      6  C   UNL     1     112.257 126.314 136.906  0.00  0.00    +0.000 A 
ATOM      7  C   UNL     1     112.259 127.682 136.327  0.00  0.00    +0.000 A 
ATOM      8  C   UNL     1     112.519 125.787 137.485  0.00  0.00    +0.000 A 
ATOM      9  C   UNL     1     111.458 126.594 135.711  0.00  0.00    +0.000 A 
ATOM     10  C   UNL     1     111.484 125.271 136.309  0.00  0.00    +0.000 A 
ATOM     11  C   UNL     1     111.720 127.413 135.715  0.00  0.00    +0.000 A 
ATOM     12  C   UNL     1     111.747 124.745 136.887  0.00  0.00    +0.000 A 
ATOM     13  C   UNL     1     112.265 125.003 137.475  0.00  0.00    +0.000 A 
ENDROOT
BRANCH   7  14
ATOM     14  C   UNL     1     112.516 128.466 136.339  0.00  0.00    +0.000 A 
ATOM     15  C   UNL     1     112.077 129.038 136.740  0.00  0.00    +0.000 A 
ATOM     16  C   UNL     1     113.212 128.678 135.950  0.00  0.00    +0.000 A 
ATOM     17  C   UNL     1     112.334 129.822 136.752  0.00  0.00    +0.000 A 
ATOM     18  C   UNL     1     113.469 129.461 135.961  0.00  0.00    +0.000 A 
ATOM     19  C   UNL     1     113.030 130.034 136.363  0.00  0.00    +0.000 A 
BRANCH  19  20
ATOM     20  O   UNL     1     113.286 130.817 136.374  0.00  0.00    +0.000 OA
ATOM     21  C   UNL     1     113.761 131.086 136.993  0.00  0.00    +0.000 C 
ENDBRANCH  19  20
ENDBRANCH   7  14
BRANCH  11  22
ATOM     22  O   UNL     1     111.455 127.936 135.135  0.00  0.00    +0.000 OA
ATOM     23  C   UNL     1     110.852 127.711 134.619  0.00  0.00    +0.000 C 
ENDBRANCH  11  22
BRANCH  12  24
ATOM     24  O   UNL     1     111.492 123.960 136.878  0.00  0.00    +0.000 OA
ATOM     25  C   UNL     1     111.988 123.369 136.586  0.00  0.00    +0.000 C 
ENDBRANCH  12  24
BRANCH   8  26
ATOM     26  O   UNL     1     113.037 126.045 138.072  0.00  0.00    +0.000 OA
BRANCH  26  28
ATOM     27  O   UNL     1     111.992 125.961 139.043  0.00  0.00    +0.000 OA
ATOM     28  C   UNL     1     112.759 126.186 138.836  0.00  0.00    +0.000 C 
BRANCH  28  29
ATOM     29  C   UNL     1     113.246 126.551 139.393  0.00  0.00    +0.000 C 
ATOM     30  C   UNL     1     114.063 126.450 139.355  0.00  0.00    +0.000 C 
ATOM     31  C   UNL     1     112.914 127.018 139.987  0.00  0.00    +0.000 C 
ATOM     32  C   UNL     1     113.401 127.383 140.544  0.00  0.00    +0.000 C 
ENDBRANCH  28  29
ENDBRANCH  26  28
ENDBRANCH   8  26
TORSDOF 7
ENDMDL
MODEL 10
REMARK VINA RESULT:      -7.6      1.804      4.436
REMARK  Name = 15736235
REMARK  7 active torsions:
REMARK  status: ('A' for Active; 'I' for Inactive)
REMARK    1  A    between atoms: O_2  and  C_13
REMARK    2  A    between atoms: O_2  and  C_25
REMARK    3  A    between atoms: O_3  and  C_16
REMARK    4  A    between atoms: O_4  and  C_17
REMARK    5  A    between atoms: O_8  and  C_24
REMARK    6  A    between atoms: C_12  and  C_19
REMARK    7  A    between atoms: C_25  and  C_27
REMARK                            x       y       z     vdW  Elec       q    Type
REMARK                         _______ _______ _______ _____ _____    ______ ____
ROOT
ATOM      1  O   UNL     1     110.619 127.999 136.210  0.00  0.00    +0.000 OA
ATOM      2  O   UNL     1     108.312 129.698 135.795  0.00  0.00    +0.000 OA
ATOM      3  O   UNL     1     110.879 130.868 136.251  0.00  0.00    +0.000 OA
ATOM      4  O   UNL     1     108.141 128.265 135.766  0.00  0.00    +0.000 OA
ATOM      5  C   UNL     1     109.453 128.861 136.000  0.00  0.00    +0.000 A 
ATOM      6  C   UNL     1     110.261 128.777 136.144  0.00  0.00    +0.000 A 
ATOM      7  C   UNL     1     110.129 127.298 136.123  0.00  0.00    +0.000 A 
ATOM      8  C   UNL     1     110.736 129.447 136.228  0.00  0.00    +0.000 A 
ATOM      9  C   UNL     1     108.948 128.172 135.911  0.00  0.00    +0.000 A 
ATOM     10  C   UNL     1     109.120 129.614 135.939  0.00  0.00    +0.000 A 
ATOM     11  C   UNL     1     109.288 127.385 135.973  0.00  0.00    +0.000 A 
ATOM     12  C   UNL     1     109.596 130.282 136.023  0.00  0.00    +0.000 A 
ATOM     13  C   UNL     1     110.404 130.199 136.167  0.00  0.00    +0.000 A 
ENDROOT
BRANCH   7  14
ATOM     14  C   UNL     1     110.464 126.547 136.184  0.00  0.00    +0.000 A 
ATOM     15  C   UNL     1     110.532 126.183 136.921  0.00  0.00    +0.000 A 
ATOM     16  C   UNL     1     110.733 126.158 135.508  0.00  0.00    +0.000 A 
ATOM     17  C   UNL     1     110.867 125.432 136.983  0.00  0.00    +0.000 A 
ATOM     18  C   UNL     1     111.068 125.407 135.567  0.00  0.00    +0.000 A 
ATOM     19  C   UNL     1     111.135 125.044 136.306  0.00  0.00    +0.000 A 
BRANCH  19  20
ATOM     20  O   UNL     1     111.470 124.293 136.367  0.00  0.00    +0.000 OA
ATOM     21  C   UNL     1     112.255 124.210 136.607  0.00  0.00    +0.000 C 
ENDBRANCH  19  20
ENDBRANCH   7  14
BRANCH  11  22
ATOM     22  O   UNL     1     108.809 126.718 135.888  0.00  0.00    +0.000 OA
ATOM     23  C   UNL     1     108.090 126.773 135.488  0.00  0.00    +0.000 C 
ENDBRANCH  11  22
BRANCH  12  24
ATOM     24  O   UNL     1     109.263 131.036 135.962  0.00  0.00    +0.000 OA
ATOM     25  C   UNL     1     109.030 131.439 136.643  0.00  0.00    +0.000 C 
ENDBRANCH  12  24
BRANCH   8  26
ATOM     26  O   UNL     1     111.544 129.363 136.372  0.00  0.00    +0.000 OA
BRANCH  26  28
ATOM     27  O   UNL     1     111.825 129.704 135.013  0.00  0.00    +0.000 OA
ATOM     28  C   UNL     1     112.086 129.459 135.758  0.00  0.00    +0.000 C 
BRANCH  28  29
ATOM     29  C   UNL     1     112.887 129.310 135.886  0.00  0.00    +0.000 C 
ATOM     30  C   UNL     1     113.226 129.482 136.617  0.00  0.00    +0.000 C 
ATOM     31  C   UNL     1     113.348 128.988 135.282  0.00  0.00    +0.000 C 
ATOM     32  C   UNL     1     114.149 128.839 135.410  0.00  0.00    +0.000 C 
ENDBRANCH  28  29
ENDBRANCH  26  28
ENDBRANCH   8  26
TORSDOF 7
ENDMDL
