MODEL 1
REMARK VINA RESULT:      -8.6      0.000      0.000
REMARK  Name = 44259829
REMARK  8 active torsions:
REMARK  status: ('A' for Active; 'I' for Inactive)
REMARK    1  A    between atoms: O_2  and  C_18
REMARK    2  A    between atoms: O_2  and  C_20
REMARK    3  A    between atoms: O_7  and  C_21
REMARK    4  A    between atoms: O_9  and  C_27
REMARK    5  A    between atoms: O_10  and  C_33
REMARK    6  A    between atoms: O_13  and  C_35
REMARK    7  A    between atoms: C_16  and  C_19
REMARK    8  A    between atoms: C_23  and  C_26
REMARK                            x       y       z     vdW  Elec       q    Type
REMARK                         _______ _______ _______ _____ _____    ______ ____
ROOT
ATOM      1  C   UNL     1     112.107 129.769 136.476  0.00  0.00    +0.000 A 
ATOM      2  C   UNL     1     112.491 129.367 135.868  0.00  0.00    +0.000 A 
ATOM      3  C   UNL     1     111.696 129.348 137.055  0.00  0.00    +0.000 A 
ATOM      4  C   UNL     1     112.054 128.121 136.415  0.00  0.00    +0.000 A 
ATOM      5  C   UNL     1     112.465 128.543 135.837  0.00  0.00    +0.000 A 
ATOM      6  C   UNL     1     111.670 128.524 137.025  0.00  0.00    +0.000 A 
ENDROOT
BRANCH   4  10
ATOM      7  O   UNL     1     112.652 126.853 136.692  0.00  0.00    +0.000 OA
ATOM      8  O   UNL     1     110.702 125.714 135.679  0.00  0.00    +0.000 OA
ATOM      9  O   UNL     1     111.282 124.421 135.947  0.00  0.00    +0.000 OA
ATOM     10  C   UNL     1     112.028 127.297 136.385  0.00  0.00    +0.000 A 
ATOM     11  C   UNL     1     111.378 126.918 136.047  0.00  0.00    +0.000 A 
ATOM     12  C   UNL     1     111.975 125.649 136.324  0.00  0.00    +0.000 A 
ATOM     13  C   UNL     1     112.625 126.029 136.662  0.00  0.00    +0.000 A 
ATOM     14  C   UNL     1     111.352 126.094 136.017  0.00  0.00    +0.000 A 
ATOM     15  C   UNL     1     111.936 124.792 136.287  0.00  0.00    +0.000 A 
ATOM     16  C   UNL     1     113.281 125.577 136.986  0.00  0.00    +0.000 A 
ATOM     17  C   UNL     1     112.582 124.323 136.605  0.00  0.00    +0.000 A 
ATOM     18  C   UNL     1     113.259 124.718 136.957  0.00  0.00    +0.000 A 
BRANCH  11  19
ATOM     19  O   UNL     1     110.754 127.362 135.740  0.00  0.00    +0.000 OA
ATOM     20  C   UNL     1     110.317 127.073 135.103  0.00  0.00    +0.000 C 
ENDBRANCH  11  19
BRANCH  17  21
ATOM     21  O   UNL     1     112.553 123.499 136.573  0.00  0.00    +0.000 OA
ATOM     22  C   UNL     1     112.094 123.081 137.117  0.00  0.00    +0.000 C 
ENDBRANCH  17  21
BRANCH  18  23
ATOM     23  O   UNL     1     113.884 124.277 137.265  0.00  0.00    +0.000 OA
ATOM     24  C   UNL     1     114.609 124.640 137.419  0.00  0.00    +0.000 C 
ENDBRANCH  18  23
ENDBRANCH   4  10
BRANCH   2  25
ATOM     25  O   UNL     1     112.902 129.787 135.289  0.00  0.00    +0.000 OA
ATOM     26  C   UNL     1     113.558 129.451 134.921  0.00  0.00    +0.000 C 
ENDBRANCH   2  25
BRANCH   1  27
ATOM     27  O   UNL     1     112.133 130.593 136.507  0.00  0.00    +0.000 OA
BRANCH  27  36
ATOM     28  O   UNL     1     110.778 130.888 136.162  0.00  0.00    +0.000 OA
ATOM     29  O   UNL     1     110.691 132.587 137.959  0.00  0.00    +0.000 OA
ATOM     30  O   UNL     1     109.366 132.316 137.016  0.00  0.00    +0.000 OA
ATOM     31  O   UNL     1     112.075 131.726 137.705  0.00  0.00    +0.000 OA
ATOM     32  C   UNL     1     110.720 132.021 137.360  0.00  0.00    +0.000 C 
ATOM     33  C   UNL     1     110.058 131.885 136.889  0.00  0.00    +0.000 C 
ATOM     34  C   UNL     1     110.087 131.319 136.290  0.00  0.00    +0.000 C 
ATOM     35  C   UNL     1     111.413 131.590 137.233  0.00  0.00    +0.000 C 
ATOM     36  C   UNL     1     111.442 131.024 136.634  0.00  0.00    +0.000 C 
BRANCH  34  38
ATOM     37  O   UNL     1     109.515 131.057 135.006  0.00  0.00    +0.000 OA
ATOM     38  C   UNL     1     109.424 131.183 135.817  0.00  0.00    +0.000 C 
ENDBRANCH  34  38
ENDBRANCH  27  36
ENDBRANCH   1  27
TORSDOF 8
ENDMDL
MODEL 2
REMARK VINA RESULT:      -8.4      1.290      2.204
REMARK  Name = 44259829
REMARK  8 active torsions:
REMARK  status: ('A' for Active; 'I' for Inactive)
REMARK    1  A    between atoms: O_2  and  C_18
REMARK    2  A    between atoms: O_2  and  C_20
REMARK    3  A    between atoms: O_7  and  C_21
REMARK    4  A    between atoms: O_9  and  C_27
REMARK    5  A    between atoms: O_10  and  C_33
REMARK    6  A    between atoms: O_13  and  C_35
REMARK    7  A    between atoms: C_16  and  C_19
REMARK    8  A    between atoms: C_23  and  C_26
REMARK                            x       y       z     vdW  Elec       q    Type
REMARK                         _______ _______ _______ _____ _____    ______ ____
ROOT
ATOM      1  C   UNL     1     111.285 130.409 136.410  0.00  0.00    +0.000 A 
ATOM      2  C   UNL     1     111.175 129.840 135.824  0.00  0.00    +0.000 A 
ATOM      3  C   UNL     1     111.833 130.280 137.014  0.00  0.00    +0.000 A 
ATOM      4  C   UNL     1     112.160 129.010 136.443  0.00  0.00    +0.000 A 
ATOM      5  C   UNL     1     111.612 129.141 135.840  0.00  0.00    +0.000 A 
ATOM      6  C   UNL     1     112.270 129.581 137.030  0.00  0.00    +0.000 A 
ENDROOT
BRANCH   4  10
ATOM      7  O   UNL     1     112.265 127.625 136.774  0.00  0.00    +0.000 OA
ATOM      8  O   UNL     1     114.572 127.586 135.878  0.00  0.00    +0.000 OA
ATOM      9  O   UNL     1     114.705 126.187 136.203  0.00  0.00    +0.000 OA
ATOM     10  C   UNL     1     112.597 128.311 136.459  0.00  0.00    +0.000 A 
ATOM     11  C   UNL     1     113.365 128.299 136.161  0.00  0.00    +0.000 A 
ATOM     12  C   UNL     1     113.472 126.912 136.492  0.00  0.00    +0.000 A 
ATOM     13  C   UNL     1     112.702 126.925 136.791  0.00  0.00    +0.000 A 
ATOM     14  C   UNL     1     113.803 127.599 136.177  0.00  0.00    +0.000 A 
ATOM     15  C   UNL     1     113.937 126.190 136.503  0.00  0.00    +0.000 A 
ATOM     16  C   UNL     1     112.346 126.216 137.121  0.00  0.00    +0.000 A 
ATOM     17  C   UNL     1     113.597 125.471 136.830  0.00  0.00    +0.000 A 
ATOM     18  C   UNL     1     112.796 125.485 137.141  0.00  0.00    +0.000 A 
BRANCH  11  19
ATOM     19  O   UNL     1     113.698 128.985 135.846  0.00  0.00    +0.000 OA
ATOM     20  C   UNL     1     114.341 128.934 135.332  0.00  0.00    +0.000 C 
ENDBRANCH  11  19
BRANCH  17  21
ATOM     21  O   UNL     1     114.037 124.773 136.845  0.00  0.00    +0.000 OA
ATOM     22  C   UNL     1     114.633 124.673 137.406  0.00  0.00    +0.000 C 
ENDBRANCH  17  21
BRANCH  18  23
ATOM     23  O   UNL     1     112.462 124.800 137.457  0.00  0.00    +0.000 OA
ATOM     24  C   UNL     1     111.648 124.762 137.589  0.00  0.00    +0.000 C 
ENDBRANCH  18  23
ENDBRANCH   4  10
BRANCH   2  25
ATOM     25  O   UNL     1     110.627 129.970 135.221  0.00  0.00    +0.000 OA
ATOM     26  C   UNL     1     110.448 129.366 134.689  0.00  0.00    +0.000 C 
ENDBRANCH   2  25
BRANCH   1  27
ATOM     27  O   UNL     1     110.848 131.109 136.394  0.00  0.00    +0.000 OA
BRANCH  27  36
ATOM     28  O   UNL     1     109.999 130.873 137.519  0.00  0.00    +0.000 OA
ATOM     29  O   UNL     1     110.328 133.211 138.258  0.00  0.00    +0.000 OA
ATOM     30  O   UNL     1     109.370 132.196 139.136  0.00  0.00    +0.000 OA
ATOM     31  O   UNL     1     111.067 132.668 136.887  0.00  0.00    +0.000 OA
ATOM     32  C   UNL     1     110.218 132.432 138.012  0.00  0.00    +0.000 C 
ATOM     33  C   UNL     1     109.740 131.924 138.451  0.00  0.00    +0.000 C 
ATOM     34  C   UNL     1     109.630 131.145 138.204  0.00  0.00    +0.000 C 
ATOM     35  C   UNL     1     110.588 132.161 137.326  0.00  0.00    +0.000 C 
ATOM     36  C   UNL     1     110.479 131.381 137.079  0.00  0.00    +0.000 C 
BRANCH  34  38
ATOM     37  O   UNL     1     108.629 130.126 138.257  0.00  0.00    +0.000 OA
ATOM     38  C   UNL     1     109.151 130.637 138.643  0.00  0.00    +0.000 C 
ENDBRANCH  34  38
ENDBRANCH  27  36
ENDBRANCH   1  27
TORSDOF 8
ENDMDL
MODEL 3
REMARK VINA RESULT:      -8.4      1.490      6.027
REMARK  Name = 44259829
REMARK  8 active torsions:
REMARK  status: ('A' for Active; 'I' for Inactive)
REMARK    1  A    between atoms: O_2  and  C_18
REMARK    2  A    between atoms: O_2  and  C_20
REMARK    3  A    between atoms: O_7  and  C_21
REMARK    4  A    between atoms: O_9  and  C_27
REMARK    5  A    between atoms: O_10  and  C_33
REMARK    6  A    between atoms: O_13  and  C_35
REMARK    7  A    between atoms: C_16  and  C_19
REMARK    8  A    between atoms: C_23  and  C_26
REMARK                            x       y       z     vdW  Elec       q    Type
REMARK                         _______ _______ _______ _____ _____    ______ ____
ROOT
ATOM      1  C   UNL     1     112.208 127.581 137.161  0.00  0.00    +0.000 A 
ATOM      2  C   UNL     1     111.814 128.009 137.745  0.00  0.00    +0.000 A 
ATOM      3  C   UNL     1     111.969 127.642 136.373  0.00  0.00    +0.000 A 
ATOM      4  C   UNL     1     110.941 128.559 136.756  0.00  0.00    +0.000 A 
ATOM      5  C   UNL     1     111.181 128.498 137.543  0.00  0.00    +0.000 A 
ATOM      6  C   UNL     1     111.336 128.130 136.171  0.00  0.00    +0.000 A 
ENDROOT
BRANCH   4  10
ATOM      7  O   UNL     1     110.415 129.865 136.512  0.00  0.00    +0.000 OA
ATOM      8  O   UNL     1     108.196 128.879 136.029  0.00  0.00    +0.000 OA
ATOM      9  O   UNL     1     107.639 130.186 135.778  0.00  0.00    +0.000 OA
ATOM     10  C   UNL     1     110.308 129.047 136.554  0.00  0.00    +0.000 A 
ATOM     11  C   UNL     1     109.569 128.719 136.393  0.00  0.00    +0.000 A 
ATOM     12  C   UNL     1     109.042 130.025 136.149  0.00  0.00    +0.000 A 
ATOM     13  C   UNL     1     109.782 130.353 136.310  0.00  0.00    +0.000 A 
ATOM     14  C   UNL     1     108.936 129.208 136.190  0.00  0.00    +0.000 A 
ATOM     15  C   UNL     1     108.375 130.523 135.937  0.00  0.00    +0.000 A 
ATOM     16  C   UNL     1     109.905 131.203 136.270  0.00  0.00    +0.000 A 
ATOM     17  C   UNL     1     108.479 131.375 135.892  0.00  0.00    +0.000 A 
ATOM     18  C   UNL     1     109.249 131.717 136.059  0.00  0.00    +0.000 A 
BRANCH  11  19
ATOM     19  O   UNL     1     109.462 127.902 136.434  0.00  0.00    +0.000 OA
ATOM     20  C   UNL     1     108.798 127.555 136.091  0.00  0.00    +0.000 C 
ENDBRANCH  11  19
BRANCH  17  21
ATOM     21  O   UNL     1     107.844 131.862 135.689  0.00  0.00    +0.000 OA
ATOM     22  C   UNL     1     107.688 132.027 134.896  0.00  0.00    +0.000 C 
ENDBRANCH  17  21
BRANCH  18  23
ATOM     23  O   UNL     1     109.358 132.534 136.019  0.00  0.00    +0.000 OA
ATOM     24  C   UNL     1     109.999 132.884 136.404  0.00  0.00    +0.000 C 
ENDBRANCH  18  23
ENDBRANCH   4  10
BRANCH   2  25
ATOM     25  O   UNL     1     112.052 127.949 138.533  0.00  0.00    +0.000 OA
ATOM     26  C   UNL     1     111.911 128.570 139.056  0.00  0.00    +0.000 C 
ENDBRANCH   2  25
BRANCH   1  27
ATOM     27  O   UNL     1     112.841 127.093 137.363  0.00  0.00    +0.000 OA
BRANCH  27  36
ATOM     28  O   UNL     1     112.189 125.822 137.327  0.00  0.00    +0.000 OA
ATOM     29  O   UNL     1     114.118 124.867 136.105  0.00  0.00    +0.000 OA
ATOM     30  O   UNL     1     112.823 123.915 136.476  0.00  0.00    +0.000 OA
ATOM     31  O   UNL     1     114.127 126.456 136.548  0.00  0.00    +0.000 OA
ATOM     32  C   UNL     1     113.475 125.185 136.512  0.00  0.00    +0.000 C 
ATOM     33  C   UNL     1     112.828 124.709 136.697  0.00  0.00    +0.000 C 
ATOM     34  C   UNL     1     112.185 125.027 137.105  0.00  0.00    +0.000 C 
ATOM     35  C   UNL     1     113.480 125.980 136.734  0.00  0.00    +0.000 C 
ATOM     36  C   UNL     1     112.837 126.298 137.141  0.00  0.00    +0.000 C 
BRANCH  34  38
ATOM     37  O   UNL     1     111.217 124.570 138.052  0.00  0.00    +0.000 OA
ATOM     38  C   UNL     1     111.537 124.552 137.290  0.00  0.00    +0.000 C 
ENDBRANCH  34  38
ENDBRANCH  27  36
ENDBRANCH   1  27
TORSDOF 8
ENDMDL
MODEL 4
REMARK VINA RESULT:      -8.3      1.430      2.703
REMARK  Name = 44259829
REMARK  8 active torsions:
REMARK  status: ('A' for Active; 'I' for Inactive)
REMARK    1  A    between atoms: O_2  and  C_18
REMARK    2  A    between atoms: O_2  and  C_20
REMARK    3  A    between atoms: O_7  and  C_21
REMARK    4  A    between atoms: O_9  and  C_27
REMARK    5  A    between atoms: O_10  and  C_33
REMARK    6  A    between atoms: O_13  and  C_35
REMARK    7  A    between atoms: C_16  and  C_19
REMARK    8  A    between atoms: C_23  and  C_26
REMARK                            x       y       z     vdW  Elec       q    Type
REMARK                         _______ _______ _______ _____ _____    ______ ____
ROOT
ATOM      1  C   UNL     1     109.549 129.082 136.878  0.00  0.00    +0.000 A 
ATOM      2  C   UNL     1     109.867 128.744 137.560  0.00  0.00    +0.000 A 
ATOM      3  C   UNL     1     109.894 128.934 136.144  0.00  0.00    +0.000 A 
ATOM      4  C   UNL     1     110.877 128.108 136.774  0.00  0.00    +0.000 A 
ATOM      5  C   UNL     1     110.531 128.257 137.507  0.00  0.00    +0.000 A 
ATOM      6  C   UNL     1     110.558 128.446 136.091  0.00  0.00    +0.000 A 
ENDROOT
BRANCH   4  10
ATOM      7  O   UNL     1     111.452 126.800 136.736  0.00  0.00    +0.000 OA
ATOM      8  O   UNL     1     113.708 127.799 136.534  0.00  0.00    +0.000 OA
ATOM      9  O   UNL     1     114.314 126.491 136.494  0.00  0.00    +0.000 OA
ATOM     10  C   UNL     1     111.541 127.621 136.721  0.00  0.00    +0.000 A 
ATOM     11  C   UNL     1     112.292 127.953 136.654  0.00  0.00    +0.000 A 
ATOM     12  C   UNL     1     112.868 126.646 136.616  0.00  0.00    +0.000 A 
ATOM     13  C   UNL     1     112.115 126.313 136.683  0.00  0.00    +0.000 A 
ATOM     14  C   UNL     1     112.955 127.466 136.602  0.00  0.00    +0.000 A 
ATOM     15  C   UNL     1     113.567 126.149 136.561  0.00  0.00    +0.000 A 
ATOM     16  C   UNL     1     112.011 125.460 136.700  0.00  0.00    +0.000 A 
ATOM     17  C   UNL     1     113.482 125.294 136.576  0.00  0.00    +0.000 A 
ATOM     18  C   UNL     1     112.699 124.948 136.646  0.00  0.00    +0.000 A 
BRANCH  11  19
ATOM     19  O   UNL     1     112.381 128.774 136.639  0.00  0.00    +0.000 OA
ATOM     20  C   UNL     1     113.094 129.116 136.872  0.00  0.00    +0.000 C 
ENDBRANCH  11  19
BRANCH  17  21
ATOM     21  O   UNL     1     114.147 124.809 136.523  0.00  0.00    +0.000 OA
ATOM     22  C   UNL     1     114.612 124.673 137.191  0.00  0.00    +0.000 C 
ENDBRANCH  17  21
BRANCH  18  23
ATOM     23  O   UNL     1     112.607 124.128 136.660  0.00  0.00    +0.000 OA
ATOM     24  C   UNL     1     111.858 123.795 136.568  0.00  0.00    +0.000 C 
ENDBRANCH  18  23
ENDBRANCH   4  10
BRANCH   2  25
ATOM     25  O   UNL     1     109.522 128.893 138.295  0.00  0.00    +0.000 OA
ATOM     26  C   UNL     1     109.774 128.478 138.961  0.00  0.00    +0.000 C 
ENDBRANCH   2  25
BRANCH   1  27
ATOM     27  O   UNL     1     108.886 129.569 136.931  0.00  0.00    +0.000 OA
BRANCH  27  36
ATOM     28  O   UNL     1     109.506 130.837 136.707  0.00  0.00    +0.000 OA
ATOM     29  O   UNL     1     107.655 131.474 135.192  0.00  0.00    +0.000 OA
ATOM     30  O   UNL     1     108.891 132.529 135.473  0.00  0.00    +0.000 OA
ATOM     31  O   UNL     1     107.652 129.994 135.921  0.00  0.00    +0.000 OA
ATOM     32  C   UNL     1     108.272 131.262 135.697  0.00  0.00    +0.000 C 
ATOM     33  C   UNL     1     108.890 131.790 135.837  0.00  0.00    +0.000 C 
ATOM     34  C   UNL     1     109.506 131.577 136.342  0.00  0.00    +0.000 C 
ATOM     35  C   UNL     1     108.270 130.522 136.061  0.00  0.00    +0.000 C 
ATOM     36  C   UNL     1     108.887 130.309 136.566  0.00  0.00    +0.000 C 
BRANCH  34  38
ATOM     37  O   UNL     1     110.410 132.210 137.251  0.00  0.00    +0.000 OA
ATOM     38  C   UNL     1     110.125 132.104 136.483  0.00  0.00    +0.000 C 
ENDBRANCH  34  38
ENDBRANCH  27  36
ENDBRANCH   1  27
TORSDOF 8
ENDMDL
MODEL 5
REMARK VINA RESULT:      -8.2      3.642      4.384
REMARK  Name = 44259829
REMARK  8 active torsions:
REMARK  status: ('A' for Active; 'I' for Inactive)
REMARK    1  A    between atoms: O_2  and  C_18
REMARK    2  A    between atoms: O_2  and  C_20
REMARK    3  A    between atoms: O_7  and  C_21
REMARK    4  A    between atoms: O_9  and  C_27
REMARK    5  A    between atoms: O_10  and  C_33
REMARK    6  A    between atoms: O_13  and  C_35
REMARK    7  A    between atoms: C_16  and  C_19
REMARK    8  A    between atoms: C_23  and  C_26
REMARK                            x       y       z     vdW  Elec       q    Type
REMARK                         _______ _______ _______ _____ _____    ______ ____
ROOT
ATOM      1  C   UNL     1     113.467 128.540 140.595  0.00  0.00    +0.000 A 
ATOM      2  C   UNL     1     113.798 127.787 140.651  0.00  0.00    +0.000 A 
ATOM      3  C   UNL     1     112.882 128.694 140.035  0.00  0.00    +0.000 A 
ATOM      4  C   UNL     1     112.958 127.339 139.585  0.00  0.00    +0.000 A 
ATOM      5  C   UNL     1     113.543 127.186 140.146  0.00  0.00    +0.000 A 
ATOM      6  C   UNL     1     112.627 128.094 139.530  0.00  0.00    +0.000 A 
ENDROOT
BRANCH   4  10
ATOM      7  O   UNL     1     113.200 126.466 138.481  0.00  0.00    +0.000 OA
ATOM      8  O   UNL     1     110.945 125.484 138.763  0.00  0.00    +0.000 OA
ATOM      9  O   UNL     1     111.163 124.591 137.652  0.00  0.00    +0.000 OA
ATOM     10  C   UNL     1     112.703 126.739 139.080  0.00  0.00    +0.000 A 
ATOM     11  C   UNL     1     111.952 126.412 139.174  0.00  0.00    +0.000 A 
ATOM     12  C   UNL     1     112.193 125.538 138.070  0.00  0.00    +0.000 A 
ATOM     13  C   UNL     1     112.945 125.865 137.975  0.00  0.00    +0.000 A 
ATOM     14  C   UNL     1     111.697 125.812 138.669  0.00  0.00    +0.000 A 
ATOM     15  C   UNL     1     111.916 124.912 137.550  0.00  0.00    +0.000 A 
ATOM     16  C   UNL     1     113.472 125.588 137.354  0.00  0.00    +0.000 A 
ATOM     17  C   UNL     1     112.429 124.623 136.923  0.00  0.00    +0.000 A 
ATOM     18  C   UNL     1     113.211 124.964 136.825  0.00  0.00    +0.000 A 
BRANCH  11  19
ATOM     19  O   UNL     1     111.454 126.685 139.773  0.00  0.00    +0.000 OA
ATOM     20  C   UNL     1     110.816 126.226 140.021  0.00  0.00    +0.000 C 
ENDBRANCH  11  19
BRANCH  17  21
ATOM     21  O   UNL     1     112.171 124.022 136.420  0.00  0.00    +0.000 OA
ATOM     22  C   UNL     1     112.144 123.242 136.688  0.00  0.00    +0.000 C 
ENDBRANCH  17  21
BRANCH  18  23
ATOM     23  O   UNL     1     113.710 124.692 136.227  0.00  0.00    +0.000 OA
ATOM     24  C   UNL     1     114.463 125.019 136.138  0.00  0.00    +0.000 C 
ENDBRANCH  18  23
ENDBRANCH   4  10
BRANCH   2  25
ATOM     25  O   UNL     1     114.383 127.633 141.211  0.00  0.00    +0.000 OA
ATOM     26  C   UNL     1     114.903 127.002 141.103  0.00  0.00    +0.000 C 
ENDBRANCH   2  25
BRANCH   1  27
ATOM     27  O   UNL     1     113.722 129.140 141.100  0.00  0.00    +0.000 OA
BRANCH  27  36
ATOM     28  O   UNL     1     112.604 129.133 141.990  0.00  0.00    +0.000 OA
ATOM     29  O   UNL     1     112.681 131.605 142.106  0.00  0.00    +0.000 OA
ATOM     30  O   UNL     1     111.538 130.774 142.957  0.00  0.00    +0.000 OA
ATOM     31  O   UNL     1     113.773 130.788 141.177  0.00  0.00    +0.000 OA
ATOM     32  C   UNL     1     112.655 130.781 142.067  0.00  0.00    +0.000 C 
ATOM     33  C   UNL     1     112.084 130.366 142.493  0.00  0.00    +0.000 C 
ATOM     34  C   UNL     1     112.058 129.542 142.454  0.00  0.00    +0.000 C 
ATOM     35  C   UNL     1     113.202 130.373 141.603  0.00  0.00    +0.000 C 
ATOM     36  C   UNL     1     113.176 129.549 141.564  0.00  0.00    +0.000 C 
BRANCH  34  38
ATOM     37  O   UNL     1     111.703 128.462 143.319  0.00  0.00    +0.000 OA
ATOM     38  C   UNL     1     111.487 129.126 142.880  0.00  0.00    +0.000 C 
ENDBRANCH  34  38
ENDBRANCH  27  36
ENDBRANCH   1  27
TORSDOF 8
ENDMDL
MODEL 6
REMARK VINA RESULT:      -8.2      1.052      6.080
REMARK  Name = 44259829
REMARK  8 active torsions:
REMARK  status: ('A' for Active; 'I' for Inactive)
REMARK    1  A    between atoms: O_2  and  C_18
REMARK    2  A    between atoms: O_2  and  C_20
REMARK    3  A    between atoms: O_7  and  C_21
REMARK    4  A    between atoms: O_9  and  C_27
REMARK    5  A    between atoms: O_10  and  C_33
REMARK    6  A    between atoms: O_13  and  C_35
REMARK    7  A    between atoms: C_16  and  C_19
REMARK    8  A    between atoms: C_23  and  C_26
REMARK                            x       y       z     vdW  Elec       q    Type
REMARK                         _______ _______ _______ _____ _____    ______ ____
ROOT
ATOM      1  C   UNL     1     113.199 127.277 136.776  0.00  0.00    +0.000 A 
ATOM      2  C   UNL     1     113.416 127.928 136.320  0.00  0.00    +0.000 A 
ATOM      3  C   UNL     1     112.621 127.354 137.359  0.00  0.00    +0.000 A 
ATOM      4  C   UNL     1     112.475 128.737 137.029  0.00  0.00    +0.000 A 
ATOM      5  C   UNL     1     113.054 128.659 136.447  0.00  0.00    +0.000 A 
ATOM      6  C   UNL     1     112.258 128.084 137.486  0.00  0.00    +0.000 A 
ENDROOT
BRANCH   4  10
ATOM      7  O   UNL     1     111.524 129.730 136.641  0.00  0.00    +0.000 OA
ATOM      8  O   UNL     1     112.204 131.133 138.564  0.00  0.00    +0.000 OA
ATOM      9  O   UNL     1     111.252 132.151 138.194  0.00  0.00    +0.000 OA
ATOM     10  C   UNL     1     112.113 129.468 137.156  0.00  0.00    +0.000 A 
ATOM     11  C   UNL     1     112.340 129.935 137.796  0.00  0.00    +0.000 A 
ATOM     12  C   UNL     1     111.388 130.929 137.409  0.00  0.00    +0.000 A 
ATOM     13  C   UNL     1     111.162 130.461 136.767  0.00  0.00    +0.000 A 
ATOM     14  C   UNL     1     111.977 130.665 137.923  0.00  0.00    +0.000 A 
ATOM     15  C   UNL     1     111.019 131.691 137.551  0.00  0.00    +0.000 A 
ATOM     16  C   UNL     1     110.549 130.724 136.224  0.00  0.00    +0.000 A 
ATOM     17  C   UNL     1     110.404 131.971 137.019  0.00  0.00    +0.000 A 
ATOM     18  C   UNL     1     110.169 131.484 136.351  0.00  0.00    +0.000 A 
BRANCH  11  19
ATOM     19  O   UNL     1     112.929 129.672 138.311  0.00  0.00    +0.000 OA
ATOM     20  C   UNL     1     113.390 130.217 138.723  0.00  0.00    +0.000 C 
ENDBRANCH  11  19
BRANCH  17  21
ATOM     21  O   UNL     1     110.044 132.702 137.147  0.00  0.00    +0.000 OA
ATOM     22  C   UNL     1     110.410 133.394 136.887  0.00  0.00    +0.000 C 
ENDBRANCH  17  21
BRANCH  18  23
ATOM     23  O   UNL     1     109.580 131.744 135.835  0.00  0.00    +0.000 OA
ATOM     24  C   UNL     1     109.229 131.214 135.308  0.00  0.00    +0.000 C 
ENDBRANCH  18  23
ENDBRANCH   4  10
BRANCH   2  25
ATOM     25  O   UNL     1     113.995 127.851 135.737  0.00  0.00    +0.000 OA
ATOM     26  C   UNL     1     114.354 128.522 135.420  0.00  0.00    +0.000 C 
ENDBRANCH   2  25
BRANCH   1  27
ATOM     27  O   UNL     1     113.562 126.546 136.650  0.00  0.00    +0.000 OA
BRANCH  27  36
ATOM     28  O   UNL     1     112.371 125.874 136.233  0.00  0.00    +0.000 OA
ATOM     29  O   UNL     1     113.201 123.776 137.251  0.00  0.00    +0.000 OA
ATOM     30  O   UNL     1     111.735 123.803 136.496  0.00  0.00    +0.000 OA
ATOM     31  O   UNL     1     114.115 125.148 137.328  0.00  0.00    +0.000 OA
ATOM     32  C   UNL     1     112.925 124.475 136.912  0.00  0.00    +0.000 C 
ATOM     33  C   UNL     1     112.192 124.488 136.534  0.00  0.00    +0.000 C 
ATOM     34  C   UNL     1     111.915 125.188 136.195  0.00  0.00    +0.000 C 
ATOM     35  C   UNL     1     113.382 125.161 136.950  0.00  0.00    +0.000 C 
ATOM     36  C   UNL     1     113.105 125.860 136.611  0.00  0.00    +0.000 C 
BRANCH  34  38
ATOM     37  O   UNL     1     111.099 125.590 135.094  0.00  0.00    +0.000 OA
ATOM     38  C   UNL     1     111.182 125.202 135.818  0.00  0.00    +0.000 C 
ENDBRANCH  34  38
ENDBRANCH  27  36
ENDBRANCH   1  27
TORSDOF 8
ENDMDL
MODEL 7
REMARK VINA RESULT:      -8.2      9.881     11.413
REMARK  Name = 44259829
REMARK  8 active torsions:
REMARK  status: ('A' for Active; 'I' for Inactive)
REMARK    1  A    between atoms: O_2  and  C_18
REMARK    2  A    between atoms: O_2  and  C_20
REMARK    3  A    between atoms: O_7  and  C_21
REMARK    4  A    between atoms: O_9  and  C_27
REMARK    5  A    between atoms: O_10  and  C_33
REMARK    6  A    between atoms: O_13  and  C_35
REMARK    7  A    between atoms: C_16  and  C_19
REMARK    8  A    between atoms: C_23  and  C_26
REMARK                            x       y       z     vdW  Elec       q    Type
REMARK                         _______ _______ _______ _____ _____    ______ ____
ROOT
ATOM      1  C   UNL     1     106.544 126.888 145.201  0.00  0.00    +0.000 A 
ATOM      2  C   UNL     1     106.804 127.586 144.849  0.00  0.00    +0.000 A 
ATOM      3  C   UNL     1     105.869 126.507 144.916  0.00  0.00    +0.000 A 
ATOM      4  C   UNL     1     105.716 127.525 143.923  0.00  0.00    +0.000 A 
ATOM      5  C   UNL     1     106.390 127.904 144.210  0.00  0.00    +0.000 A 
ATOM      6  C   UNL     1     105.456 126.825 144.277  0.00  0.00    +0.000 A 
ENDROOT
BRANCH   4  10
ATOM      7  O   UNL     1     104.818 128.502 143.395  0.00  0.00    +0.000 OA
ATOM      8  O   UNL     1     105.031 127.481 141.149  0.00  0.00    +0.000 OA
ATOM      9  O   UNL     1     104.127 128.456 140.590  0.00  0.00    +0.000 OA
ATOM     10  C   UNL     1     105.303 127.843 143.285  0.00  0.00    +0.000 A 
ATOM     11  C   UNL     1     105.374 127.503 142.537  0.00  0.00    +0.000 A 
ATOM     12  C   UNL     1     104.476 128.480 142.007  0.00  0.00    +0.000 A 
ATOM     13  C   UNL     1     104.405 128.820 142.756  0.00  0.00    +0.000 A 
ATOM     14  C   UNL     1     104.960 127.821 141.898  0.00  0.00    +0.000 A 
ATOM     15  C   UNL     1     104.050 128.802 141.334  0.00  0.00    +0.000 A 
ATOM     16  C   UNL     1     103.902 129.507 142.882  0.00  0.00    +0.000 A 
ATOM     17  C   UNL     1     103.543 129.489 141.441  0.00  0.00    +0.000 A 
ATOM     18  C   UNL     1     103.469 129.843 142.220  0.00  0.00    +0.000 A 
BRANCH  11  19
ATOM     19  O   UNL     1     105.858 126.844 142.427  0.00  0.00    +0.000 OA
ATOM     20  C   UNL     1     106.052 126.596 141.665  0.00  0.00    +0.000 C 
ENDBRANCH  11  19
BRANCH  17  21
ATOM     21  O   UNL     1     103.131 129.805 140.800  0.00  0.00    +0.000 OA
ATOM     22  C   UNL     1     102.438 129.443 140.537  0.00  0.00    +0.000 C 
ENDBRANCH  17  21
BRANCH  18  23
ATOM     23  O   UNL     1     102.985 130.501 142.333  0.00  0.00    +0.000 OA
ATOM     24  C   UNL     1     103.027 130.928 143.038  0.00  0.00    +0.000 C 
ENDBRANCH  18  23
ENDBRANCH   4  10
BRANCH   2  25
ATOM     25  O   UNL     1     107.478 127.967 145.134  0.00  0.00    +0.000 OA
ATOM     26  C   UNL     1     107.701 128.698 144.826  0.00  0.00    +0.000 C 
ENDBRANCH   2  25
BRANCH   1  27
ATOM     27  O   UNL     1     106.957 126.569 145.840  0.00  0.00    +0.000 OA
BRANCH  27  36
ATOM     28  O   UNL     1     106.021 126.742 146.906  0.00  0.00    +0.000 OA
ATOM     29  O   UNL     1     106.363 124.387 147.587  0.00  0.00    +0.000 OA
ATOM     30  O   UNL     1     105.314 125.344 148.425  0.00  0.00    +0.000 OA
ATOM     31  O   UNL     1     107.185 124.999 146.294  0.00  0.00    +0.000 OA
ATOM     32  C   UNL     1     106.249 125.172 147.360  0.00  0.00    +0.000 C 
ATOM     33  C   UNL     1     105.724 125.650 147.779  0.00  0.00    +0.000 C 
ATOM     34  C   UNL     1     105.611 126.435 147.552  0.00  0.00    +0.000 C 
ATOM     35  C   UNL     1     106.660 125.477 146.713  0.00  0.00    +0.000 C 
ATOM     36  C   UNL     1     106.546 126.262 146.486  0.00  0.00    +0.000 C 
BRANCH  34  38
ATOM     37  O   UNL     1     105.294 127.692 148.153  0.00  0.00    +0.000 OA
ATOM     38  C   UNL     1     105.086 126.914 147.971  0.00  0.00    +0.000 C 
ENDBRANCH  34  38
ENDBRANCH  27  36
ENDBRANCH   1  27
TORSDOF 8
ENDMDL
MODEL 8
REMARK VINA RESULT:      -8.1      2.733      5.979
REMARK  Name = 44259829
REMARK  8 active torsions:
REMARK  status: ('A' for Active; 'I' for Inactive)
REMARK    1  A    between atoms: O_2  and  C_18
REMARK    2  A    between atoms: O_2  and  C_20
REMARK    3  A    between atoms: O_7  and  C_21
REMARK    4  A    between atoms: O_9  and  C_27
REMARK    5  A    between atoms: O_10  and  C_33
REMARK    6  A    between atoms: O_13  and  C_35
REMARK    7  A    between atoms: C_16  and  C_19
REMARK    8  A    between atoms: C_23  and  C_26
REMARK                            x       y       z     vdW  Elec       q    Type
REMARK                         _______ _______ _______ _____ _____    ______ ____
ROOT
ATOM      1  C   UNL     1     113.303 126.932 137.255  0.00  0.00    +0.000 A 
ATOM      2  C   UNL     1     113.255 127.735 137.076  0.00  0.00    +0.000 A 
ATOM      3  C   UNL     1     113.178 126.672 138.028  0.00  0.00    +0.000 A 
ATOM      4  C   UNL     1     112.957 128.022 138.444  0.00  0.00    +0.000 A 
ATOM      5  C   UNL     1     113.081 128.280 137.671  0.00  0.00    +0.000 A 
ATOM      6  C   UNL     1     113.005 127.217 138.623  0.00  0.00    +0.000 A 
ENDROOT
BRANCH   4  10
ATOM      7  O   UNL     1     113.393 128.985 139.405  0.00  0.00    +0.000 OA
ATOM      8  O   UNL     1     111.044 129.365 140.090  0.00  0.00    +0.000 OA
ATOM      9  O   UNL     1     111.458 130.341 141.067  0.00  0.00    +0.000 OA
ATOM     10  C   UNL     1     112.783 128.567 139.039  0.00  0.00    +0.000 A 
ATOM     11  C   UNL     1     112.001 128.693 139.267  0.00  0.00    +0.000 A 
ATOM     12  C   UNL     1     112.436 129.657 140.228  0.00  0.00    +0.000 A 
ATOM     13  C   UNL     1     113.220 129.530 140.000  0.00  0.00    +0.000 A 
ATOM     14  C   UNL     1     111.828 129.238 139.861  0.00  0.00    +0.000 A 
ATOM     15  C   UNL     1     112.243 130.221 140.846  0.00  0.00    +0.000 A 
ATOM     16  C   UNL     1     113.863 129.960 140.375  0.00  0.00    +0.000 A 
ATOM     17  C   UNL     1     112.874 130.661 141.232  0.00  0.00    +0.000 A 
ATOM     18  C   UNL     1     113.689 130.528 140.994  0.00  0.00    +0.000 A 
BRANCH  11  19
ATOM     19  O   UNL     1     111.391 128.275 138.900  0.00  0.00    +0.000 OA
ATOM     20  C   UNL     1     110.633 128.596 138.866  0.00  0.00    +0.000 C 
ENDBRANCH  11  19
BRANCH  17  21
ATOM     21  O   UNL     1     112.697 131.205 141.826  0.00  0.00    +0.000 OA
ATOM     22  C   UNL     1     112.504 130.941 142.584  0.00  0.00    +0.000 C 
ENDBRANCH  17  21
BRANCH  18  23
ATOM     23  O   UNL     1     114.300 130.945 141.359  0.00  0.00    +0.000 OA
ATOM     24  C   UNL     1     115.018 131.052 140.966  0.00  0.00    +0.000 C 
ENDBRANCH  18  23
ENDBRANCH   4  10
BRANCH   2  25
ATOM     25  O   UNL     1     113.380 127.995 136.303  0.00  0.00    +0.000 OA
ATOM     26  C   UNL     1     113.642 128.763 136.163  0.00  0.00    +0.000 C 
ENDBRANCH   2  25
BRANCH   1  27
ATOM     27  O   UNL     1     113.477 126.387 136.660  0.00  0.00    +0.000 OA
BRANCH  27  36
ATOM     28  O   UNL     1     112.205 125.770 136.449  0.00  0.00    +0.000 OA
ATOM     29  O   UNL     1     113.265 123.538 136.586  0.00  0.00    +0.000 OA
ATOM     30  O   UNL     1     111.641 123.665 136.329  0.00  0.00    +0.000 OA
ATOM     31  O   UNL     1     114.183 124.899 136.751  0.00  0.00    +0.000 OA
ATOM     32  C   UNL     1     112.912 124.282 136.540  0.00  0.00    +0.000 C 
ATOM     33  C   UNL     1     112.100 124.345 136.412  0.00  0.00    +0.000 C 
ATOM     34  C   UNL     1     111.747 125.089 136.367  0.00  0.00    +0.000 C 
ATOM     35  C   UNL     1     113.372 124.962 136.623  0.00  0.00    +0.000 C 
ATOM     36  C   UNL     1     113.018 125.706 136.578  0.00  0.00    +0.000 C 
BRANCH  34  38
ATOM     37  O   UNL     1     110.644 125.719 135.712  0.00  0.00    +0.000 OA
ATOM     38  C   UNL     1     110.934 125.153 136.238  0.00  0.00    +0.000 C 
ENDBRANCH  34  38
ENDBRANCH  27  36
ENDBRANCH   1  27
TORSDOF 8
ENDMDL
MODEL 9
REMARK VINA RESULT:      -8.0      1.699      2.188
REMARK  Name = 44259829
REMARK  8 active torsions:
REMARK  status: ('A' for Active; 'I' for Inactive)
REMARK    1  A    between atoms: O_2  and  C_18
REMARK    2  A    between atoms: O_2  and  C_20
REMARK    3  A    between atoms: O_7  and  C_21
REMARK    4  A    between atoms: O_9  and  C_27
REMARK    5  A    between atoms: O_10  and  C_33
REMARK    6  A    between atoms: O_13  and  C_35
REMARK    7  A    between atoms: C_16  and  C_19
REMARK    8  A    between atoms: C_23  and  C_26
REMARK                            x       y       z     vdW  Elec       q    Type
REMARK                         _______ _______ _______ _____ _____    ______ ____
ROOT
ATOM      1  C   UNL     1     112.279 130.510 137.578  0.00  0.00    +0.000 A 
ATOM      2  C   UNL     1     112.868 130.165 138.041  0.00  0.00    +0.000 A 
ATOM      3  C   UNL     1     111.763 130.034 137.145  0.00  0.00    +0.000 A 
ATOM      4  C   UNL     1     112.427 128.868 137.636  0.00  0.00    +0.000 A 
ATOM      5  C   UNL     1     112.942 129.344 138.069  0.00  0.00    +0.000 A 
ATOM      6  C   UNL     1     111.837 129.213 137.173  0.00  0.00    +0.000 A 
ENDROOT
BRANCH   4  10
ATOM      7  O   UNL     1     113.056 127.666 137.188  0.00  0.00    +0.000 OA
ATOM      8  O   UNL     1     111.612 126.346 138.705  0.00  0.00    +0.000 OA
ATOM      9  O   UNL     1     112.231 125.117 138.270  0.00  0.00    +0.000 OA
ATOM     10  C   UNL     1     112.501 128.046 137.665  0.00  0.00    +0.000 A 
ATOM     11  C   UNL     1     112.020 127.607 138.170  0.00  0.00    +0.000 A 
ATOM     12  C   UNL     1     112.648 126.404 137.723  0.00  0.00    +0.000 A 
ATOM     13  C   UNL     1     113.130 126.845 137.217  0.00  0.00    +0.000 A 
ATOM     14  C   UNL     1     112.094 126.786 138.199  0.00  0.00    +0.000 A 
ATOM     15  C   UNL     1     112.716 125.549 137.762  0.00  0.00    +0.000 A 
ATOM     16  C   UNL     1     113.712 126.458 136.715  0.00  0.00    +0.000 A 
ATOM     17  C   UNL     1     113.292 125.145 137.267  0.00  0.00    +0.000 A 
ATOM     18  C   UNL     1     113.793 125.603 136.741  0.00  0.00    +0.000 A 
BRANCH  11  19
ATOM     19  O   UNL     1     111.465 127.988 138.647  0.00  0.00    +0.000 OA
ATOM     20  C   UNL     1     111.195 127.625 139.337  0.00  0.00    +0.000 C 
ENDBRANCH  11  19
BRANCH  17  21
ATOM     21  O   UNL     1     113.364 124.324 137.298  0.00  0.00    +0.000 OA
ATOM     22  C   UNL     1     112.844 123.848 136.869  0.00  0.00    +0.000 C 
ENDBRANCH  17  21
BRANCH  18  23
ATOM     23  O   UNL     1     114.349 125.225 136.263  0.00  0.00    +0.000 OA
ATOM     24  C   UNL     1     115.032 125.625 136.029  0.00  0.00    +0.000 C 
ENDBRANCH  18  23
ENDBRANCH   4  10
BRANCH   2  25
ATOM     25  O   UNL     1     113.385 130.641 138.475  0.00  0.00    +0.000 OA
ATOM     26  C   UNL     1     114.137 130.365 138.667  0.00  0.00    +0.000 C 
ENDBRANCH   2  25
BRANCH   1  27
ATOM     27  O   UNL     1     112.205 131.331 137.550  0.00  0.00    +0.000 OA
BRANCH  27  36
ATOM     28  O   UNL     1     111.055 131.476 138.385  0.00  0.00    +0.000 OA
ATOM     29  O   UNL     1     110.139 133.170 136.830  0.00  0.00    +0.000 OA
ATOM     30  O   UNL     1     109.295 132.750 138.183  0.00  0.00    +0.000 OA
ATOM     31  O   UNL     1     111.595 132.460 136.513  0.00  0.00    +0.000 OA
ATOM     32  C   UNL     1     110.445 132.605 137.348  0.00  0.00    +0.000 C 
ATOM     33  C   UNL     1     110.022 132.396 138.025  0.00  0.00    +0.000 C 
ATOM     34  C   UNL     1     110.328 131.831 138.543  0.00  0.00    +0.000 C 
ATOM     35  C   UNL     1     111.172 132.251 137.189  0.00  0.00    +0.000 C 
ATOM     36  C   UNL     1     111.478 131.686 137.708  0.00  0.00    +0.000 C 
BRANCH  34  38
ATOM     37  O   UNL     1     110.283 131.613 139.955  0.00  0.00    +0.000 OA
ATOM     38  C   UNL     1     109.906 131.621 139.220  0.00  0.00    +0.000 C 
ENDBRANCH  34  38
ENDBRANCH  27  36
ENDBRANCH   1  27
TORSDOF 8
ENDMDL
MODEL 10
REMARK VINA RESULT:      -7.9      1.549      6.277
REMARK  Name = 44259829
REMARK  8 active torsions:
REMARK  status: ('A' for Active; 'I' for Inactive)
REMARK    1  A    between atoms: O_2  and  C_18
REMARK    2  A    between atoms: O_2  and  C_20
REMARK    3  A    between atoms: O_7  and  C_21
REMARK    4  A    between atoms: O_9  and  C_27
REMARK    5  A    between atoms: O_10  and  C_33
REMARK    6  A    between atoms: O_13  and  C_35
REMARK    7  A    between atoms: C_16  and  C_19
REMARK    8  A    between atoms: C_23  and  C_26
REMARK                            x       y       z     vdW  Elec       q    Type
REMARK                         _______ _______ _______ _____ _____    ______ ____
ROOT
ATOM      1  C   UNL     1     113.186 127.142 138.364  0.00  0.00    +0.000 A 
ATOM      2  C   UNL     1     112.729 127.583 138.890  0.00  0.00    +0.000 A 
ATOM      3  C   UNL     1     113.330 127.427 137.603  0.00  0.00    +0.000 A 
ATOM      4  C   UNL     1     112.559 128.595 137.896  0.00  0.00    +0.000 A 
ATOM      5  C   UNL     1     112.415 128.309 138.656  0.00  0.00    +0.000 A 
ATOM      6  C   UNL     1     113.017 128.154 137.369  0.00  0.00    +0.000 A 
ENDROOT
BRANCH   4  10
ATOM      7  O   UNL     1     111.458 129.373 137.422  0.00  0.00    +0.000 OA
ATOM      8  O   UNL     1     112.882 131.397 137.437  0.00  0.00    +0.000 OA
ATOM      9  O   UNL     1     111.787 132.206 136.960  0.00  0.00    +0.000 OA
ATOM     10  C   UNL     1     112.246 129.322 137.661  0.00  0.00    +0.000 A 
ATOM     11  C   UNL     1     112.721 129.996 137.667  0.00  0.00    +0.000 A 
ATOM     12  C   UNL     1     111.620 130.774 137.193  0.00  0.00    +0.000 A 
ATOM     13  C   UNL     1     111.145 130.099 137.188  0.00  0.00    +0.000 A 
ATOM     14  C   UNL     1     112.407 130.722 137.432  0.00  0.00    +0.000 A 
ATOM     15  C   UNL     1     111.305 131.537 136.951  0.00  0.00    +0.000 A 
ATOM     16  C   UNL     1     110.322 130.141 136.941  0.00  0.00    +0.000 A 
ATOM     17  C   UNL     1     110.485 131.597 136.701  0.00  0.00    +0.000 A 
ATOM     18  C   UNL     1     109.991 130.894 136.696  0.00  0.00    +0.000 A 
BRANCH  11  19
ATOM     19  O   UNL     1     113.509 129.945 137.906  0.00  0.00    +0.000 OA
ATOM     20  C   UNL     1     113.912 130.622 138.145  0.00  0.00    +0.000 C 
ENDBRANCH  11  19
BRANCH  17  21
ATOM     21  O   UNL     1     110.175 132.325 136.467  0.00  0.00    +0.000 OA
ATOM     22  C   UNL     1     109.964 132.885 137.035  0.00  0.00    +0.000 C 
ENDBRANCH  17  21
BRANCH  18  23
ATOM     23  O   UNL     1     109.203 130.943 136.457  0.00  0.00    +0.000 OA
ATOM     24  C   UNL     1     108.772 130.254 136.314  0.00  0.00    +0.000 C 
ENDBRANCH  18  23
ENDBRANCH   4  10
BRANCH   2  25
ATOM     25  O   UNL     1     112.584 127.298 139.651  0.00  0.00    +0.000 OA
ATOM     26  C   UNL     1     112.249 127.791 140.220  0.00  0.00    +0.000 C 
ENDBRANCH   2  25
BRANCH   1  27
ATOM     27  O   UNL     1     113.499 126.416 138.598  0.00  0.00    +0.000 OA
BRANCH  27  36
ATOM     28  O   UNL     1     112.733 125.528 137.781  0.00  0.00    +0.000 OA
ATOM     29  O   UNL     1     114.795 124.295 137.187  0.00  0.00    +0.000 OA
ATOM     30  O   UNL     1     113.342 123.819 136.569  0.00  0.00    +0.000 OA
ATOM     31  O   UNL     1     114.874 125.594 138.202  0.00  0.00    +0.000 OA
ATOM     32  C   UNL     1     114.108 124.706 137.385  0.00  0.00    +0.000 C 
ATOM     33  C   UNL     1     113.382 124.468 137.076  0.00  0.00    +0.000 C 
ATOM     34  C   UNL     1     112.694 124.879 137.274  0.00  0.00    +0.000 C 
ATOM     35  C   UNL     1     114.148 125.356 137.893  0.00  0.00    +0.000 C 
ATOM     36  C   UNL     1     113.460 125.767 138.091  0.00  0.00    +0.000 C 
BRANCH  34  38
ATOM     37  O   UNL     1     111.300 124.619 137.451  0.00  0.00    +0.000 OA
ATOM     38  C   UNL     1     111.967 124.641 136.965  0.00  0.00    +0.000 C 
ENDBRANCH  34  38
ENDBRANCH  27  36
ENDBRANCH   1  27
TORSDOF 8
ENDMDL
