MODEL 1
REMARK VINA RESULT:      -9.4      0.000      0.000
REMARK  Name = 44258541
REMARK  6 active torsions:
REMARK  status: ('A' for Active; 'I' for Inactive)
REMARK    1  A    between atoms: O_2  and  C_16
REMARK    2  A    between atoms: O_2  and  C_19
REMARK    3  A    between atoms: O_9  and  C_20
REMARK    4  A    between atoms: O_12  and  C_30
REMARK    5  A    between atoms: C_17  and  C_18
REMARK    6  A    between atoms: C_26  and  C_28
REMARK                            x       y       z     vdW  Elec       q    Type
REMARK                         _______ _______ _______ _____ _____    ______ ____
ROOT
ATOM      1  O   UNL     1     112.583 126.630 136.345  0.00  0.00    +0.000 OA
ATOM      2  O   UNL     1     109.856 126.052 135.565  0.00  0.00    +0.000 OA
ATOM      3  O   UNL     1     110.710 124.965 135.981  0.00  0.00    +0.000 OA
ATOM      4  C   UNL     1     110.943 127.943 135.652  0.00  0.00    +0.000 A 
ATOM      5  C   UNL     1     111.681 127.686 135.919  0.00  0.00    +0.000 A 
ATOM      6  C   UNL     1     110.336 127.397 135.534  0.00  0.00    +0.000 A 
ATOM      7  C   UNL     1     111.810 126.885 136.068  0.00  0.00    +0.000 A 
ATOM      8  C   UNL     1     111.202 126.340 135.950  0.00  0.00    +0.000 A 
ATOM      9  C   UNL     1     110.465 126.596 135.683  0.00  0.00    +0.000 A 
ATOM     10  C   UNL     1     111.324 125.504 136.101  0.00  0.00    +0.000 A 
ATOM     11  C   UNL     1     112.723 125.797 136.502  0.00  0.00    +0.000 A 
ATOM     12  C   UNL     1     112.090 125.230 136.379  0.00  0.00    +0.000 A 
ENDROOT
BRANCH  11  13
ATOM     13  C   UNL     1     113.462 125.544 136.769  0.00  0.00    +0.000 A 
ATOM     14  C   UNL     1     113.653 125.600 137.569  0.00  0.00    +0.000 A 
ATOM     15  C   UNL     1     114.009 125.234 136.235  0.00  0.00    +0.000 A 
ATOM     16  C   UNL     1     114.390 125.346 137.837  0.00  0.00    +0.000 A 
ATOM     17  C   UNL     1     114.748 124.981 136.502  0.00  0.00    +0.000 A 
ATOM     18  C   UNL     1     114.938 125.037 137.303  0.00  0.00    +0.000 A 
BRANCH  14  19
ATOM     19  O   UNL     1     113.105 125.909 138.103  0.00  0.00    +0.000 OA
ATOM     20  C   UNL     1     113.332 126.072 138.880  0.00  0.00    +0.000 C 
ENDBRANCH  14  19
ENDBRANCH  11  13
BRANCH   5  21
ATOM     21  O   UNL     1     112.289 128.231 136.037  0.00  0.00    +0.000 OA
ATOM     22  C   UNL     1     112.760 128.468 135.402  0.00  0.00    +0.000 C 
ENDBRANCH   5  21
BRANCH   4  23
ATOM     23  O   UNL     1     110.814 128.744 135.503  0.00  0.00    +0.000 OA
BRANCH  23  31
ATOM     24  O   UNL     1     110.159 129.151 136.706  0.00  0.00    +0.000 OA
ATOM     25  O   UNL     1     108.423 130.303 135.370  0.00  0.00    +0.000 OA
ATOM     26  O   UNL     1     109.657 129.511 134.612  0.00  0.00    +0.000 OA
ATOM     27  O   UNL     1     108.346 130.326 137.017  0.00  0.00    +0.000 OA
ATOM     28  C   UNL     1     109.001 129.919 135.815  0.00  0.00    +0.000 C 
ATOM     29  C   UNL     1     109.619 129.523 135.436  0.00  0.00    +0.000 C 
ATOM     30  C   UNL     1     108.964 129.930 136.639  0.00  0.00    +0.000 C 
ATOM     31  C   UNL     1     110.198 129.139 135.882  0.00  0.00    +0.000 C 
ATOM     32  C   UNL     1     109.542 129.546 137.084  0.00  0.00    +0.000 C 
BRANCH  32  35
ATOM     33  O   UNL     1     109.916 130.133 138.333  0.00  0.00    +0.000 OA
ATOM     34  O   UNL     1     109.053 128.995 138.307  0.00  0.00    +0.000 OA
ATOM     35  C   UNL     1     109.504 129.558 137.908  0.00  0.00    +0.000 C 
ENDBRANCH  32  35
ENDBRANCH  23  31
ENDBRANCH   4  23
TORSDOF 6
ENDMDL
MODEL 2
REMARK VINA RESULT:      -9.3      2.206      3.402
REMARK  Name = 44258541
REMARK  6 active torsions:
REMARK  status: ('A' for Active; 'I' for Inactive)
REMARK    1  A    between atoms: O_2  and  C_16
REMARK    2  A    between atoms: O_2  and  C_19
REMARK    3  A    between atoms: O_9  and  C_20
REMARK    4  A    between atoms: O_12  and  C_30
REMARK    5  A    between atoms: C_17  and  C_18
REMARK    6  A    between atoms: C_26  and  C_28
REMARK                            x       y       z     vdW  Elec       q    Type
REMARK                         _______ _______ _______ _____ _____    ______ ____
ROOT
ATOM      1  O   UNL     1     110.318 128.208 135.910  0.00  0.00    +0.000 OA
ATOM      2  O   UNL     1     108.069 130.030 135.955  0.00  0.00    +0.000 OA
ATOM      3  O   UNL     1     107.826 128.624 135.739  0.00  0.00    +0.000 OA
ATOM      4  C   UNL     1     110.206 130.398 136.202  0.00  0.00    +0.000 A 
ATOM      5  C   UNL     1     110.506 129.632 136.124  0.00  0.00    +0.000 A 
ATOM      6  C   UNL     1     109.394 130.529 136.145  0.00  0.00    +0.000 A 
ATOM      7  C   UNL     1     109.994 129.000 135.990  0.00  0.00    +0.000 A 
ATOM      8  C   UNL     1     109.181 129.133 135.933  0.00  0.00    +0.000 A 
ATOM      9  C   UNL     1     108.881 129.897 136.011  0.00  0.00    +0.000 A 
ATOM     10  C   UNL     1     108.637 128.483 135.794  0.00  0.00    +0.000 A 
ATOM     11  C   UNL     1     109.789 127.546 135.771  0.00  0.00    +0.000 A 
ATOM     12  C   UNL     1     108.943 127.683 135.712  0.00  0.00    +0.000 A 
ENDROOT
BRANCH  11  13
ATOM     13  C   UNL     1     110.092 126.782 135.693  0.00  0.00    +0.000 A 
ATOM     14  C   UNL     1     110.219 126.319 136.364  0.00  0.00    +0.000 A 
ATOM     15  C   UNL     1     110.267 126.482 134.945  0.00  0.00    +0.000 A 
ATOM     16  C   UNL     1     110.521 125.556 136.287  0.00  0.00    +0.000 A 
ATOM     17  C   UNL     1     110.570 125.718 134.868  0.00  0.00    +0.000 A 
ATOM     18  C   UNL     1     110.697 125.255 135.539  0.00  0.00    +0.000 A 
BRANCH  14  19
ATOM     19  O   UNL     1     110.044 126.619 137.112  0.00  0.00    +0.000 OA
ATOM     20  C   UNL     1     110.172 126.157 137.784  0.00  0.00    +0.000 C 
ENDBRANCH  14  19
ENDBRANCH  11  13
BRANCH   5  21
ATOM     21  O   UNL     1     111.318 129.501 136.180  0.00  0.00    +0.000 OA
ATOM     22  C   UNL     1     111.797 129.580 135.513  0.00  0.00    +0.000 C 
ENDBRANCH   5  21
BRANCH   4  23
ATOM     23  O   UNL     1     110.719 131.030 136.336  0.00  0.00    +0.000 OA
BRANCH  23  31
ATOM     24  O   UNL     1     110.427 131.302 137.708  0.00  0.00    +0.000 OA
ATOM     25  O   UNL     1     110.341 133.725 137.210  0.00  0.00    +0.000 OA
ATOM     26  O   UNL     1     110.661 132.645 136.004  0.00  0.00    +0.000 OA
ATOM     27  O   UNL     1     110.079 133.189 138.747  0.00  0.00    +0.000 OA
ATOM     28  C   UNL     1     110.370 132.917 137.376  0.00  0.00    +0.000 C 
ATOM     29  C   UNL     1     110.530 132.377 136.773  0.00  0.00    +0.000 C 
ATOM     30  C   UNL     1     110.239 132.649 138.145  0.00  0.00    +0.000 C 
ATOM     31  C   UNL     1     110.559 131.569 136.939  0.00  0.00    +0.000 C 
ATOM     32  C   UNL     1     110.267 131.841 138.311  0.00  0.00    +0.000 C 
BRANCH  32  35
ATOM     33  O   UNL     1     110.775 131.385 139.567  0.00  0.00    +0.000 OA
ATOM     34  O   UNL     1     109.365 131.495 139.363  0.00  0.00    +0.000 OA
ATOM     35  C   UNL     1     110.136 131.574 139.080  0.00  0.00    +0.000 C 
ENDBRANCH  32  35
ENDBRANCH  23  31
ENDBRANCH   4  23
TORSDOF 6
ENDMDL
MODEL 3
REMARK VINA RESULT:      -9.2      8.645     10.564
REMARK  Name = 44258541
REMARK  6 active torsions:
REMARK  status: ('A' for Active; 'I' for Inactive)
REMARK    1  A    between atoms: O_2  and  C_16
REMARK    2  A    between atoms: O_2  and  C_19
REMARK    3  A    between atoms: O_9  and  C_20
REMARK    4  A    between atoms: O_12  and  C_30
REMARK    5  A    between atoms: C_17  and  C_18
REMARK    6  A    between atoms: C_26  and  C_28
REMARK                            x       y       z     vdW  Elec       q    Type
REMARK                         _______ _______ _______ _____ _____    ______ ____
ROOT
ATOM      1  O   UNL     1     106.693 125.613 146.511  0.00  0.00    +0.000 OA
ATOM      2  O   UNL     1     106.041 128.305 145.667  0.00  0.00    +0.000 OA
ATOM      3  O   UNL     1     106.378 128.068 147.051  0.00  0.00    +0.000 OA
ATOM      4  C   UNL     1     106.129 126.439 144.538  0.00  0.00    +0.000 A 
ATOM      5  C   UNL     1     106.348 125.908 145.131  0.00  0.00    +0.000 A 
ATOM      6  C   UNL     1     106.027 127.237 144.718  0.00  0.00    +0.000 A 
ATOM      7  C   UNL     1     106.465 126.176 145.903  0.00  0.00    +0.000 A 
ATOM      8  C   UNL     1     106.363 126.975 146.081  0.00  0.00    +0.000 A 
ATOM      9  C   UNL     1     106.144 127.506 145.489  0.00  0.00    +0.000 A 
ATOM     10  C   UNL     1     106.482 127.267 146.880  0.00  0.00    +0.000 A 
ATOM     11  C   UNL     1     106.816 125.887 147.316  0.00  0.00    +0.000 A 
ATOM     12  C   UNL     1     106.710 126.719 147.502  0.00  0.00    +0.000 A 
ENDROOT
BRANCH  11  13
ATOM     13  C   UNL     1     107.036 125.355 147.907  0.00  0.00    +0.000 A 
ATOM     14  C   UNL     1     106.458 124.998 148.376  0.00  0.00    +0.000 A 
ATOM     15  C   UNL     1     107.832 125.178 148.028  0.00  0.00    +0.000 A 
ATOM     16  C   UNL     1     106.676 124.466 148.966  0.00  0.00    +0.000 A 
ATOM     17  C   UNL     1     108.051 124.645 148.619  0.00  0.00    +0.000 A 
ATOM     18  C   UNL     1     107.473 124.289 149.088  0.00  0.00    +0.000 A 
BRANCH  14  19
ATOM     19  O   UNL     1     105.661 125.175 148.254  0.00  0.00    +0.000 OA
ATOM     20  C   UNL     1     105.082 124.804 148.710  0.00  0.00    +0.000 C 
ENDBRANCH  14  19
ENDBRANCH  11  13
BRANCH   5  21
ATOM     21  O   UNL     1     106.450 125.109 144.952  0.00  0.00    +0.000 OA
ATOM     22  C   UNL     1     105.796 124.608 144.913  0.00  0.00    +0.000 C 
ENDBRANCH   5  21
BRANCH   4  23
ATOM     23  O   UNL     1     106.011 126.170 143.767  0.00  0.00    +0.000 OA
BRANCH  23  31
ATOM     24  O   UNL     1     107.160 126.697 143.099  0.00  0.00    +0.000 OA
ATOM     25  O   UNL     1     105.708 127.578 141.298  0.00  0.00    +0.000 OA
ATOM     26  O   UNL     1     105.044 126.758 142.567  0.00  0.00    +0.000 OA
ATOM     27  O   UNL     1     107.339 127.810 141.231  0.00  0.00    +0.000 OA
ATOM     28  C   UNL     1     106.192 127.284 141.898  0.00  0.00    +0.000 C 
ATOM     29  C   UNL     1     105.859 126.874 142.533  0.00  0.00    +0.000 C 
ATOM     30  C   UNL     1     107.008 127.400 141.865  0.00  0.00    +0.000 C 
ATOM     31  C   UNL     1     106.343 126.580 143.133  0.00  0.00    +0.000 C 
ATOM     32  C   UNL     1     107.492 127.106 142.465  0.00  0.00    +0.000 C 
BRANCH  32  35
ATOM     33  O   UNL     1     108.641 127.905 142.753  0.00  0.00    +0.000 OA
ATOM     34  O   UNL     1     108.790 126.657 142.074  0.00  0.00    +0.000 OA
ATOM     35  C   UNL     1     108.307 127.223 142.431  0.00  0.00    +0.000 C 
ENDBRANCH  32  35
ENDBRANCH  23  31
ENDBRANCH   4  23
TORSDOF 6
ENDMDL
MODEL 4
REMARK VINA RESULT:      -9.2      3.231      4.733
REMARK  Name = 44258541
REMARK  6 active torsions:
REMARK  status: ('A' for Active; 'I' for Inactive)
REMARK    1  A    between atoms: O_2  and  C_16
REMARK    2  A    between atoms: O_2  and  C_19
REMARK    3  A    between atoms: O_9  and  C_20
REMARK    4  A    between atoms: O_12  and  C_30
REMARK    5  A    between atoms: C_17  and  C_18
REMARK    6  A    between atoms: C_26  and  C_28
REMARK                            x       y       z     vdW  Elec       q    Type
REMARK                         _______ _______ _______ _____ _____    ______ ____
ROOT
ATOM      1  O   UNL     1     113.252 126.755 138.447  0.00  0.00    +0.000 OA
ATOM      2  O   UNL     1     111.942 129.311 138.084  0.00  0.00    +0.000 OA
ATOM      3  O   UNL     1     112.114 128.444 136.943  0.00  0.00    +0.000 OA
ATOM      4  C   UNL     1     112.777 128.378 139.873  0.00  0.00    +0.000 A 
ATOM      5  C   UNL     1     113.053 127.665 139.562  0.00  0.00    +0.000 A 
ATOM      6  C   UNL     1     112.406 128.926 139.380  0.00  0.00    +0.000 A 
ATOM      7  C   UNL     1     112.960 127.501 138.758  0.00  0.00    +0.000 A 
ATOM      8  C   UNL     1     112.589 128.050 138.266  0.00  0.00    +0.000 A 
ATOM      9  C   UNL     1     112.313 128.762 138.577  0.00  0.00    +0.000 A 
ATOM     10  C   UNL     1     112.486 127.890 137.429  0.00  0.00    +0.000 A 
ATOM     11  C   UNL     1     113.157 126.579 137.612  0.00  0.00    +0.000 A 
ATOM     12  C   UNL     1     112.771 127.150 137.098  0.00  0.00    +0.000 A 
ENDROOT
BRANCH  11  13
ATOM     13  C   UNL     1     113.435 125.865 137.304  0.00  0.00    +0.000 A 
ATOM     14  C   UNL     1     112.930 125.215 137.251  0.00  0.00    +0.000 A 
ATOM     15  C   UNL     1     114.217 125.803 137.048  0.00  0.00    +0.000 A 
ATOM     16  C   UNL     1     113.207 124.501 136.944  0.00  0.00    +0.000 A 
ATOM     17  C   UNL     1     114.494 125.089 136.740  0.00  0.00    +0.000 A 
ATOM     18  C   UNL     1     113.989 124.439 136.688  0.00  0.00    +0.000 A 
BRANCH  14  19
ATOM     19  O   UNL     1     112.148 125.277 137.507  0.00  0.00    +0.000 OA
ATOM     20  C   UNL     1     111.649 124.621 137.474  0.00  0.00    +0.000 C 
ENDBRANCH  14  19
ENDBRANCH  11  13
BRANCH   5  21
ATOM     21  O   UNL     1     113.424 127.116 140.054  0.00  0.00    +0.000 OA
ATOM     22  C   UNL     1     112.971 126.610 140.523  0.00  0.00    +0.000 C 
ENDBRANCH   5  21
BRANCH   4  23
ATOM     23  O   UNL     1     112.870 128.542 140.676  0.00  0.00    +0.000 OA
BRANCH  23  31
ATOM     24  O   UNL     1     113.865 129.563 140.570  0.00  0.00    +0.000 OA
ATOM     25  O   UNL     1     112.708 130.871 142.324  0.00  0.00    +0.000 OA
ATOM     26  O   UNL     1     112.100 129.414 141.845  0.00  0.00    +0.000 OA
ATOM     27  O   UNL     1     114.087 131.455 141.633  0.00  0.00    +0.000 OA
ATOM     28  C   UNL     1     113.094 130.435 141.739  0.00  0.00    +0.000 C 
ATOM     29  C   UNL     1     112.789 129.705 141.499  0.00  0.00    +0.000 C 
ATOM     30  C   UNL     1     113.783 130.726 141.394  0.00  0.00    +0.000 C 
ATOM     31  C   UNL     1     113.175 129.269 140.915  0.00  0.00    +0.000 C 
ATOM     32  C   UNL     1     114.169 130.290 140.809  0.00  0.00    +0.000 C 
BRANCH  32  35
ATOM     33  O   UNL     1     114.815 131.177 139.893  0.00  0.00    +0.000 OA
ATOM     34  O   UNL     1     115.592 130.281 140.689  0.00  0.00    +0.000 OA
ATOM     35  C   UNL     1     114.858 130.583 140.464  0.00  0.00    +0.000 C 
ENDBRANCH  32  35
ENDBRANCH  23  31
ENDBRANCH   4  23
TORSDOF 6
ENDMDL
MODEL 5
REMARK VINA RESULT:      -9.2      1.869      2.886
REMARK  Name = 44258541
REMARK  6 active torsions:
REMARK  status: ('A' for Active; 'I' for Inactive)
REMARK    1  A    between atoms: O_2  and  C_16
REMARK    2  A    between atoms: O_2  and  C_19
REMARK    3  A    between atoms: O_9  and  C_20
REMARK    4  A    between atoms: O_12  and  C_30
REMARK    5  A    between atoms: C_17  and  C_18
REMARK    6  A    between atoms: C_26  and  C_28
REMARK                            x       y       z     vdW  Elec       q    Type
REMARK                         _______ _______ _______ _____ _____    ______ ____
ROOT
ATOM      1  O   UNL     1     113.137 127.015 137.758  0.00  0.00    +0.000 OA
ATOM      2  O   UNL     1     112.692 128.377 140.274  0.00  0.00    +0.000 OA
ATOM      3  O   UNL     1     113.148 127.008 140.291  0.00  0.00    +0.000 OA
ATOM      4  C   UNL     1     112.455 129.068 138.217  0.00  0.00    +0.000 A 
ATOM      5  C   UNL     1     112.679 128.392 137.799  0.00  0.00    +0.000 A 
ATOM      6  C   UNL     1     112.460 129.062 139.042  0.00  0.00    +0.000 A 
ATOM      7  C   UNL     1     112.907 127.712 138.206  0.00  0.00    +0.000 A 
ATOM      8  C   UNL     1     112.911 127.707 139.031  0.00  0.00    +0.000 A 
ATOM      9  C   UNL     1     112.688 128.382 139.449  0.00  0.00    +0.000 A 
ATOM     10  C   UNL     1     113.146 127.005 139.466  0.00  0.00    +0.000 A 
ATOM     11  C   UNL     1     113.375 126.304 138.177  0.00  0.00    +0.000 A 
ATOM     12  C   UNL     1     113.380 126.298 139.036  0.00  0.00    +0.000 A 
ENDROOT
BRANCH  11  13
ATOM     13  C   UNL     1     113.598 125.630 137.756  0.00  0.00    +0.000 A 
ATOM     14  C   UNL     1     113.026 125.090 137.507  0.00  0.00    +0.000 A 
ATOM     15  C   UNL     1     114.394 125.495 137.584  0.00  0.00    +0.000 A 
ATOM     16  C   UNL     1     113.248 124.417 137.087  0.00  0.00    +0.000 A 
ATOM     17  C   UNL     1     114.617 124.821 137.164  0.00  0.00    +0.000 A 
ATOM     18  C   UNL     1     114.043 124.282 136.915  0.00  0.00    +0.000 A 
BRANCH  14  19
ATOM     19  O   UNL     1     112.230 125.225 137.679  0.00  0.00    +0.000 OA
ATOM     20  C   UNL     1     111.656 124.688 137.427  0.00  0.00    +0.000 C 
ENDBRANCH  14  19
ENDBRANCH  11  13
BRANCH   5  21
ATOM     21  O   UNL     1     112.674 128.398 136.974  0.00  0.00    +0.000 OA
ATOM     22  C   UNL     1     113.330 128.679 136.559  0.00  0.00    +0.000 C 
ENDBRANCH   5  21
BRANCH   4  23
ATOM     23  O   UNL     1     112.227 129.749 137.810  0.00  0.00    +0.000 OA
BRANCH  23  31
ATOM     24  O   UNL     1     110.813 129.683 138.005  0.00  0.00    +0.000 OA
ATOM     25  O   UNL     1     110.772 132.103 138.522  0.00  0.00    +0.000 OA
ATOM     26  O   UNL     1     112.200 131.362 138.155  0.00  0.00    +0.000 OA
ATOM     27  O   UNL     1     109.373 131.231 138.544  0.00  0.00    +0.000 OA
ATOM     28  C   UNL     1     110.786 131.297 138.349  0.00  0.00    +0.000 C 
ATOM     29  C   UNL     1     111.500 130.926 138.166  0.00  0.00    +0.000 C 
ATOM     30  C   UNL     1     110.086 130.860 138.360  0.00  0.00    +0.000 C 
ATOM     31  C   UNL     1     111.514 130.119 137.993  0.00  0.00    +0.000 C 
ATOM     32  C   UNL     1     110.100 130.054 138.188  0.00  0.00    +0.000 C 
BRANCH  32  35
ATOM     33  O   UNL     1     109.102 129.332 138.914  0.00  0.00    +0.000 OA
ATOM     34  O   UNL     1     108.996 129.468 137.496  0.00  0.00    +0.000 OA
ATOM     35  C   UNL     1     109.400 129.618 138.199  0.00  0.00    +0.000 C 
ENDBRANCH  32  35
ENDBRANCH  23  31
ENDBRANCH   4  23
TORSDOF 6
ENDMDL
MODEL 6
REMARK VINA RESULT:      -9.1      1.579      2.797
REMARK  Name = 44258541
REMARK  6 active torsions:
REMARK  status: ('A' for Active; 'I' for Inactive)
REMARK    1  A    between atoms: O_2  and  C_16
REMARK    2  A    between atoms: O_2  and  C_19
REMARK    3  A    between atoms: O_9  and  C_20
REMARK    4  A    between atoms: O_12  and  C_30
REMARK    5  A    between atoms: C_17  and  C_18
REMARK    6  A    between atoms: C_26  and  C_28
REMARK                            x       y       z     vdW  Elec       q    Type
REMARK                         _______ _______ _______ _____ _____    ______ ____
ROOT
ATOM      1  O   UNL     1     112.996 127.080 137.449  0.00  0.00    +0.000 OA
ATOM      2  O   UNL     1     113.287 129.598 136.049  0.00  0.00    +0.000 OA
ATOM      3  O   UNL     1     113.857 128.405 135.469  0.00  0.00    +0.000 OA
ATOM      4  C   UNL     1     112.306 129.123 137.940  0.00  0.00    +0.000 A 
ATOM      5  C   UNL     1     112.442 128.310 137.987  0.00  0.00    +0.000 A 
ATOM      6  C   UNL     1     112.587 129.552 137.294  0.00  0.00    +0.000 A 
ATOM      7  C   UNL     1     112.860 127.927 137.388  0.00  0.00    +0.000 A 
ATOM      8  C   UNL     1     113.142 128.357 136.742  0.00  0.00    +0.000 A 
ATOM      9  C   UNL     1     113.006 129.168 136.695  0.00  0.00    +0.000 A 
ATOM     10  C   UNL     1     113.579 127.969 136.112  0.00  0.00    +0.000 A 
ATOM     11  C   UNL     1     113.431 126.676 136.828  0.00  0.00    +0.000 A 
ATOM     12  C   UNL     1     113.724 127.122 136.155  0.00  0.00    +0.000 A 
ENDROOT
BRANCH  11  13
ATOM     13  C   UNL     1     113.566 125.864 136.877  0.00  0.00    +0.000 A 
ATOM     14  C   UNL     1     112.990 125.333 136.617  0.00  0.00    +0.000 A 
ATOM     15  C   UNL     1     114.276 125.582 137.187  0.00  0.00    +0.000 A 
ATOM     16  C   UNL     1     113.124 124.521 136.666  0.00  0.00    +0.000 A 
ATOM     17  C   UNL     1     114.411 124.769 137.237  0.00  0.00    +0.000 A 
ATOM     18  C   UNL     1     113.835 124.239 136.976  0.00  0.00    +0.000 A 
BRANCH  14  19
ATOM     19  O   UNL     1     112.279 125.615 136.307  0.00  0.00    +0.000 OA
ATOM     20  C   UNL     1     111.675 125.087 136.112  0.00  0.00    +0.000 C 
ENDBRANCH  14  19
ENDBRANCH  11  13
BRANCH   5  21
ATOM     21  O   UNL     1     112.160 127.882 138.633  0.00  0.00    +0.000 OA
ATOM     22  C   UNL     1     112.604 127.841 139.327  0.00  0.00    +0.000 C 
ENDBRANCH   5  21
BRANCH   4  23
ATOM     23  O   UNL     1     111.887 129.507 138.539  0.00  0.00    +0.000 OA
BRANCH  23  31
ATOM     24  O   UNL     1     110.644 129.726 137.869  0.00  0.00    +0.000 OA
ATOM     25  O   UNL     1     110.585 132.043 138.737  0.00  0.00    +0.000 OA
ATOM     26  O   UNL     1     111.848 131.051 139.117  0.00  0.00    +0.000 OA
ATOM     27  O   UNL     1     109.362 131.489 137.779  0.00  0.00    +0.000 OA
ATOM     28  C   UNL     1     110.605 131.270 138.448  0.00  0.00    +0.000 C 
ATOM     29  C   UNL     1     111.237 130.774 138.638  0.00  0.00    +0.000 C 
ATOM     30  C   UNL     1     109.993 130.993 137.968  0.00  0.00    +0.000 C 
ATOM     31  C   UNL     1     111.256 130.002 138.349  0.00  0.00    +0.000 C 
ATOM     32  C   UNL     1     110.013 130.221 137.679  0.00  0.00    +0.000 C 
BRANCH  32  35
ATOM     33  O   UNL     1     109.407 130.103 136.390  0.00  0.00    +0.000 OA
ATOM     34  O   UNL     1     108.784 129.509 137.531  0.00  0.00    +0.000 OA
ATOM     35  C   UNL     1     109.402 129.944 137.200  0.00  0.00    +0.000 C 
ENDBRANCH  32  35
ENDBRANCH  23  31
ENDBRANCH   4  23
TORSDOF 6
ENDMDL
MODEL 7
REMARK VINA RESULT:      -9.1      6.917     10.366
REMARK  Name = 44258541
REMARK  6 active torsions:
REMARK  status: ('A' for Active; 'I' for Inactive)
REMARK    1  A    between atoms: O_2  and  C_16
REMARK    2  A    between atoms: O_2  and  C_19
REMARK    3  A    between atoms: O_9  and  C_20
REMARK    4  A    between atoms: O_12  and  C_30
REMARK    5  A    between atoms: C_17  and  C_18
REMARK    6  A    between atoms: C_26  and  C_28
REMARK                            x       y       z     vdW  Elec       q    Type
REMARK                         _______ _______ _______ _____ _____    ______ ____
ROOT
ATOM      1  O   UNL     1     103.344 130.342 142.141  0.00  0.00    +0.000 OA
ATOM      2  O   UNL     1     103.992 127.933 140.672  0.00  0.00    +0.000 OA
ATOM      3  O   UNL     1     103.021 128.848 140.122  0.00  0.00    +0.000 OA
ATOM      4  C   UNL     1     104.739 128.683 142.581  0.00  0.00    +0.000 A 
ATOM      5  C   UNL     1     104.313 129.388 142.649  0.00  0.00    +0.000 A 
ATOM      6  C   UNL     1     104.632 128.199 141.922  0.00  0.00    +0.000 A 
ATOM      7  C   UNL     1     103.781 129.606 142.058  0.00  0.00    +0.000 A 
ATOM      8  C   UNL     1     103.674 129.121 141.399  0.00  0.00    +0.000 A 
ATOM      9  C   UNL     1     104.099 128.418 141.331  0.00  0.00    +0.000 A 
ATOM     10  C   UNL     1     103.123 129.338 140.777  0.00  0.00    +0.000 A 
ATOM     11  C   UNL     1     102.788 130.575 141.529  0.00  0.00    +0.000 A 
ATOM     12  C   UNL     1     102.676 130.070 140.842  0.00  0.00    +0.000 A 
ENDROOT
BRANCH  11  13
ATOM     13  C   UNL     1     102.364 131.279 141.599  0.00  0.00    +0.000 A 
ATOM     14  C   UNL     1     102.688 131.985 141.321  0.00  0.00    +0.000 A 
ATOM     15  C   UNL     1     101.616 131.277 141.948  0.00  0.00    +0.000 A 
ATOM     16  C   UNL     1     102.264 132.689 141.391  0.00  0.00    +0.000 A 
ATOM     17  C   UNL     1     101.192 131.981 142.018  0.00  0.00    +0.000 A 
ATOM     18  C   UNL     1     101.517 132.687 141.740  0.00  0.00    +0.000 A 
BRANCH  14  19
ATOM     19  O   UNL     1     103.435 131.987 140.973  0.00  0.00    +0.000 OA
ATOM     20  C   UNL     1     103.762 132.694 140.698  0.00  0.00    +0.000 C 
ENDBRANCH  14  19
ENDBRANCH  11  13
BRANCH   5  21
ATOM     21  O   UNL     1     104.421 129.872 143.308  0.00  0.00    +0.000 OA
ATOM     22  C   UNL     1     103.997 129.726 144.001  0.00  0.00    +0.000 C 
ENDBRANCH   5  21
BRANCH   4  23
ATOM     23  O   UNL     1     105.271 128.464 143.172  0.00  0.00    +0.000 OA
BRANCH  23  31
ATOM     24  O   UNL     1     106.512 128.662 142.490  0.00  0.00    +0.000 OA
ATOM     25  O   UNL     1     107.316 126.474 143.321  0.00  0.00    +0.000 OA
ATOM     26  O   UNL     1     105.808 127.006 143.726  0.00  0.00    +0.000 OA
ATOM     27  O   UNL     1     108.288 127.400 142.363  0.00  0.00    +0.000 OA
ATOM     28  C   UNL     1     107.048 127.203 143.044  0.00  0.00    +0.000 C 
ATOM     29  C   UNL     1     106.293 127.469 143.247  0.00  0.00    +0.000 C 
ATOM     30  C   UNL     1     107.534 127.667 142.565  0.00  0.00    +0.000 C 
ATOM     31  C   UNL     1     106.025 128.199 142.970  0.00  0.00    +0.000 C 
ATOM     32  C   UNL     1     107.265 128.396 142.288  0.00  0.00    +0.000 C 
BRANCH  32  35
ATOM     33  O   UNL     1     107.782 128.721 140.996  0.00  0.00    +0.000 OA
ATOM     34  O   UNL     1     108.207 129.460 142.143  0.00  0.00    +0.000 OA
ATOM     35  C   UNL     1     107.751 128.859 141.809  0.00  0.00    +0.000 C 
ENDBRANCH  32  35
ENDBRANCH  23  31
ENDBRANCH   4  23
TORSDOF 6
ENDMDL
MODEL 8
REMARK VINA RESULT:      -9.0      1.426      1.839
REMARK  Name = 44258541
REMARK  6 active torsions:
REMARK  status: ('A' for Active; 'I' for Inactive)
REMARK    1  A    between atoms: O_2  and  C_16
REMARK    2  A    between atoms: O_2  and  C_19
REMARK    3  A    between atoms: O_9  and  C_20
REMARK    4  A    between atoms: O_12  and  C_30
REMARK    5  A    between atoms: C_17  and  C_18
REMARK    6  A    between atoms: C_26  and  C_28
REMARK                            x       y       z     vdW  Elec       q    Type
REMARK                         _______ _______ _______ _____ _____    ______ ____
ROOT
ATOM      1  O   UNL     1     111.914 126.246 136.978  0.00  0.00    +0.000 OA
ATOM      2  O   UNL     1     109.800 127.033 138.793  0.00  0.00    +0.000 OA
ATOM      3  O   UNL     1     110.876 126.209 139.289  0.00  0.00    +0.000 OA
ATOM      4  C   UNL     1     110.100 127.475 136.677  0.00  0.00    +0.000 A 
ATOM      5  C   UNL     1     110.807 127.074 136.532  0.00  0.00    +0.000 A 
ATOM      6  C   UNL     1     109.765 127.461 137.430  0.00  0.00    +0.000 A 
ATOM      7  C   UNL     1     111.178 126.659 137.142  0.00  0.00    +0.000 A 
ATOM      8  C   UNL     1     110.842 126.646 137.895  0.00  0.00    +0.000 A 
ATOM      9  C   UNL     1     110.136 127.046 138.040  0.00  0.00    +0.000 A 
ATOM     10  C   UNL     1     111.218 126.218 138.538  0.00  0.00    +0.000 A 
ATOM     11  C   UNL     1     112.304 125.813 137.609  0.00  0.00    +0.000 A 
ATOM     12  C   UNL     1     111.955 125.798 138.394  0.00  0.00    +0.000 A 
ENDROOT
BRANCH  11  13
ATOM     13  C   UNL     1     113.011 125.413 137.462  0.00  0.00    +0.000 A 
ATOM     14  C   UNL     1     112.996 124.623 137.224  0.00  0.00    +0.000 A 
ATOM     15  C   UNL     1     113.732 125.803 137.552  0.00  0.00    +0.000 A 
ATOM     16  C   UNL     1     113.701 124.222 137.077  0.00  0.00    +0.000 A 
ATOM     17  C   UNL     1     114.438 125.403 137.405  0.00  0.00    +0.000 A 
ATOM     18  C   UNL     1     114.423 124.612 137.168  0.00  0.00    +0.000 A 
BRANCH  14  19
ATOM     19  O   UNL     1     112.274 124.233 137.134  0.00  0.00    +0.000 OA
ATOM     20  C   UNL     1     112.258 123.448 136.878  0.00  0.00    +0.000 C 
ENDBRANCH  14  19
ENDBRANCH  11  13
BRANCH   5  21
ATOM     21  O   UNL     1     111.142 127.088 135.779  0.00  0.00    +0.000 OA
ATOM     22  C   UNL     1     110.872 126.569 135.197  0.00  0.00    +0.000 C 
ENDBRANCH   5  21
BRANCH   4  23
ATOM     23  O   UNL     1     109.729 127.890 136.067  0.00  0.00    +0.000 OA
BRANCH  23  31
ATOM     24  O   UNL     1     110.052 129.228 136.451  0.00  0.00    +0.000 OA
ATOM     25  O   UNL     1     107.724 129.925 135.982  0.00  0.00    +0.000 OA
ATOM     26  O   UNL     1     108.177 128.354 135.754  0.00  0.00    +0.000 OA
ATOM     27  O   UNL     1     108.823 131.029 136.522  0.00  0.00    +0.000 OA
ATOM     28  C   UNL     1     108.500 129.692 136.138  0.00  0.00    +0.000 C 
ATOM     29  C   UNL     1     108.727 128.907 136.025  0.00  0.00    +0.000 C 
ATOM     30  C   UNL     1     109.050 130.245 136.408  0.00  0.00    +0.000 C 
ATOM     31  C   UNL     1     109.503 128.674 136.181  0.00  0.00    +0.000 C 
ATOM     32  C   UNL     1     109.826 130.012 136.565  0.00  0.00    +0.000 C 
BRANCH  32  35
ATOM     33  O   UNL     1     110.409 130.756 137.637  0.00  0.00    +0.000 OA
ATOM     34  O   UNL     1     110.891 130.927 136.303  0.00  0.00    +0.000 OA
ATOM     35  C   UNL     1     110.375 130.565 136.835  0.00  0.00    +0.000 C 
ENDBRANCH  32  35
ENDBRANCH  23  31
ENDBRANCH   4  23
TORSDOF 6
ENDMDL
MODEL 9
REMARK VINA RESULT:      -8.8      1.910      5.133
REMARK  Name = 44258541
REMARK  6 active torsions:
REMARK  status: ('A' for Active; 'I' for Inactive)
REMARK    1  A    between atoms: O_2  and  C_16
REMARK    2  A    between atoms: O_2  and  C_19
REMARK    3  A    between atoms: O_9  and  C_20
REMARK    4  A    between atoms: O_12  and  C_30
REMARK    5  A    between atoms: C_17  and  C_18
REMARK    6  A    between atoms: C_26  and  C_28
REMARK                            x       y       z     vdW  Elec       q    Type
REMARK                         _______ _______ _______ _____ _____    ______ ____
ROOT
ATOM      1  O   UNL     1     110.205 130.493 136.265  0.00  0.00    +0.000 OA
ATOM      2  O   UNL     1     108.079 128.587 135.785  0.00  0.00    +0.000 OA
ATOM      3  O   UNL     1     107.737 129.930 136.189  0.00  0.00    +0.000 OA
ATOM      4  C   UNL     1     110.247 128.370 135.645  0.00  0.00    +0.000 A 
ATOM      5  C   UNL     1     110.493 129.129 135.857  0.00  0.00    +0.000 A 
ATOM      6  C   UNL     1     109.442 128.191 135.621  0.00  0.00    +0.000 A 
ATOM      7  C   UNL     1     109.935 129.707 136.046  0.00  0.00    +0.000 A 
ATOM      8  C   UNL     1     109.131 129.526 136.022  0.00  0.00    +0.000 A 
ATOM      9  C   UNL     1     108.884 128.768 135.809  0.00  0.00    +0.000 A 
ATOM     10  C   UNL     1     108.540 130.119 136.216  0.00  0.00    +0.000 A 
ATOM     11  C   UNL     1     109.629 131.098 136.463  0.00  0.00    +0.000 A 
ATOM     12  C   UNL     1     108.790 130.911 136.438  0.00  0.00    +0.000 A 
ENDROOT
BRANCH  11  13
ATOM     13  C   UNL     1     109.878 131.855 136.675  0.00  0.00    +0.000 A 
ATOM     14  C   UNL     1     110.043 132.029 137.464  0.00  0.00    +0.000 A 
ATOM     15  C   UNL     1     109.962 132.439 136.098  0.00  0.00    +0.000 A 
ATOM     16  C   UNL     1     110.292 132.786 137.677  0.00  0.00    +0.000 A 
ATOM     17  C   UNL     1     110.212 133.196 136.310  0.00  0.00    +0.000 A 
ATOM     18  C   UNL     1     110.377 133.369 137.100  0.00  0.00    +0.000 A 
BRANCH  14  19
ATOM     19  O   UNL     1     109.959 131.446 138.042  0.00  0.00    +0.000 OA
ATOM     20  C   UNL     1     110.127 131.618 138.831  0.00  0.00    +0.000 C 
ENDBRANCH  14  19
ENDBRANCH  11  13
BRANCH   5  21
ATOM     21  O   UNL     1     111.298 129.309 135.881  0.00  0.00    +0.000 OA
ATOM     22  C   UNL     1     111.694 129.522 135.189  0.00  0.00    +0.000 C 
ENDBRANCH   5  21
BRANCH   4  23
ATOM     23  O   UNL     1     110.805 127.793 135.456  0.00  0.00    +0.000 OA
BRANCH  23  31
ATOM     24  O   UNL     1     110.819 127.062 136.684  0.00  0.00    +0.000 OA
ATOM     25  O   UNL     1     110.779 124.935 135.418  0.00  0.00    +0.000 OA
ATOM     26  O   UNL     1     110.778 126.375 134.612  0.00  0.00    +0.000 OA
ATOM     27  O   UNL     1     110.807 124.913 137.067  0.00  0.00    +0.000 OA
ATOM     28  C   UNL     1     110.792 125.644 135.840  0.00  0.00    +0.000 C 
ATOM     29  C   UNL     1     110.792 126.365 135.437  0.00  0.00    +0.000 C 
ATOM     30  C   UNL     1     110.806 125.633 136.664  0.00  0.00    +0.000 C 
ATOM     31  C   UNL     1     110.805 127.073 135.859  0.00  0.00    +0.000 C 
ATOM     32  C   UNL     1     110.819 126.342 137.086  0.00  0.00    +0.000 C 
BRANCH  32  35
ATOM     33  O   UNL     1     110.128 126.269 138.335  0.00  0.00    +0.000 OA
ATOM     34  O   UNL     1     111.553 126.382 138.311  0.00  0.00    +0.000 OA
ATOM     35  C   UNL     1     110.833 126.331 137.910  0.00  0.00    +0.000 C 
ENDBRANCH  32  35
ENDBRANCH  23  31
ENDBRANCH   4  23
TORSDOF 6
ENDMDL
MODEL 10
REMARK VINA RESULT:      -8.8      1.492      2.319
REMARK  Name = 44258541
REMARK  6 active torsions:
REMARK  status: ('A' for Active; 'I' for Inactive)
REMARK    1  A    between atoms: O_2  and  C_16
REMARK    2  A    between atoms: O_2  and  C_19
REMARK    3  A    between atoms: O_9  and  C_20
REMARK    4  A    between atoms: O_12  and  C_30
REMARK    5  A    between atoms: C_17  and  C_18
REMARK    6  A    between atoms: C_26  and  C_28
REMARK                            x       y       z     vdW  Elec       q    Type
REMARK                         _______ _______ _______ _____ _____    ______ ____
ROOT
ATOM      1  O   UNL     1     110.584 126.956 136.376  0.00  0.00    +0.000 OA
ATOM      2  O   UNL     1     111.677 129.482 135.480  0.00  0.00    +0.000 OA
ATOM      3  O   UNL     1     112.567 128.361 135.662  0.00  0.00    +0.000 OA
ATOM      4  C   UNL     1     109.628 128.907 135.966  0.00  0.00    +0.000 A 
ATOM      5  C   UNL     1     109.734 128.116 136.176  0.00  0.00    +0.000 A 
ATOM      6  C   UNL     1     110.276 129.362 135.734  0.00  0.00    +0.000 A 
ATOM      7  C   UNL     1     110.487 127.781 136.154  0.00  0.00    +0.000 A 
ATOM      8  C   UNL     1     111.135 128.236 135.922  0.00  0.00    +0.000 A 
ATOM      9  C   UNL     1     111.029 129.027 135.712  0.00  0.00    +0.000 A 
ATOM     10  C   UNL     1     111.924 127.898 135.896  0.00  0.00    +0.000 A 
ATOM     11  C   UNL     1     111.366 126.601 136.355  0.00  0.00    +0.000 A 
ATOM     12  C   UNL     1     112.041 127.075 136.113  0.00  0.00    +0.000 A 
ENDROOT
BRANCH  11  13
ATOM     13  C   UNL     1     111.469 125.810 136.566  0.00  0.00    +0.000 A 
ATOM     14  C   UNL     1     111.607 125.608 137.354  0.00  0.00    +0.000 A 
ATOM     15  C   UNL     1     111.434 125.222 135.989  0.00  0.00    +0.000 A 
ATOM     16  C   UNL     1     111.710 124.817 137.565  0.00  0.00    +0.000 A 
ATOM     17  C   UNL     1     111.537 124.430 136.200  0.00  0.00    +0.000 A 
ATOM     18  C   UNL     1     111.675 124.229 136.988  0.00  0.00    +0.000 A 
BRANCH  14  19
ATOM     19  O   UNL     1     111.642 126.196 137.931  0.00  0.00    +0.000 OA
ATOM     20  C   UNL     1     111.772 125.994 138.720  0.00  0.00    +0.000 C 
ENDBRANCH  14  19
ENDBRANCH  11  13
BRANCH   5  21
ATOM     21  O   UNL     1     109.086 127.661 136.408  0.00  0.00    +0.000 OA
ATOM     22  C   UNL     1     108.624 127.281 135.840  0.00  0.00    +0.000 C 
ENDBRANCH   5  21
BRANCH   4  23
ATOM     23  O   UNL     1     108.874 129.243 135.987  0.00  0.00    +0.000 OA
BRANCH  23  31
ATOM     24  O   UNL     1     108.974 130.008 137.191  0.00  0.00    +0.000 OA
ATOM     25  O   UNL     1     107.916 131.934 136.054  0.00  0.00    +0.000 OA
ATOM     26  O   UNL     1     108.169 130.528 135.230  0.00  0.00    +0.000 OA
ATOM     27  O   UNL     1     108.368 132.056 137.635  0.00  0.00    +0.000 OA
ATOM     28  C   UNL     1     108.269 131.292 136.433  0.00  0.00    +0.000 C 
ATOM     29  C   UNL     1     108.395 130.588 136.020  0.00  0.00    +0.000 C 
ATOM     30  C   UNL     1     108.495 131.353 137.224  0.00  0.00    +0.000 C 
ATOM     31  C   UNL     1     108.748 129.946 136.399  0.00  0.00    +0.000 C 
ATOM     32  C   UNL     1     108.848 130.710 137.602  0.00  0.00    +0.000 C 
BRANCH  32  35
ATOM     33  O   UNL     1     108.583 130.478 138.987  0.00  0.00    +0.000 OA
ATOM     34  O   UNL     1     109.792 131.127 138.590  0.00  0.00    +0.000 OA
ATOM     35  C   UNL     1     109.074 130.772 138.393  0.00  0.00    +0.000 C 
ENDBRANCH  32  35
ENDBRANCH  23  31
ENDBRANCH   4  23
TORSDOF 6
ENDMDL
