MODEL 1
REMARK VINA RESULT:      -8.9      0.000      0.000
REMARK  Name = 
REMARK  6 active torsions:
REMARK  status: ('A' for Active; 'I' for Inactive)
REMARK    1  A    between atoms: C_4  and  O_19
REMARK    2  A    between atoms: C_9  and  C_11
REMARK    3  A    between atoms: C_13  and  O_23
REMARK    4  A    between atoms: C_15  and  O_21
REMARK    5  A    between atoms: O_19  and  C_28
REMARK    6  A    between atoms: C_30  and  C_31
REMARK                            x       y       z     vdW  Elec       q    Type
REMARK                         _______ _______ _______ _____ _____    ______ ____
ROOT
ATOM      1  C   UNL     1     107.019 126.864 142.183  0.00  0.00    +0.000 A 
ATOM      2  C   UNL     1     106.932 126.793 143.228  0.00  0.00    +0.000 A 
ATOM      3  C   UNL     1     106.590 126.129 141.568  0.00  0.00    +0.000 A 
ATOM      4  C   UNL     1     106.072 125.321 141.998  0.00  0.00    +0.000 A 
ATOM      5  C   UNL     1     105.984 125.249 143.043  0.00  0.00    +0.000 A 
ATOM      6  C   UNL     1     106.414 125.985 143.658  0.00  0.00    +0.000 A 
ATOM      7  C   UNL     1     105.467 124.442 143.473  0.00  0.00    +0.000 C 
ATOM      8  C   UNL     1     105.379 124.370 144.517  0.00  0.00    +0.000 C 
ATOM      9  C   UNL     1     105.809 125.107 145.132  0.00  0.00    +0.000 C 
ATOM     10  O   UNL     1     106.327 125.914 144.703  0.00  0.00    +0.000 OA
ATOM     11  O   UNL     1     105.132 123.869 142.992  0.00  0.00    +0.000 OA
ATOM     12  O   UNL     1     107.473 127.573 141.810  0.00  0.00    +0.000 OA
ENDROOT
BRANCH   9  13
ATOM     13  C   UNL     1     105.729 125.040 146.090  0.00  0.00    +0.000 A 
ATOM     14  C   UNL     1     104.788 124.877 146.528  0.00  0.00    +0.000 A 
ATOM     15  C   UNL     1     104.699 124.804 147.574  0.00  0.00    +0.000 A 
ATOM     16  C   UNL     1     105.553 124.896 148.180  0.00  0.00    +0.000 A 
ATOM     17  C   UNL     1     106.494 125.060 147.742  0.00  0.00    +0.000 A 
ATOM     18  C   UNL     1     106.582 125.132 146.697  0.00  0.00    +0.000 A 
ATOM     19  O   UNL     1     105.472 124.832 149.102  0.00  0.00    +0.000 OA
BRANCH  17  20
ATOM     20  O   UNL     1     107.233 125.139 148.272  0.00  0.00    +0.000 OA
ATOM     21  C   UNL     1     108.247 125.066 147.824  0.00  0.00    +0.000 C 
ENDBRANCH  17  20
BRANCH  15  22
ATOM     22  O   UNL     1     103.807 124.649 147.985  0.00  0.00    +0.000 OA
ATOM     23  C   UNL     1     102.882 124.329 147.302  0.00  0.00    +0.000 C 
ENDBRANCH  15  22
ENDBRANCH   9  13
BRANCH   4  24
ATOM     24  O   UNL     1     105.704 124.691 141.467  0.00  0.00    +0.000 OA
BRANCH  24  28
ATOM     25  C   UNL     1     104.068 123.999 138.724  0.00  0.00    +0.000 C 
ATOM     26  C   UNL     1     104.894 123.403 138.986  0.00  0.00    +0.000 C 
ATOM     27  C   UNL     1     105.253 123.807 139.887  0.00  0.00    +0.000 C 
ATOM     28  C   UNL     1     105.949 123.784 140.676  0.00  0.00    +0.000 C 
ATOM     29  O   UNL     1     105.123 124.379 140.414  0.00  0.00    +0.000 OA
ATOM     30  C   UNL     1     104.763 123.975 139.512  0.00  0.00    +0.000 C 
ATOM     31  O   UNL     1     104.129 123.405 138.090  0.00  0.00    +0.000 OA
ATOM     32  O   UNL     1     104.400 123.544 138.573  0.00  0.00    +0.000 OA
ATOM     33  O   UNL     1     105.639 123.138 139.546  0.00  0.00    +0.000 OA
BRANCH  30  34
ATOM     34  C   UNL     1     104.205 124.509 139.490  0.00  0.00    +0.000 C 
ATOM     35  O   UNL     1     103.913 124.905 138.985  0.00  0.00    +0.000 OA
ENDBRANCH  30  34
ENDBRANCH  24  28
ENDBRANCH   4  24
TORSDOF 6
ENDMDL
MODEL 2
REMARK VINA RESULT:      -8.8      5.693      7.362
REMARK  Name = 
REMARK  6 active torsions:
REMARK  status: ('A' for Active; 'I' for Inactive)
REMARK    1  A    between atoms: C_4  and  O_19
REMARK    2  A    between atoms: C_9  and  C_11
REMARK    3  A    between atoms: C_13  and  O_23
REMARK    4  A    between atoms: C_15  and  O_21
REMARK    5  A    between atoms: O_19  and  C_28
REMARK    6  A    between atoms: C_30  and  C_31
REMARK                            x       y       z     vdW  Elec       q    Type
REMARK                         _______ _______ _______ _____ _____    ______ ____
ROOT
ATOM      1  C   UNL     1     102.649 129.250 140.038  0.00  0.00    +0.000 A 
ATOM      2  C   UNL     1     103.316 128.647 140.583  0.00  0.00    +0.000 A 
ATOM      3  C   UNL     1     102.292 130.147 140.452  0.00  0.00    +0.000 A 
ATOM      4  C   UNL     1     102.603 130.443 141.411  0.00  0.00    +0.000 A 
ATOM      5  C   UNL     1     103.270 129.841 141.957  0.00  0.00    +0.000 A 
ATOM      6  C   UNL     1     103.627 128.943 141.542  0.00  0.00    +0.000 A 
ATOM      7  C   UNL     1     103.581 130.137 142.916  0.00  0.00    +0.000 C 
ATOM      8  C   UNL     1     104.248 129.535 143.461  0.00  0.00    +0.000 C 
ATOM      9  C   UNL     1     104.604 128.637 143.047  0.00  0.00    +0.000 C 
ATOM     10  O   UNL     1     104.294 128.341 142.087  0.00  0.00    +0.000 OA
ATOM     11  O   UNL     1     103.302 130.837 143.238  0.00  0.00    +0.000 OA
ATOM     12  O   UNL     1     102.379 128.987 139.198  0.00  0.00    +0.000 OA
ENDROOT
BRANCH   9  13
ATOM     13  C   UNL     1     105.216 128.086 143.547  0.00  0.00    +0.000 A 
ATOM     14  C   UNL     1     106.019 127.615 143.059  0.00  0.00    +0.000 A 
ATOM     15  C   UNL     1     106.686 127.013 143.605  0.00  0.00    +0.000 A 
ATOM     16  C   UNL     1     106.550 126.883 144.639  0.00  0.00    +0.000 A 
ATOM     17  C   UNL     1     105.747 127.354 145.127  0.00  0.00    +0.000 A 
ATOM     18  C   UNL     1     105.080 127.955 144.581  0.00  0.00    +0.000 A 
ATOM     19  O   UNL     1     107.141 126.351 145.118  0.00  0.00    +0.000 OA
BRANCH  17  20
ATOM     20  O   UNL     1     105.632 127.238 146.025  0.00  0.00    +0.000 OA
ATOM     21  C   UNL     1     105.151 128.036 146.630  0.00  0.00    +0.000 C 
ENDBRANCH  17  20
BRANCH  15  22
ATOM     22  O   UNL     1     107.445 126.569 143.140  0.00  0.00    +0.000 OA
ATOM     23  C   UNL     1     107.670 126.816 141.994  0.00  0.00    +0.000 C 
ENDBRANCH  15  22
ENDBRANCH   9  13
BRANCH   4  24
ATOM     24  O   UNL     1     102.295 131.214 141.764  0.00  0.00    +0.000 OA
BRANCH  24  28
ATOM     25  C   UNL     1     102.039 134.454 141.422  0.00  0.00    +0.000 C 
ATOM     26  C   UNL     1     101.193 133.908 141.725  0.00  0.00    +0.000 C 
ATOM     27  C   UNL     1     101.510 132.906 141.765  0.00  0.00    +0.000 C 
ATOM     28  C   UNL     1     101.291 131.895 141.955  0.00  0.00    +0.000 C 
ATOM     29  O   UNL     1     102.136 132.442 141.651  0.00  0.00    +0.000 OA
ATOM     30  C   UNL     1     101.820 133.444 141.611  0.00  0.00    +0.000 C 
ATOM     31  O   UNL     1     101.409 135.048 141.520  0.00  0.00    +0.000 OA
ATOM     32  O   UNL     1     101.477 134.483 141.573  0.00  0.00    +0.000 OA
ATOM     33  O   UNL     1     100.711 133.101 141.961  0.00  0.00    +0.000 OA
BRANCH  30  34
ATOM     34  C   UNL     1     102.526 133.662 141.388  0.00  0.00    +0.000 C 
ATOM     35  O   UNL     1     102.783 134.071 140.873  0.00  0.00    +0.000 OA
ENDBRANCH  30  34
ENDBRANCH  24  28
ENDBRANCH   4  24
TORSDOF 6
ENDMDL
MODEL 3
REMARK VINA RESULT:      -8.8      8.822     10.684
REMARK  Name = 
REMARK  6 active torsions:
REMARK  status: ('A' for Active; 'I' for Inactive)
REMARK    1  A    between atoms: C_4  and  O_19
REMARK    2  A    between atoms: C_9  and  C_11
REMARK    3  A    between atoms: C_13  and  O_23
REMARK    4  A    between atoms: C_15  and  O_21
REMARK    5  A    between atoms: O_19  and  C_28
REMARK    6  A    between atoms: C_30  and  C_31
REMARK                            x       y       z     vdW  Elec       q    Type
REMARK                         _______ _______ _______ _____ _____    ______ ____
ROOT
ATOM      1  C   UNL     1     114.427 128.682 135.334  0.00  0.00    +0.000 A 
ATOM      2  C   UNL     1     113.848 129.515 135.611  0.00  0.00    +0.000 A 
ATOM      3  C   UNL     1     114.219 127.737 135.744  0.00  0.00    +0.000 A 
ATOM      4  C   UNL     1     113.432 127.625 136.432  0.00  0.00    +0.000 A 
ATOM      5  C   UNL     1     112.853 128.456 136.709  0.00  0.00    +0.000 A 
ATOM      6  C   UNL     1     113.061 129.401 136.299  0.00  0.00    +0.000 A 
ATOM      7  C   UNL     1     112.067 128.344 137.397  0.00  0.00    +0.000 C 
ATOM      8  C   UNL     1     111.488 129.176 137.675  0.00  0.00    +0.000 C 
ATOM      9  C   UNL     1     111.696 130.120 137.264  0.00  0.00    +0.000 C 
ATOM     10  O   UNL     1     112.483 130.234 136.576  0.00  0.00    +0.000 OA
ATOM     11  O   UNL     1     111.906 127.606 137.716  0.00  0.00    +0.000 OA
ATOM     12  O   UNL     1     115.115 128.785 134.731  0.00  0.00    +0.000 OA
ENDROOT
BRANCH   9  13
ATOM     13  C   UNL     1     111.165 130.883 137.519  0.00  0.00    +0.000 A 
ATOM     14  C   UNL     1     110.973 131.074 138.534  0.00  0.00    +0.000 A 
ATOM     15  C   UNL     1     110.393 131.906 138.813  0.00  0.00    +0.000 A 
ATOM     16  C   UNL     1     110.007 132.547 138.075  0.00  0.00    +0.000 A 
ATOM     17  C   UNL     1     110.199 132.356 137.059  0.00  0.00    +0.000 A 
ATOM     18  C   UNL     1     110.778 131.524 136.782  0.00  0.00    +0.000 A 
ATOM     19  O   UNL     1     109.496 133.280 138.324  0.00  0.00    +0.000 OA
BRANCH  17  20
ATOM     20  O   UNL     1     109.862 132.915 136.421  0.00  0.00    +0.000 OA
ATOM     21  C   UNL     1     109.359 132.494 135.524  0.00  0.00    +0.000 C 
ENDBRANCH  17  20
BRANCH  15  22
ATOM     22  O   UNL     1     110.213 132.083 139.774  0.00  0.00    +0.000 OA
ATOM     23  C   UNL     1     110.296 131.199 140.571  0.00  0.00    +0.000 C 
ENDBRANCH  15  22
ENDBRANCH   9  13
BRANCH   4  24
ATOM     24  O   UNL     1     113.257 126.812 136.781  0.00  0.00    +0.000 OA
BRANCH  24  28
ATOM     25  C   UNL     1     112.009 123.803 136.513  0.00  0.00    +0.000 C 
ATOM     26  C   UNL     1     112.937 123.926 136.993  0.00  0.00    +0.000 C 
ATOM     27  C   UNL     1     113.131 124.959 136.960  0.00  0.00    +0.000 C 
ATOM     28  C   UNL     1     113.762 125.769 137.189  0.00  0.00    +0.000 C 
ATOM     29  O   UNL     1     112.834 125.645 136.710  0.00  0.00    +0.000 OA
ATOM     30  C   UNL     1     112.639 124.612 136.743  0.00  0.00    +0.000 C 
ATOM     31  O   UNL     1     112.250 123.000 136.749  0.00  0.00    +0.000 OA
ATOM     32  O   UNL     1     112.450 123.534 136.784  0.00  0.00    +0.000 OA
ATOM     33  O   UNL     1     113.688 124.440 137.326  0.00  0.00    +0.000 OA
BRANCH  30  34
ATOM     34  C   UNL     1     111.971 124.722 136.371  0.00  0.00    +0.000 C 
ATOM     35  O   UNL     1     111.302 124.526 136.480  0.00  0.00    +0.000 OA
ENDBRANCH  30  34
ENDBRANCH  24  28
ENDBRANCH   4  24
TORSDOF 6
ENDMDL
MODEL 4
REMARK VINA RESULT:      -8.8      5.691      7.280
REMARK  Name = 
REMARK  6 active torsions:
REMARK  status: ('A' for Active; 'I' for Inactive)
REMARK    1  A    between atoms: C_4  and  O_19
REMARK    2  A    between atoms: C_9  and  C_11
REMARK    3  A    between atoms: C_13  and  O_23
REMARK    4  A    between atoms: C_15  and  O_21
REMARK    5  A    between atoms: O_19  and  C_28
REMARK    6  A    between atoms: C_30  and  C_31
REMARK                            x       y       z     vdW  Elec       q    Type
REMARK                         _______ _______ _______ _____ _____    ______ ____
ROOT
ATOM      1  C   UNL     1     102.658 129.243 140.053  0.00  0.00    +0.000 A 
ATOM      2  C   UNL     1     103.327 128.643 140.599  0.00  0.00    +0.000 A 
ATOM      3  C   UNL     1     102.299 130.140 140.466  0.00  0.00    +0.000 A 
ATOM      4  C   UNL     1     102.610 130.438 141.425  0.00  0.00    +0.000 A 
ATOM      5  C   UNL     1     103.278 129.838 141.972  0.00  0.00    +0.000 A 
ATOM      6  C   UNL     1     103.636 128.941 141.558  0.00  0.00    +0.000 A 
ATOM      7  C   UNL     1     103.588 130.136 142.930  0.00  0.00    +0.000 C 
ATOM      8  C   UNL     1     104.256 129.536 143.477  0.00  0.00    +0.000 C 
ATOM      9  C   UNL     1     104.614 128.639 143.063  0.00  0.00    +0.000 C 
ATOM     10  O   UNL     1     104.305 128.341 142.104  0.00  0.00    +0.000 OA
ATOM     11  O   UNL     1     103.307 130.836 143.251  0.00  0.00    +0.000 OA
ATOM     12  O   UNL     1     102.389 128.979 139.214  0.00  0.00    +0.000 OA
ENDROOT
BRANCH   9  13
ATOM     13  C   UNL     1     105.227 128.089 143.565  0.00  0.00    +0.000 A 
ATOM     14  C   UNL     1     105.102 127.974 144.602  0.00  0.00    +0.000 A 
ATOM     15  C   UNL     1     105.770 127.375 145.149  0.00  0.00    +0.000 A 
ATOM     16  C   UNL     1     106.563 126.891 144.658  0.00  0.00    +0.000 A 
ATOM     17  C   UNL     1     106.688 127.005 143.621  0.00  0.00    +0.000 A 
ATOM     18  C   UNL     1     106.020 127.605 143.074  0.00  0.00    +0.000 A 
ATOM     19  O   UNL     1     107.152 126.362 145.143  0.00  0.00    +0.000 OA
BRANCH  17  20
ATOM     20  O   UNL     1     107.378 126.583 143.197  0.00  0.00    +0.000 OA
ATOM     21  C   UNL     1     107.444 126.601 142.089  0.00  0.00    +0.000 C 
ENDBRANCH  17  20
BRANCH  15  22
ATOM     22  O   UNL     1     105.649 127.268 146.130  0.00  0.00    +0.000 OA
ATOM     23  C   UNL     1     105.044 128.089 146.750  0.00  0.00    +0.000 C 
ENDBRANCH  15  22
ENDBRANCH   9  13
BRANCH   4  24
ATOM     24  O   UNL     1     102.300 131.209 141.776  0.00  0.00    +0.000 OA
BRANCH  24  28
ATOM     25  C   UNL     1     102.035 134.447 141.421  0.00  0.00    +0.000 C 
ATOM     26  C   UNL     1     101.190 133.900 141.728  0.00  0.00    +0.000 C 
ATOM     27  C   UNL     1     101.510 132.899 141.772  0.00  0.00    +0.000 C 
ATOM     28  C   UNL     1     101.294 131.888 141.966  0.00  0.00    +0.000 C 
ATOM     29  O   UNL     1     102.137 132.436 141.659  0.00  0.00    +0.000 OA
ATOM     30  C   UNL     1     101.819 133.436 141.615  0.00  0.00    +0.000 C 
ATOM     31  O   UNL     1     101.404 135.039 141.517  0.00  0.00    +0.000 OA
ATOM     32  O   UNL     1     101.473 134.475 141.573  0.00  0.00    +0.000 OA
ATOM     33  O   UNL     1     100.711 133.093 141.968  0.00  0.00    +0.000 OA
BRANCH  30  34
ATOM     34  C   UNL     1     102.524 133.656 141.389  0.00  0.00    +0.000 C 
ATOM     35  O   UNL     1     102.779 134.073 140.880  0.00  0.00    +0.000 OA
ENDBRANCH  30  34
ENDBRANCH  24  28
ENDBRANCH   4  24
TORSDOF 6
ENDMDL
MODEL 5
REMARK VINA RESULT:      -8.7      8.870     10.612
REMARK  Name = 
REMARK  6 active torsions:
REMARK  status: ('A' for Active; 'I' for Inactive)
REMARK    1  A    between atoms: C_4  and  O_19
REMARK    2  A    between atoms: C_9  and  C_11
REMARK    3  A    between atoms: C_13  and  O_23
REMARK    4  A    between atoms: C_15  and  O_21
REMARK    5  A    between atoms: O_19  and  C_28
REMARK    6  A    between atoms: C_30  and  C_31
REMARK                            x       y       z     vdW  Elec       q    Type
REMARK                         _______ _______ _______ _____ _____    ______ ____
ROOT
ATOM      1  C   UNL     1     114.364 128.657 135.339  0.00  0.00    +0.000 A 
ATOM      2  C   UNL     1     113.778 129.483 135.619  0.00  0.00    +0.000 A 
ATOM      3  C   UNL     1     114.185 127.714 135.768  0.00  0.00    +0.000 A 
ATOM      4  C   UNL     1     113.418 127.599 136.478  0.00  0.00    +0.000 A 
ATOM      5  C   UNL     1     112.832 128.425 136.758  0.00  0.00    +0.000 A 
ATOM      6  C   UNL     1     113.012 129.367 136.329  0.00  0.00    +0.000 A 
ATOM      7  C   UNL     1     112.066 128.309 137.468  0.00  0.00    +0.000 C 
ATOM      8  C   UNL     1     111.480 129.135 137.748  0.00  0.00    +0.000 C 
ATOM      9  C   UNL     1     111.660 130.077 137.318  0.00  0.00    +0.000 C 
ATOM     10  O   UNL     1     112.426 130.193 136.609  0.00  0.00    +0.000 OA
ATOM     11  O   UNL     1     111.926 127.573 137.802  0.00  0.00    +0.000 OA
ATOM     12  O   UNL     1     115.034 128.762 134.717  0.00  0.00    +0.000 OA
ENDROOT
BRANCH   9  13
ATOM     13  C   UNL     1     111.122 130.834 137.576  0.00  0.00    +0.000 A 
ATOM     14  C   UNL     1     110.710 131.460 136.839  0.00  0.00    +0.000 A 
ATOM     15  C   UNL     1     110.123 132.287 137.120  0.00  0.00    +0.000 A 
ATOM     16  C   UNL     1     109.949 132.485 138.137  0.00  0.00    +0.000 A 
ATOM     17  C   UNL     1     110.361 131.859 138.874  0.00  0.00    +0.000 A 
ATOM     18  C   UNL     1     110.948 131.033 138.593  0.00  0.00    +0.000 A 
ATOM     19  O   UNL     1     109.431 133.215 138.382  0.00  0.00    +0.000 OA
BRANCH  17  20
ATOM     20  O   UNL     1     110.208 132.035 139.756  0.00  0.00    +0.000 OA
ATOM     21  C   UNL     1     110.206 131.206 140.495  0.00  0.00    +0.000 C 
ENDBRANCH  17  20
BRANCH  15  22
ATOM     22  O   UNL     1     109.734 132.877 136.421  0.00  0.00    +0.000 OA
ATOM     23  C   UNL     1     109.278 132.404 135.425  0.00  0.00    +0.000 C 
ENDBRANCH  15  22
ENDBRANCH   9  13
BRANCH   4  24
ATOM     24  O   UNL     1     113.266 126.789 136.845  0.00  0.00    +0.000 OA
BRANCH  24  28
ATOM     25  C   UNL     1     111.947 123.807 136.617  0.00  0.00    +0.000 C 
ATOM     26  C   UNL     1     112.918 123.903 137.010  0.00  0.00    +0.000 C 
ATOM     27  C   UNL     1     113.126 124.934 136.986  0.00  0.00    +0.000 C 
ATOM     28  C   UNL     1     113.789 125.727 137.176  0.00  0.00    +0.000 C 
ATOM     29  O   UNL     1     112.819 125.631 136.783  0.00  0.00    +0.000 OA
ATOM     30  C   UNL     1     112.610 124.601 136.807  0.00  0.00    +0.000 C 
ATOM     31  O   UNL     1     112.196 122.995 136.807  0.00  0.00    +0.000 OA
ATOM     32  O   UNL     1     112.407 123.524 136.838  0.00  0.00    +0.000 OA
ATOM     33  O   UNL     1     113.706 124.396 137.284  0.00  0.00    +0.000 OA
BRANCH  30  34
ATOM     34  C   UNL     1     111.912 124.730 136.503  0.00  0.00    +0.000 C 
ATOM     35  O   UNL     1     111.544 124.459 135.966  0.00  0.00    +0.000 OA
ENDBRANCH  30  34
ENDBRANCH  24  28
ENDBRANCH   4  24
TORSDOF 6
ENDMDL
MODEL 6
REMARK VINA RESULT:      -8.6      7.723      9.581
REMARK  Name = 
REMARK  6 active torsions:
REMARK  status: ('A' for Active; 'I' for Inactive)
REMARK    1  A    between atoms: C_4  and  O_19
REMARK    2  A    between atoms: C_9  and  C_11
REMARK    3  A    between atoms: C_13  and  O_23
REMARK    4  A    between atoms: C_15  and  O_21
REMARK    5  A    between atoms: O_19  and  C_28
REMARK    6  A    between atoms: C_30  and  C_31
REMARK                            x       y       z     vdW  Elec       q    Type
REMARK                         _______ _______ _______ _____ _____    ______ ____
ROOT
ATOM      1  C   UNL     1     111.607 128.482 142.622  0.00  0.00    +0.000 A 
ATOM      2  C   UNL     1     111.291 129.037 143.456  0.00  0.00    +0.000 A 
ATOM      3  C   UNL     1     112.204 128.934 141.883  0.00  0.00    +0.000 A 
ATOM      4  C   UNL     1     112.484 129.942 141.981  0.00  0.00    +0.000 A 
ATOM      5  C   UNL     1     112.169 130.498 142.815  0.00  0.00    +0.000 A 
ATOM      6  C   UNL     1     111.572 130.046 143.552  0.00  0.00    +0.000 A 
ATOM      7  C   UNL     1     112.449 131.506 142.911  0.00  0.00    +0.000 C 
ATOM      8  C   UNL     1     112.133 132.062 143.745  0.00  0.00    +0.000 C 
ATOM      9  C   UNL     1     111.537 131.609 144.483  0.00  0.00    +0.000 C 
ATOM     10  O   UNL     1     111.256 130.601 144.387  0.00  0.00    +0.000 OA
ATOM     11  O   UNL     1     112.914 131.858 142.335  0.00  0.00    +0.000 OA
ATOM     12  O   UNL     1     111.360 127.599 142.540  0.00  0.00    +0.000 OA
ENDROOT
BRANCH   9  13
ATOM     13  C   UNL     1     111.248 132.119 145.248  0.00  0.00    +0.000 A 
ATOM     14  C   UNL     1     110.281 132.531 145.270  0.00  0.00    +0.000 A 
ATOM     15  C   UNL     1     109.966 133.088 146.104  0.00  0.00    +0.000 A 
ATOM     16  C   UNL     1     110.618 133.232 146.916  0.00  0.00    +0.000 A 
ATOM     17  C   UNL     1     111.584 132.820 146.894  0.00  0.00    +0.000 A 
ATOM     18  C   UNL     1     111.899 132.264 146.060  0.00  0.00    +0.000 A 
ATOM     19  O   UNL     1     110.336 133.724 147.651  0.00  0.00    +0.000 OA
BRANCH  17  20
ATOM     20  O   UNL     1     112.147 132.947 147.601  0.00  0.00    +0.000 OA
ATOM     21  C   UNL     1     113.040 132.298 147.723  0.00  0.00    +0.000 C 
ENDBRANCH  17  20
BRANCH  15  22
ATOM     22  O   UNL     1     109.051 133.477 146.122  0.00  0.00    +0.000 OA
ATOM     23  C   UNL     1     108.169 132.956 145.509  0.00  0.00    +0.000 C 
ENDBRANCH  15  22
ENDBRANCH   9  13
BRANCH   4  24
ATOM     24  O   UNL     1     112.996 130.327 141.345  0.00  0.00    +0.000 OA
BRANCH  24  28
ATOM     25  C   UNL     1     113.529 130.637 138.135  0.00  0.00    +0.000 C 
ATOM     26  C   UNL     1     114.351 130.482 138.773  0.00  0.00    +0.000 C 
ATOM     27  C   UNL     1     113.943 130.413 139.740  0.00  0.00    +0.000 C 
ATOM     28  C   UNL     1     114.083 130.282 140.774  0.00  0.00    +0.000 C 
ATOM     29  O   UNL     1     113.262 130.437 140.136  0.00  0.00    +0.000 OA
ATOM     30  C   UNL     1     113.669 130.506 139.169  0.00  0.00    +0.000 C 
ATOM     31  O   UNL     1     114.224 130.626 137.611  0.00  0.00    +0.000 OA
ATOM     32  O   UNL     1     114.108 130.575 138.168  0.00  0.00    +0.000 OA
ATOM     33  O   UNL     1     114.777 130.341 139.632  0.00  0.00    +0.000 OA
BRANCH  30  34
ATOM     34  C   UNL     1     112.963 130.610 138.874  0.00  0.00    +0.000 C 
ATOM     35  O   UNL     1     112.676 131.063 138.415  0.00  0.00    +0.000 OA
ENDBRANCH  30  34
ENDBRANCH  24  28
ENDBRANCH   4  24
TORSDOF 6
ENDMDL
MODEL 7
REMARK VINA RESULT:      -8.5      2.394      5.029
REMARK  Name = 
REMARK  6 active torsions:
REMARK  status: ('A' for Active; 'I' for Inactive)
REMARK    1  A    between atoms: C_4  and  O_19
REMARK    2  A    between atoms: C_9  and  C_11
REMARK    3  A    between atoms: C_13  and  O_23
REMARK    4  A    between atoms: C_15  and  O_21
REMARK    5  A    between atoms: O_19  and  C_28
REMARK    6  A    between atoms: C_30  and  C_31
REMARK                            x       y       z     vdW  Elec       q    Type
REMARK                         _______ _______ _______ _____ _____    ______ ____
ROOT
ATOM      1  C   UNL     1     105.752 125.388 144.001  0.00  0.00    +0.000 A 
ATOM      2  C   UNL     1     106.296 126.278 144.133  0.00  0.00    +0.000 A 
ATOM      3  C   UNL     1     105.746 124.909 143.066  0.00  0.00    +0.000 A 
ATOM      4  C   UNL     1     106.285 125.321 142.262  0.00  0.00    +0.000 A 
ATOM      5  C   UNL     1     106.829 126.210 142.394  0.00  0.00    +0.000 A 
ATOM      6  C   UNL     1     106.834 126.689 143.329  0.00  0.00    +0.000 A 
ATOM      7  C   UNL     1     107.367 126.621 141.591  0.00  0.00    +0.000 C 
ATOM      8  C   UNL     1     107.911 127.510 141.722  0.00  0.00    +0.000 C 
ATOM      9  C   UNL     1     107.917 127.989 142.658  0.00  0.00    +0.000 C 
ATOM     10  O   UNL     1     107.379 127.578 143.462  0.00  0.00    +0.000 OA
ATOM     11  O   UNL     1     107.362 126.246 140.861  0.00  0.00    +0.000 OA
ATOM     12  O   UNL     1     105.282 125.032 144.707  0.00  0.00    +0.000 OA
ENDROOT
BRANCH   9  13
ATOM     13  C   UNL     1     108.416 128.804 142.778  0.00  0.00    +0.000 A 
ATOM     14  C   UNL     1     109.461 128.770 142.883  0.00  0.00    +0.000 A 
ATOM     15  C   UNL     1     110.006 129.660 143.014  0.00  0.00    +0.000 A 
ATOM     16  C   UNL     1     109.504 130.583 143.040  0.00  0.00    +0.000 A 
ATOM     17  C   UNL     1     108.459 130.617 142.936  0.00  0.00    +0.000 A 
ATOM     18  C   UNL     1     107.915 129.728 142.805  0.00  0.00    +0.000 A 
ATOM     19  O   UNL     1     109.987 131.367 143.156  0.00  0.00    +0.000 OA
BRANCH  17  20
ATOM     20  O   UNL     1     108.026 131.421 142.959  0.00  0.00    +0.000 OA
ATOM     21  C   UNL     1     106.932 131.458 143.146  0.00  0.00    +0.000 C 
ENDBRANCH  17  20
BRANCH  15  22
ATOM     22  O   UNL     1     110.994 129.625 143.112  0.00  0.00    +0.000 OA
ATOM     23  C   UNL     1     111.586 128.623 142.845  0.00  0.00    +0.000 C 
ENDBRANCH  15  22
ENDBRANCH   9  13
BRANCH   4  24
ATOM     24  O   UNL     1     106.278 124.907 141.461  0.00  0.00    +0.000 OA
BRANCH  24  28
ATOM     25  C   UNL     1     104.520 124.136 138.815  0.00  0.00    +0.000 C 
ATOM     26  C   UNL     1     105.124 123.396 139.256  0.00  0.00    +0.000 C 
ATOM     27  C   UNL     1     105.585 123.866 140.076  0.00  0.00    +0.000 C 
ATOM     28  C   UNL     1     106.236 123.815 140.900  0.00  0.00    +0.000 C 
ATOM     29  O   UNL     1     105.633 124.554 140.458  0.00  0.00    +0.000 OA
ATOM     30  C   UNL     1     105.172 124.084 139.639  0.00  0.00    +0.000 C 
ATOM     31  O   UNL     1     104.399 123.425 138.327  0.00  0.00    +0.000 OA
ATOM     32  O   UNL     1     104.698 123.581 138.788  0.00  0.00    +0.000 OA
ATOM     33  O   UNL     1     105.749 123.054 139.912  0.00  0.00    +0.000 OA
BRANCH  30  34
ATOM     34  C   UNL     1     104.803 124.740 139.464  0.00  0.00    +0.000 C 
ATOM     35  O   UNL     1     104.791 125.172 138.906  0.00  0.00    +0.000 OA
ENDBRANCH  30  34
ENDBRANCH  24  28
ENDBRANCH   4  24
TORSDOF 6
ENDMDL
MODEL 8
REMARK VINA RESULT:      -8.5      7.673      9.661
REMARK  Name = 
REMARK  6 active torsions:
REMARK  status: ('A' for Active; 'I' for Inactive)
REMARK    1  A    between atoms: C_4  and  O_19
REMARK    2  A    between atoms: C_9  and  C_11
REMARK    3  A    between atoms: C_13  and  O_23
REMARK    4  A    between atoms: C_15  and  O_21
REMARK    5  A    between atoms: O_19  and  C_28
REMARK    6  A    between atoms: C_30  and  C_31
REMARK                            x       y       z     vdW  Elec       q    Type
REMARK                         _______ _______ _______ _____ _____    ______ ____
ROOT
ATOM      1  C   UNL     1     112.968 128.852 135.903  0.00  0.00    +0.000 A 
ATOM      2  C   UNL     1     112.976 129.487 136.741  0.00  0.00    +0.000 A 
ATOM      3  C   UNL     1     113.017 127.810 136.032  0.00  0.00    +0.000 A 
ATOM      4  C   UNL     1     113.074 127.403 136.999  0.00  0.00    +0.000 A 
ATOM      5  C   UNL     1     113.082 128.037 137.837  0.00  0.00    +0.000 A 
ATOM      6  C   UNL     1     113.033 129.079 137.708  0.00  0.00    +0.000 A 
ATOM      7  C   UNL     1     113.139 127.630 138.804  0.00  0.00    +0.000 C 
ATOM      8  C   UNL     1     113.148 128.264 139.642  0.00  0.00    +0.000 C 
ATOM      9  C   UNL     1     113.099 129.305 139.512  0.00  0.00    +0.000 C 
ATOM     10  O   UNL     1     113.042 129.713 138.546  0.00  0.00    +0.000 OA
ATOM     11  O   UNL     1     113.177 126.817 138.903  0.00  0.00    +0.000 OA
ATOM     12  O   UNL     1     112.918 129.212 135.058  0.00  0.00    +0.000 OA
ENDROOT
BRANCH   9  13
ATOM     13  C   UNL     1     113.106 129.887 140.281  0.00  0.00    +0.000 A 
ATOM     14  C   UNL     1     112.242 129.991 140.870  0.00  0.00    +0.000 A 
ATOM     15  C   UNL     1     112.250 130.625 141.709  0.00  0.00    +0.000 A 
ATOM     16  C   UNL     1     113.123 131.154 141.958  0.00  0.00    +0.000 A 
ATOM     17  C   UNL     1     113.987 131.050 141.369  0.00  0.00    +0.000 A 
ATOM     18  C   UNL     1     113.979 130.416 140.531  0.00  0.00    +0.000 A 
ATOM     19  O   UNL     1     113.127 131.713 142.699  0.00  0.00    +0.000 OA
BRANCH  17  20
ATOM     20  O   UNL     1     114.744 131.511 141.589  0.00  0.00    +0.000 OA
ATOM     21  C   UNL     1     115.669 131.377 140.990  0.00  0.00    +0.000 C 
ENDBRANCH  17  20
BRANCH  15  22
ATOM     22  O   UNL     1     111.430 130.722 142.263  0.00  0.00    +0.000 OA
ATOM     23  C   UNL     1     110.686 129.798 142.395  0.00  0.00    +0.000 C 
ENDBRANCH  15  22
ENDBRANCH   9  13
BRANCH   4  24
ATOM     24  O   UNL     1     113.116 126.508 137.106  0.00  0.00    +0.000 OA
BRANCH  24  28
ATOM     25  C   UNL     1     111.756 123.536 137.145  0.00  0.00    +0.000 C 
ATOM     26  C   UNL     1     112.711 123.651 136.720  0.00  0.00    +0.000 C 
ATOM     27  C   UNL     1     112.938 124.673 136.820  0.00  0.00    +0.000 C 
ATOM     28  C   UNL     1     113.606 125.470 136.667  0.00  0.00    +0.000 C 
ATOM     29  O   UNL     1     112.652 125.355 137.092  0.00  0.00    +0.000 OA
ATOM     30  C   UNL     1     112.424 124.333 136.992  0.00  0.00    +0.000 C 
ATOM     31  O   UNL     1     111.982 122.739 136.878  0.00  0.00    +0.000 OA
ATOM     32  O   UNL     1     112.201 123.267 136.882  0.00  0.00    +0.000 OA
ATOM     33  O   UNL     1     113.495 124.154 136.454  0.00  0.00    +0.000 OA
BRANCH  30  34
ATOM     34  C   UNL     1     111.742 124.447 137.335  0.00  0.00    +0.000 C 
ATOM     35  O   UNL     1     111.378 124.120 137.844  0.00  0.00    +0.000 OA
ENDBRANCH  30  34
ENDBRANCH  24  28
ENDBRANCH   4  24
TORSDOF 6
ENDMDL
MODEL 9
REMARK VINA RESULT:      -8.5      2.379      4.873
REMARK  Name = 
REMARK  6 active torsions:
REMARK  status: ('A' for Active; 'I' for Inactive)
REMARK    1  A    between atoms: C_4  and  O_19
REMARK    2  A    between atoms: C_9  and  C_11
REMARK    3  A    between atoms: C_13  and  O_23
REMARK    4  A    between atoms: C_15  and  O_21
REMARK    5  A    between atoms: O_19  and  C_28
REMARK    6  A    between atoms: C_30  and  C_31
REMARK                            x       y       z     vdW  Elec       q    Type
REMARK                         _______ _______ _______ _____ _____    ______ ____
ROOT
ATOM      1  C   UNL     1     105.767 125.413 143.992  0.00  0.00    +0.000 A 
ATOM      2  C   UNL     1     106.302 126.313 144.090  0.00  0.00    +0.000 A 
ATOM      3  C   UNL     1     105.775 124.893 143.080  0.00  0.00    +0.000 A 
ATOM      4  C   UNL     1     106.318 125.272 142.264  0.00  0.00    +0.000 A 
ATOM      5  C   UNL     1     106.853 126.172 142.360  0.00  0.00    +0.000 A 
ATOM      6  C   UNL     1     106.845 126.692 143.274  0.00  0.00    +0.000 A 
ATOM      7  C   UNL     1     107.396 126.551 141.545  0.00  0.00    +0.000 C 
ATOM      8  C   UNL     1     107.931 127.450 141.641  0.00  0.00    +0.000 C 
ATOM      9  C   UNL     1     107.923 127.970 142.555  0.00  0.00    +0.000 C 
ATOM     10  O   UNL     1     107.380 127.591 143.371  0.00  0.00    +0.000 OA
ATOM     11  O   UNL     1     107.401 126.144 140.833  0.00  0.00    +0.000 OA
ATOM     12  O   UNL     1     105.293 125.084 144.709  0.00  0.00    +0.000 OA
ENDROOT
BRANCH   9  13
ATOM     13  C   UNL     1     108.413 128.795 142.643  0.00  0.00    +0.000 A 
ATOM     14  C   UNL     1     107.911 129.715 142.572  0.00  0.00    +0.000 A 
ATOM     15  C   UNL     1     108.447 130.615 142.669  0.00  0.00    +0.000 A 
ATOM     16  C   UNL     1     109.484 130.593 142.836  0.00  0.00    +0.000 A 
ATOM     17  C   UNL     1     109.986 129.673 142.907  0.00  0.00    +0.000 A 
ATOM     18  C   UNL     1     109.451 128.774 142.810  0.00  0.00    +0.000 A 
ATOM     19  O   UNL     1     109.954 131.389 142.920  0.00  0.00    +0.000 OA
BRANCH  17  20
ATOM     20  O   UNL     1     110.887 129.658 143.052  0.00  0.00    +0.000 OA
ATOM     21  C   UNL     1     111.471 128.740 142.825  0.00  0.00    +0.000 C 
ENDBRANCH  17  20
BRANCH  15  22
ATOM     22  O   UNL     1     107.969 131.484 142.601  0.00  0.00    +0.000 OA
ATOM     23  C   UNL     1     106.797 131.541 142.823  0.00  0.00    +0.000 C 
ENDBRANCH  15  22
ENDBRANCH   9  13
BRANCH   4  24
ATOM     24  O   UNL     1     106.323 124.823 141.482  0.00  0.00    +0.000 OA
BRANCH  24  28
ATOM     25  C   UNL     1     104.607 123.893 138.860  0.00  0.00    +0.000 C 
ATOM     26  C   UNL     1     105.223 123.188 139.339  0.00  0.00    +0.000 C 
ATOM     27  C   UNL     1     105.666 123.706 140.140  0.00  0.00    +0.000 C 
ATOM     28  C   UNL     1     106.311 123.706 140.970  0.00  0.00    +0.000 C 
ATOM     29  O   UNL     1     105.695 124.410 140.491  0.00  0.00    +0.000 OA
ATOM     30  C   UNL     1     105.252 123.894 139.690  0.00  0.00    +0.000 C 
ATOM     31  O   UNL     1     104.506 123.159 138.404  0.00  0.00    +0.000 OA
ATOM     32  O   UNL     1     104.797 123.342 138.860  0.00  0.00    +0.000 OA
ATOM     33  O   UNL     1     105.850 122.890 140.014  0.00  0.00    +0.000 OA
BRANCH  30  34
ATOM     34  C   UNL     1     104.870 124.533 139.483  0.00  0.00    +0.000 C 
ATOM     35  O   UNL     1     104.873 124.954 138.917  0.00  0.00    +0.000 OA
ENDBRANCH  30  34
ENDBRANCH  24  28
ENDBRANCH   4  24
TORSDOF 6
ENDMDL
MODEL 10
REMARK VINA RESULT:      -8.4      2.851      5.602
REMARK  Name = 
REMARK  6 active torsions:
REMARK  status: ('A' for Active; 'I' for Inactive)
REMARK    1  A    between atoms: C_4  and  O_19
REMARK    2  A    between atoms: C_9  and  C_11
REMARK    3  A    between atoms: C_13  and  O_23
REMARK    4  A    between atoms: C_15  and  O_21
REMARK    5  A    between atoms: O_19  and  C_28
REMARK    6  A    between atoms: C_30  and  C_31
REMARK                            x       y       z     vdW  Elec       q    Type
REMARK                         _______ _______ _______ _____ _____    ______ ____
ROOT
ATOM      1  C   UNL     1     106.017 126.428 143.164  0.00  0.00    +0.000 A 
ATOM      2  C   UNL     1     106.903 126.991 143.216  0.00  0.00    +0.000 A 
ATOM      3  C   UNL     1     105.863 125.762 142.366  0.00  0.00    +0.000 A 
ATOM      4  C   UNL     1     106.596 125.659 141.619  0.00  0.00    +0.000 A 
ATOM      5  C   UNL     1     107.482 126.222 141.671  0.00  0.00    +0.000 A 
ATOM      6  C   UNL     1     107.635 126.888 142.469  0.00  0.00    +0.000 A 
ATOM      7  C   UNL     1     108.214 126.120 140.924  0.00  0.00    +0.000 C 
ATOM      8  C   UNL     1     109.100 126.682 140.976  0.00  0.00    +0.000 C 
ATOM      9  C   UNL     1     109.253 127.348 141.775  0.00  0.00    +0.000 C 
ATOM     10  O   UNL     1     108.521 127.451 142.521  0.00  0.00    +0.000 OA
ATOM     11  O   UNL     1     108.093 125.600 140.302  0.00  0.00    +0.000 OA
ATOM     12  O   UNL     1     105.378 126.520 143.820  0.00  0.00    +0.000 OA
ENDROOT
BRANCH   9  13
ATOM     13  C   UNL     1     110.066 127.864 141.822  0.00  0.00    +0.000 A 
ATOM     14  C   UNL     1     110.993 127.402 141.644  0.00  0.00    +0.000 A 
ATOM     15  C   UNL     1     111.880 127.965 141.696  0.00  0.00    +0.000 A 
ATOM     16  C   UNL     1     111.838 128.990 141.924  0.00  0.00    +0.000 A 
ATOM     17  C   UNL     1     110.911 129.452 142.101  0.00  0.00    +0.000 A 
ATOM     18  C   UNL     1     110.025 128.889 142.050  0.00  0.00    +0.000 A 
ATOM     19  O   UNL     1     112.622 129.484 141.969  0.00  0.00    +0.000 OA
BRANCH  17  20
ATOM     20  O   UNL     1     110.879 130.343 142.299  0.00  0.00    +0.000 OA
ATOM     21  C   UNL     1     109.957 130.781 142.738  0.00  0.00    +0.000 C 
ENDBRANCH  17  20
BRANCH  15  22
ATOM     22  O   UNL     1     112.755 127.525 141.528  0.00  0.00    +0.000 OA
ATOM     23  C   UNL     1     112.870 126.745 140.631  0.00  0.00    +0.000 C 
ENDBRANCH  15  22
ENDBRANCH   9  13
BRANCH   4  24
ATOM     24  O   UNL     1     106.461 125.087 140.935  0.00  0.00    +0.000 OA
BRANCH  24  28
ATOM     25  C   UNL     1     104.483 124.174 138.499  0.00  0.00    +0.000 C 
ATOM     26  C   UNL     1     104.905 123.433 139.114  0.00  0.00    +0.000 C 
ATOM     27  C   UNL     1     105.493 123.954 139.813  0.00  0.00    +0.000 C 
ATOM     28  C   UNL     1     106.140 123.938 140.642  0.00  0.00    +0.000 C 
ATOM     29  O   UNL     1     105.718 124.678 140.026  0.00  0.00    +0.000 OA
ATOM     30  C   UNL     1     105.130 124.158 139.327  0.00  0.00    +0.000 C 
ATOM     31  O   UNL     1     104.178 123.421 138.186  0.00  0.00    +0.000 OA
ATOM     32  O   UNL     1     104.521 123.603 138.606  0.00  0.00    +0.000 OA
ATOM     33  O   UNL     1     105.451 123.111 139.846  0.00  0.00    +0.000 OA
BRANCH  30  34
ATOM     34  C   UNL     1     104.924 124.825 138.997  0.00  0.00    +0.000 C 
ATOM     35  O   UNL     1     104.316 125.172 138.907  0.00  0.00    +0.000 OA
ENDBRANCH  30  34
ENDBRANCH  24  28
ENDBRANCH   4  24
TORSDOF 6
ENDMDL
