MODEL 1
REMARK VINA RESULT:      -8.9      0.000      0.000
REMARK  Name = 42608014
REMARK  6 active torsions:
REMARK  status: ('A' for Active; 'I' for Inactive)
REMARK    1  A    between atoms: O_2  and  C_17
REMARK    2  A    between atoms: O_2  and  C_19
REMARK    3  A    between atoms: O_10  and  C_31
REMARK    4  A    between atoms: O_11  and  C_32
REMARK    5  A    between atoms: C_16  and  C_18
REMARK    6  A    between atoms: C_21  and  C_26
REMARK                            x       y       z     vdW  Elec       q    Type
REMARK                         _______ _______ _______ _____ _____    ______ ____
ROOT
ATOM      1  O   UNL     1     113.130 127.397 136.240  0.00  0.00    +0.000 OA
ATOM      2  O   UNL     1     111.761 128.573 137.932  0.00  0.00    +0.000 OA
ATOM      3  O   UNL     1     113.949 129.947 135.099  0.00  0.00    +0.000 OA
ATOM      4  C   UNL     1     112.604 129.472 136.825  0.00  0.00    +0.000 A 
ATOM      5  C   UNL     1     112.643 128.613 136.810  0.00  0.00    +0.000 A 
ATOM      6  C   UNL     1     112.704 126.964 136.798  0.00  0.00    +0.000 C 
ATOM      7  C   UNL     1     112.247 127.356 137.363  0.00  0.00    +0.000 C 
ATOM      8  C   UNL     1     113.100 128.221 136.245  0.00  0.00    +0.000 A 
ATOM      9  C   UNL     1     112.218 128.181 137.368  0.00  0.00    +0.000 C 
ATOM     10  C   UNL     1     113.046 129.927 136.247  0.00  0.00    +0.000 A 
ATOM     11  C   UNL     1     113.549 128.659 135.658  0.00  0.00    +0.000 A 
ATOM     12  C   UNL     1     113.521 129.518 135.658  0.00  0.00    +0.000 A 
ENDROOT
BRANCH   6  14
ATOM     13  O   UNL     1     112.824 123.666 136.777  0.00  0.00    +0.000 OA
ATOM     14  C   UNL     1     112.734 126.140 136.793  0.00  0.00    +0.000 A 
ATOM     15  C   UNL     1     112.119 125.707 136.454  0.00  0.00    +0.000 A 
ATOM     16  C   UNL     1     113.379 125.749 137.127  0.00  0.00    +0.000 A 
ATOM     17  C   UNL     1     113.408 124.924 137.121  0.00  0.00    +0.000 A 
ATOM     18  C   UNL     1     112.149 124.883 136.449  0.00  0.00    +0.000 A 
ATOM     19  C   UNL     1     112.795 124.491 136.783  0.00  0.00    +0.000 A 
BRANCH  17  20
ATOM     20  O   UNL     1     114.054 124.532 137.455  0.00  0.00    +0.000 OA
ATOM     21  C   UNL     1     114.817 124.822 137.338  0.00  0.00    +0.000 C 
ENDBRANCH  17  20
BRANCH  18  22
ATOM     22  O   UNL     1     111.535 124.449 136.109  0.00  0.00    +0.000 OA
ATOM     23  C   UNL     1     110.953 124.835 135.668  0.00  0.00    +0.000 C 
ENDBRANCH  18  22
ENDBRANCH   6  14
BRANCH   4  24
ATOM     24  O   UNL     1     112.145 129.856 137.393  0.00  0.00    +0.000 OA
BRANCH  24  33
ATOM     25  O   UNL     1     111.069 130.313 136.572  0.00  0.00    +0.000 OA
ATOM     26  O   UNL     1     111.167 132.526 137.677  0.00  0.00    +0.000 OA
ATOM     27  O   UNL     1     110.057 132.246 136.488  0.00  0.00    +0.000 OA
ATOM     28  O   UNL     1     112.211 131.331 138.129  0.00  0.00    +0.000 OA
ATOM     29  C   UNL     1     111.134 131.788 137.309  0.00  0.00    +0.000 C 
ATOM     30  C   UNL     1     110.580 131.648 136.715  0.00  0.00    +0.000 C 
ATOM     31  C   UNL     1     111.656 131.191 137.535  0.00  0.00    +0.000 C 
ATOM     32  C   UNL     1     110.547 130.911 136.346  0.00  0.00    +0.000 C 
ATOM     33  C   UNL     1     111.624 130.453 137.167  0.00  0.00    +0.000 C 
BRANCH  32  35
ATOM     34  O   UNL     1     109.581 130.056 135.732  0.00  0.00    +0.000 OA
ATOM     35  C   UNL     1     109.992 130.771 135.752  0.00  0.00    +0.000 C 
ENDBRANCH  32  35
ENDBRANCH  24  33
ENDBRANCH   4  24
TORSDOF 6
ENDMDL
MODEL 2
REMARK VINA RESULT:      -8.9      0.025      1.310
REMARK  Name = 42608014
REMARK  6 active torsions:
REMARK  status: ('A' for Active; 'I' for Inactive)
REMARK    1  A    between atoms: O_2  and  C_17
REMARK    2  A    between atoms: O_2  and  C_19
REMARK    3  A    between atoms: O_10  and  C_31
REMARK    4  A    between atoms: O_11  and  C_32
REMARK    5  A    between atoms: C_16  and  C_18
REMARK    6  A    between atoms: C_21  and  C_26
REMARK                            x       y       z     vdW  Elec       q    Type
REMARK                         _______ _______ _______ _____ _____    ______ ____
ROOT
ATOM      1  O   UNL     1     113.144 127.398 136.240  0.00  0.00    +0.000 OA
ATOM      2  O   UNL     1     111.752 128.554 137.928  0.00  0.00    +0.000 OA
ATOM      3  O   UNL     1     113.964 129.962 135.130  0.00  0.00    +0.000 OA
ATOM      4  C   UNL     1     112.603 129.465 136.838  0.00  0.00    +0.000 A 
ATOM      5  C   UNL     1     112.646 128.607 136.815  0.00  0.00    +0.000 A 
ATOM      6  C   UNL     1     112.713 126.959 136.790  0.00  0.00    +0.000 C 
ATOM      7  C   UNL     1     112.249 127.344 137.353  0.00  0.00    +0.000 C 
ATOM      8  C   UNL     1     113.110 128.222 136.253  0.00  0.00    +0.000 A 
ATOM      9  C   UNL     1     112.216 128.169 137.365  0.00  0.00    +0.000 C 
ATOM     10  C   UNL     1     113.049 129.928 136.268  0.00  0.00    +0.000 A 
ATOM     11  C   UNL     1     113.563 128.667 135.674  0.00  0.00    +0.000 A 
ATOM     12  C   UNL     1     113.533 129.526 135.682  0.00  0.00    +0.000 A 
ENDROOT
BRANCH   6  14
ATOM     13  O   UNL     1     112.848 123.662 136.742  0.00  0.00    +0.000 OA
ATOM     14  C   UNL     1     112.747 126.135 136.778  0.00  0.00    +0.000 A 
ATOM     15  C   UNL     1     113.396 125.743 137.104  0.00  0.00    +0.000 A 
ATOM     16  C   UNL     1     112.131 125.702 136.440  0.00  0.00    +0.000 A 
ATOM     17  C   UNL     1     112.165 124.877 136.428  0.00  0.00    +0.000 A 
ATOM     18  C   UNL     1     113.429 124.919 137.092  0.00  0.00    +0.000 A 
ATOM     19  C   UNL     1     112.813 124.486 136.754  0.00  0.00    +0.000 A 
BRANCH  17  20
ATOM     20  O   UNL     1     111.550 124.444 136.090  0.00  0.00    +0.000 OA
ATOM     21  C   UNL     1     110.960 124.831 135.662  0.00  0.00    +0.000 C 
ENDBRANCH  17  20
BRANCH  18  22
ATOM     22  O   UNL     1     114.078 124.528 137.418  0.00  0.00    +0.000 OA
ATOM     23  C   UNL     1     114.835 124.846 137.338  0.00  0.00    +0.000 C 
ENDBRANCH  18  22
ENDBRANCH   6  14
BRANCH   4  24
ATOM     24  O   UNL     1     112.136 129.843 137.404  0.00  0.00    +0.000 OA
BRANCH  24  33
ATOM     25  O   UNL     1     111.072 130.314 136.575  0.00  0.00    +0.000 OA
ATOM     26  O   UNL     1     111.164 132.513 137.706  0.00  0.00    +0.000 OA
ATOM     27  O   UNL     1     110.069 132.251 136.501  0.00  0.00    +0.000 OA
ATOM     28  O   UNL     1     112.198 131.309 138.158  0.00  0.00    +0.000 OA
ATOM     29  C   UNL     1     111.133 131.780 137.329  0.00  0.00    +0.000 C 
ATOM     30  C   UNL     1     110.586 131.649 136.727  0.00  0.00    +0.000 C 
ATOM     31  C   UNL     1     111.651 131.178 137.556  0.00  0.00    +0.000 C 
ATOM     32  C   UNL     1     110.555 130.916 136.350  0.00  0.00    +0.000 C 
ATOM     33  C   UNL     1     111.620 130.445 137.179  0.00  0.00    +0.000 C 
BRANCH  32  35
ATOM     34  O   UNL     1     109.606 130.065 135.704  0.00  0.00    +0.000 OA
ATOM     35  C   UNL     1     110.007 130.785 135.747  0.00  0.00    +0.000 C 
ENDBRANCH  32  35
ENDBRANCH  24  33
ENDBRANCH   4  24
TORSDOF 6
ENDMDL
MODEL 3
REMARK VINA RESULT:      -8.5      2.594      3.487
REMARK  Name = 42608014
REMARK  6 active torsions:
REMARK  status: ('A' for Active; 'I' for Inactive)
REMARK    1  A    between atoms: O_2  and  C_17
REMARK    2  A    between atoms: O_2  and  C_19
REMARK    3  A    between atoms: O_10  and  C_31
REMARK    4  A    between atoms: O_11  and  C_32
REMARK    5  A    between atoms: C_16  and  C_18
REMARK    6  A    between atoms: C_21  and  C_26
REMARK                            x       y       z     vdW  Elec       q    Type
REMARK                         _______ _______ _______ _____ _____    ______ ____
ROOT
ATOM      1  O   UNL     1     112.858 127.396 137.777  0.00  0.00    +0.000 OA
ATOM      2  O   UNL     1     113.177 127.486 140.229  0.00  0.00    +0.000 OA
ATOM      3  O   UNL     1     112.232 130.239 137.733  0.00  0.00    +0.000 OA
ATOM      4  C   UNL     1     112.764 128.875 139.428  0.00  0.00    +0.000 A 
ATOM      5  C   UNL     1     112.865 128.139 138.998  0.00  0.00    +0.000 A 
ATOM      6  C   UNL     1     113.064 126.713 138.191  0.00  0.00    +0.000 C 
ATOM      7  C   UNL     1     113.171 126.743 139.009  0.00  0.00    +0.000 C 
ATOM      8  C   UNL     1     112.758 128.109 138.180  0.00  0.00    +0.000 A 
ATOM      9  C   UNL     1     113.071 127.456 139.412  0.00  0.00    +0.000 C 
ATOM     10  C   UNL     1     112.549 129.590 139.003  0.00  0.00    +0.000 A 
ATOM     11  C   UNL     1     112.544 128.813 137.737  0.00  0.00    +0.000 A 
ATOM     12  C   UNL     1     112.438 129.558 138.150  0.00  0.00    +0.000 A 
ENDROOT
BRANCH   6  14
ATOM     13  O   UNL     1     113.463 123.861 136.580  0.00  0.00    +0.000 OA
ATOM     14  C   UNL     1     113.164 126.000 137.789  0.00  0.00    +0.000 A 
ATOM     15  C   UNL     1     112.518 125.502 137.665  0.00  0.00    +0.000 A 
ATOM     16  C   UNL     1     113.910 125.785 137.509  0.00  0.00    +0.000 A 
ATOM     17  C   UNL     1     114.009 125.072 137.106  0.00  0.00    +0.000 A 
ATOM     18  C   UNL     1     112.618 124.789 137.262  0.00  0.00    +0.000 A 
ATOM     19  C   UNL     1     113.364 124.574 136.983  0.00  0.00    +0.000 A 
BRANCH  17  20
ATOM     20  O   UNL     1     114.755 124.857 136.826  0.00  0.00    +0.000 OA
ATOM     21  C   UNL     1     115.161 125.355 136.308  0.00  0.00    +0.000 C 
ENDBRANCH  17  20
BRANCH  18  22
ATOM     22  O   UNL     1     111.972 124.291 137.139  0.00  0.00    +0.000 OA
ATOM     23  C   UNL     1     111.276 124.591 136.812  0.00  0.00    +0.000 C 
ENDBRANCH  18  22
ENDBRANCH   6  14
BRANCH   4  24
ATOM     24  O   UNL     1     112.872 128.896 140.246  0.00  0.00    +0.000 OA
BRANCH  24  33
ATOM     25  O   UNL     1     113.995 129.771 140.376  0.00  0.00    +0.000 OA
ATOM     26  O   UNL     1     112.781 131.071 142.098  0.00  0.00    +0.000 OA
ATOM     27  O   UNL     1     114.308 131.512 141.655  0.00  0.00    +0.000 OA
ATOM     28  O   UNL     1     112.063 129.763 141.393  0.00  0.00    +0.000 OA
ATOM     29  C   UNL     1     113.186 130.638 141.524  0.00  0.00    +0.000 C 
ATOM     30  C   UNL     1     113.948 130.858 141.303  0.00  0.00    +0.000 C 
ATOM     31  C   UNL     1     112.826 129.984 141.172  0.00  0.00    +0.000 C 
ATOM     32  C   UNL     1     114.353 130.425 140.729  0.00  0.00    +0.000 C 
ATOM     33  C   UNL     1     113.231 129.550 140.598  0.00  0.00    +0.000 C 
BRANCH  32  35
ATOM     34  O   UNL     1     115.710 130.075 140.449  0.00  0.00    +0.000 OA
ATOM     35  C   UNL     1     115.117 130.646 140.507  0.00  0.00    +0.000 C 
ENDBRANCH  32  35
ENDBRANCH  24  33
ENDBRANCH   4  24
TORSDOF 6
ENDMDL
MODEL 4
REMARK VINA RESULT:      -8.5      2.709      5.927
REMARK  Name = 42608014
REMARK  6 active torsions:
REMARK  status: ('A' for Active; 'I' for Inactive)
REMARK    1  A    between atoms: O_2  and  C_17
REMARK    2  A    between atoms: O_2  and  C_19
REMARK    3  A    between atoms: O_10  and  C_31
REMARK    4  A    between atoms: O_11  and  C_32
REMARK    5  A    between atoms: C_16  and  C_18
REMARK    6  A    between atoms: C_21  and  C_26
REMARK                            x       y       z     vdW  Elec       q    Type
REMARK                         _______ _______ _______ _____ _____    ______ ____
ROOT
ATOM      1  O   UNL     1     113.066 129.097 139.031  0.00  0.00    +0.000 OA
ATOM      2  O   UNL     1     113.773 126.784 139.549  0.00  0.00    +0.000 OA
ATOM      3  O   UNL     1     112.652 128.370 136.242  0.00  0.00    +0.000 OA
ATOM      4  C   UNL     1     113.342 127.156 137.993  0.00  0.00    +0.000 A 
ATOM      5  C   UNL     1     113.319 127.757 138.607  0.00  0.00    +0.000 A 
ATOM      6  C   UNL     1     113.283 128.896 139.801  0.00  0.00    +0.000 C 
ATOM      7  C   UNL     1     113.519 128.124 139.974  0.00  0.00    +0.000 C 
ATOM      8  C   UNL     1     113.083 128.529 138.434  0.00  0.00    +0.000 A 
ATOM      9  C   UNL     1     113.537 127.555 139.376  0.00  0.00    +0.000 C 
ATOM     10  C   UNL     1     113.116 127.360 137.190  0.00  0.00    +0.000 A 
ATOM     11  C   UNL     1     112.854 128.752 137.637  0.00  0.00    +0.000 A 
ATOM     12  C   UNL     1     112.870 128.165 137.011  0.00  0.00    +0.000 A 
ENDROOT
BRANCH   6  14
ATOM     13  O   UNL     1     113.213 131.172 142.189  0.00  0.00    +0.000 OA
ATOM     14  C   UNL     1     113.266 129.464 140.398  0.00  0.00    +0.000 A 
ATOM     15  C   UNL     1     113.876 130.016 140.461  0.00  0.00    +0.000 A 
ATOM     16  C   UNL     1     112.637 129.482 140.932  0.00  0.00    +0.000 A 
ATOM     17  C   UNL     1     112.620 130.052 141.529  0.00  0.00    +0.000 A 
ATOM     18  C   UNL     1     113.859 130.584 141.058  0.00  0.00    +0.000 A 
ATOM     19  C   UNL     1     113.230 130.602 141.592  0.00  0.00    +0.000 A 
BRANCH  17  20
ATOM     20  O   UNL     1     111.991 130.070 142.063  0.00  0.00    +0.000 OA
ATOM     21  C   UNL     1     111.218 129.970 141.793  0.00  0.00    +0.000 C 
ENDBRANCH  17  20
BRANCH  18  22
ATOM     22  O   UNL     1     114.469 131.135 141.121  0.00  0.00    +0.000 OA
ATOM     23  C   UNL     1     115.210 130.969 140.797  0.00  0.00    +0.000 C 
ENDBRANCH  18  22
ENDBRANCH   6  14
BRANCH   4  24
ATOM     24  O   UNL     1     113.579 126.387 138.175  0.00  0.00    +0.000 OA
BRANCH  24  33
ATOM     25  O   UNL     1     112.351 125.667 138.043  0.00  0.00    +0.000 OA
ATOM     26  O   UNL     1     113.496 123.967 136.657  0.00  0.00    +0.000 OA
ATOM     27  O   UNL     1     111.887 123.814 136.988  0.00  0.00    +0.000 OA
ATOM     28  O   UNL     1     114.342 125.253 137.251  0.00  0.00    +0.000 OA
ATOM     29  C   UNL     1     113.114 124.533 137.119  0.00  0.00    +0.000 C 
ATOM     30  C   UNL     1     112.310 124.457 137.284  0.00  0.00    +0.000 C 
ATOM     31  C   UNL     1     113.538 125.176 137.416  0.00  0.00    +0.000 C 
ATOM     32  C   UNL     1     111.929 125.024 137.746  0.00  0.00    +0.000 C 
ATOM     33  C   UNL     1     113.156 125.743 137.878  0.00  0.00    +0.000 C 
BRANCH  32  35
ATOM     34  O   UNL     1     110.843 125.103 138.672  0.00  0.00    +0.000 OA
ATOM     35  C   UNL     1     111.123 124.948 137.912  0.00  0.00    +0.000 C 
ENDBRANCH  32  35
ENDBRANCH  24  33
ENDBRANCH   4  24
TORSDOF 6
ENDMDL
MODEL 5
REMARK VINA RESULT:      -8.5      3.005      4.079
REMARK  Name = 42608014
REMARK  6 active torsions:
REMARK  status: ('A' for Active; 'I' for Inactive)
REMARK    1  A    between atoms: O_2  and  C_17
REMARK    2  A    between atoms: O_2  and  C_19
REMARK    3  A    between atoms: O_10  and  C_31
REMARK    4  A    between atoms: O_11  and  C_32
REMARK    5  A    between atoms: C_16  and  C_18
REMARK    6  A    between atoms: C_21  and  C_26
REMARK                            x       y       z     vdW  Elec       q    Type
REMARK                         _______ _______ _______ _____ _____    ______ ____
ROOT
ATOM      1  O   UNL     1     113.052 126.578 139.084  0.00  0.00    +0.000 OA
ATOM      2  O   UNL     1     113.143 129.005 138.608  0.00  0.00    +0.000 OA
ATOM      3  O   UNL     1     114.647 126.969 141.488  0.00  0.00    +0.000 OA
ATOM      4  C   UNL     1     113.909 128.429 139.958  0.00  0.00    +0.000 A 
ATOM      5  C   UNL     1     113.489 127.892 139.434  0.00  0.00    +0.000 A 
ATOM      6  C   UNL     1     112.675 126.881 138.415  0.00  0.00    +0.000 C 
ATOM      7  C   UNL     1     112.705 127.690 138.256  0.00  0.00    +0.000 C 
ATOM      8  C   UNL     1     113.459 127.083 139.593  0.00  0.00    +0.000 A 
ATOM      9  C   UNL     1     113.113 128.196 138.767  0.00  0.00    +0.000 C 
ATOM     10  C   UNL     1     114.303 128.119 140.655  0.00  0.00    +0.000 A 
ATOM     11  C   UNL     1     113.846 126.754 140.286  0.00  0.00    +0.000 A 
ATOM     12  C   UNL     1     114.271 127.275 140.820  0.00  0.00    +0.000 A 
ENDROOT
BRANCH   6  14
ATOM     13  O   UNL     1     111.049 124.860 136.375  0.00  0.00    +0.000 OA
ATOM     14  C   UNL     1     112.269 126.376 137.905  0.00  0.00    +0.000 A 
ATOM     15  C   UNL     1     112.681 125.947 137.334  0.00  0.00    +0.000 A 
ATOM     16  C   UNL     1     111.449 126.300 137.967  0.00  0.00    +0.000 A 
ATOM     17  C   UNL     1     111.043 125.795 137.456  0.00  0.00    +0.000 A 
ATOM     18  C   UNL     1     112.275 125.442 136.825  0.00  0.00    +0.000 A 
ATOM     19  C   UNL     1     111.455 125.366 136.886  0.00  0.00    +0.000 A 
BRANCH  17  20
ATOM     20  O   UNL     1     110.223 125.719 137.517  0.00  0.00    +0.000 OA
ATOM     21  C   UNL     1     109.768 126.359 137.770  0.00  0.00    +0.000 C 
ENDBRANCH  17  20
BRANCH  18  22
ATOM     22  O   UNL     1     112.687 125.012 136.253  0.00  0.00    +0.000 OA
ATOM     23  C   UNL     1     113.389 124.627 136.454  0.00  0.00    +0.000 C 
ENDBRANCH  18  22
ENDBRANCH   6  14
BRANCH   4  24
ATOM     24  O   UNL     1     113.934 129.236 139.792  0.00  0.00    +0.000 OA
BRANCH  24  33
ATOM     25  O   UNL     1     113.140 129.763 140.857  0.00  0.00    +0.000 OA
ATOM     26  O   UNL     1     114.866 131.482 141.294  0.00  0.00    +0.000 OA
ATOM     27  O   UNL     1     113.496 131.435 142.213  0.00  0.00    +0.000 OA
ATOM     28  O   UNL     1     115.085 130.383 140.083  0.00  0.00    +0.000 OA
ATOM     29  C   UNL     1     114.290 130.909 141.148  0.00  0.00    +0.000 C 
ATOM     30  C   UNL     1     113.606 130.886 141.607  0.00  0.00    +0.000 C 
ATOM     31  C   UNL     1     114.401 130.359 140.542  0.00  0.00    +0.000 C 
ATOM     32  C   UNL     1     113.031 130.313 141.462  0.00  0.00    +0.000 C 
ATOM     33  C   UNL     1     113.825 129.786 140.397  0.00  0.00    +0.000 C 
BRANCH  32  35
ATOM     34  O   UNL     1     111.614 130.163 141.563  0.00  0.00    +0.000 OA
ATOM     35  C   UNL     1     112.346 130.289 141.922  0.00  0.00    +0.000 C 
ENDBRANCH  32  35
ENDBRANCH  24  33
ENDBRANCH   4  24
TORSDOF 6
ENDMDL
MODEL 6
REMARK VINA RESULT:      -8.5     10.387     11.288
REMARK  Name = 42608014
REMARK  6 active torsions:
REMARK  status: ('A' for Active; 'I' for Inactive)
REMARK    1  A    between atoms: O_2  and  C_17
REMARK    2  A    between atoms: O_2  and  C_19
REMARK    3  A    between atoms: O_10  and  C_31
REMARK    4  A    between atoms: O_11  and  C_32
REMARK    5  A    between atoms: C_16  and  C_18
REMARK    6  A    between atoms: C_21  and  C_26
REMARK                            x       y       z     vdW  Elec       q    Type
REMARK                         _______ _______ _______ _____ _____    ______ ____
ROOT
ATOM      1  O   UNL     1     105.630 124.839 145.856  0.00  0.00    +0.000 OA
ATOM      2  O   UNL     1     106.992 126.831 145.313  0.00  0.00    +0.000 OA
ATOM      3  O   UNL     1     105.330 124.246 143.021  0.00  0.00    +0.000 OA
ATOM      4  C   UNL     1     106.410 125.902 144.072  0.00  0.00    +0.000 A 
ATOM      5  C   UNL     1     106.241 125.694 144.888  0.00  0.00    +0.000 A 
ATOM      6  C   UNL     1     105.927 125.312 146.462  0.00  0.00    +0.000 C 
ATOM      7  C   UNL     1     106.382 125.976 146.282  0.00  0.00    +0.000 C 
ATOM      8  C   UNL     1     105.786 125.029 145.069  0.00  0.00    +0.000 A 
ATOM      9  C   UNL     1     106.538 126.167 145.494  0.00  0.00    +0.000 C 
ATOM     10  C   UNL     1     106.103 125.414 143.436  0.00  0.00    +0.000 A 
ATOM     11  C   UNL     1     105.470 124.528 144.447  0.00  0.00    +0.000 A 
ATOM     12  C   UNL     1     105.629 124.721 143.625  0.00  0.00    +0.000 A 
ENDROOT
BRANCH   6  14
ATOM     13  O   UNL     1     105.302 124.549 149.612  0.00  0.00    +0.000 OA
ATOM     14  C   UNL     1     105.771 125.121 147.249  0.00  0.00    +0.000 A 
ATOM     15  C   UNL     1     105.032 125.289 147.576  0.00  0.00    +0.000 A 
ATOM     16  C   UNL     1     106.354 124.762 147.711  0.00  0.00    +0.000 A 
ATOM     17  C   UNL     1     106.197 124.572 148.498  0.00  0.00    +0.000 A 
ATOM     18  C   UNL     1     104.876 125.098 148.363  0.00  0.00    +0.000 A 
ATOM     19  C   UNL     1     105.459 124.740 148.824  0.00  0.00    +0.000 A 
BRANCH  17  20
ATOM     20  O   UNL     1     106.780 124.213 148.960  0.00  0.00    +0.000 OA
ATOM     21  C   UNL     1     107.552 124.503 148.946  0.00  0.00    +0.000 C 
ENDBRANCH  17  20
BRANCH  18  22
ATOM     22  O   UNL     1     104.137 125.266 148.689  0.00  0.00    +0.000 OA
ATOM     23  C   UNL     1     103.450 125.075 148.274  0.00  0.00    +0.000 C 
ENDBRANCH  18  22
ENDBRANCH   6  14
BRANCH   4  24
ATOM     24  O   UNL     1     106.865 126.569 143.900  0.00  0.00    +0.000 OA
BRANCH  24  33
ATOM     25  O   UNL     1     105.907 127.423 143.274  0.00  0.00    +0.000 OA
ATOM     26  O   UNL     1     107.493 127.846 141.422  0.00  0.00    +0.000 OA
ATOM     27  O   UNL     1     106.005 128.560 141.413  0.00  0.00    +0.000 OA
ATOM     28  O   UNL     1     107.923 126.850 142.665  0.00  0.00    +0.000 OA
ATOM     29  C   UNL     1     106.964 127.705 142.039  0.00  0.00    +0.000 C 
ATOM     30  C   UNL     1     106.221 128.062 142.035  0.00  0.00    +0.000 C 
ATOM     31  C   UNL     1     107.180 127.207 142.661  0.00  0.00    +0.000 C 
ATOM     32  C   UNL     1     105.692 127.921 142.652  0.00  0.00    +0.000 C 
ATOM     33  C   UNL     1     106.651 127.066 143.278  0.00  0.00    +0.000 C 
BRANCH  32  35
ATOM     34  O   UNL     1     104.669 128.657 143.325  0.00  0.00    +0.000 OA
ATOM     35  C   UNL     1     104.948 128.278 142.648  0.00  0.00    +0.000 C 
ENDBRANCH  32  35
ENDBRANCH  24  33
ENDBRANCH   4  24
TORSDOF 6
ENDMDL
MODEL 7
REMARK VINA RESULT:      -8.4      1.460      5.749
REMARK  Name = 42608014
REMARK  6 active torsions:
REMARK  status: ('A' for Active; 'I' for Inactive)
REMARK    1  A    between atoms: O_2  and  C_17
REMARK    2  A    between atoms: O_2  and  C_19
REMARK    3  A    between atoms: O_10  and  C_31
REMARK    4  A    between atoms: O_11  and  C_32
REMARK    5  A    between atoms: C_16  and  C_18
REMARK    6  A    between atoms: C_21  and  C_26
REMARK                            x       y       z     vdW  Elec       q    Type
REMARK                         _______ _______ _______ _____ _____    ______ ____
ROOT
ATOM      1  O   UNL     1     111.747 130.025 137.059  0.00  0.00    +0.000 OA
ATOM      2  O   UNL     1     110.008 128.309 136.669  0.00  0.00    +0.000 OA
ATOM      3  O   UNL     1     113.801 128.189 136.117  0.00  0.00    +0.000 OA
ATOM      4  C   UNL     1     111.585 127.938 136.323  0.00  0.00    +0.000 A 
ATOM      5  C   UNL     1     111.377 128.713 136.632  0.00  0.00    +0.000 A 
ATOM      6  C   UNL     1     110.957 130.193 137.226  0.00  0.00    +0.000 C 
ATOM      7  C   UNL     1     110.377 129.621 137.096  0.00  0.00    +0.000 C 
ATOM      8  C   UNL     1     111.958 129.285 136.762  0.00  0.00    +0.000 A 
ATOM      9  C   UNL     1     110.588 128.881 136.799  0.00  0.00    +0.000 C 
ATOM     10  C   UNL     1     112.406 127.757 136.147  0.00  0.00    +0.000 A 
ATOM     11  C   UNL     1     112.784 129.123 136.592  0.00  0.00    +0.000 A 
ATOM     12  C   UNL     1     113.010 128.354 136.283  0.00  0.00    +0.000 A 
ENDROOT
BRANCH   6  14
ATOM     13  O   UNL     1     110.113 133.155 138.415  0.00  0.00    +0.000 OA
ATOM     14  C   UNL     1     110.746 130.933 137.524  0.00  0.00    +0.000 A 
ATOM     15  C   UNL     1     110.600 131.560 137.007  0.00  0.00    +0.000 A 
ATOM     16  C   UNL     1     110.681 131.048 138.338  0.00  0.00    +0.000 A 
ATOM     17  C   UNL     1     110.470 131.788 138.635  0.00  0.00    +0.000 A 
ATOM     18  C   UNL     1     110.390 132.300 137.304  0.00  0.00    +0.000 A 
ATOM     19  C   UNL     1     110.324 132.414 138.118  0.00  0.00    +0.000 A 
BRANCH  17  20
ATOM     20  O   UNL     1     110.405 131.903 139.450  0.00  0.00    +0.000 OA
ATOM     21  C   UNL     1     110.150 131.285 139.934  0.00  0.00    +0.000 C 
ENDBRANCH  17  20
BRANCH  18  22
ATOM     22  O   UNL     1     110.244 132.926 136.787  0.00  0.00    +0.000 OA
ATOM     23  C   UNL     1     109.798 132.801 136.103  0.00  0.00    +0.000 C 
ENDBRANCH  18  22
ENDBRANCH   6  14
BRANCH   4  24
ATOM     24  O   UNL     1     110.999 127.372 136.196  0.00  0.00    +0.000 OA
BRANCH  24  33
ATOM     25  O   UNL     1     111.286 126.450 137.249  0.00  0.00    +0.000 OA
ATOM     26  O   UNL     1     111.089 124.567 135.656  0.00  0.00    +0.000 OA
ATOM     27  O   UNL     1     111.442 124.273 137.240  0.00  0.00    +0.000 OA
ATOM     28  O   UNL     1     110.867 126.116 135.133  0.00  0.00    +0.000 OA
ATOM     29  C   UNL     1     111.155 125.195 136.187  0.00  0.00    +0.000 C 
ATOM     30  C   UNL     1     111.331 125.048 136.979  0.00  0.00    +0.000 C 
ATOM     31  C   UNL     1     111.044 125.969 135.925  0.00  0.00    +0.000 C 
ATOM     32  C   UNL     1     111.397 125.676 137.510  0.00  0.00    +0.000 C 
ATOM     33  C   UNL     1     111.109 126.597 136.456  0.00  0.00    +0.000 C 
BRANCH  32  35
ATOM     34  O   UNL     1     111.162 125.925 138.897  0.00  0.00    +0.000 OA
ATOM     35  C   UNL     1     111.574 125.529 138.303  0.00  0.00    +0.000 C 
ENDBRANCH  32  35
ENDBRANCH  24  33
ENDBRANCH   4  24
TORSDOF 6
ENDMDL
MODEL 8
REMARK VINA RESULT:      -8.3      3.257      4.395
REMARK  Name = 42608014
REMARK  6 active torsions:
REMARK  status: ('A' for Active; 'I' for Inactive)
REMARK    1  A    between atoms: O_2  and  C_17
REMARK    2  A    between atoms: O_2  and  C_19
REMARK    3  A    between atoms: O_10  and  C_31
REMARK    4  A    between atoms: O_11  and  C_32
REMARK    5  A    between atoms: C_16  and  C_18
REMARK    6  A    between atoms: C_21  and  C_26
REMARK                            x       y       z     vdW  Elec       q    Type
REMARK                         _______ _______ _______ _____ _____    ______ ____
ROOT
ATOM      1  O   UNL     1     112.723 126.256 138.823  0.00  0.00    +0.000 OA
ATOM      2  O   UNL     1     110.924 127.129 140.281  0.00  0.00    +0.000 OA
ATOM      3  O   UNL     1     114.725 127.052 140.780  0.00  0.00    +0.000 OA
ATOM      4  C   UNL     1     112.495 127.249 140.794  0.00  0.00    +0.000 A 
ATOM      5  C   UNL     1     112.311 126.890 140.035  0.00  0.00    +0.000 A 
ATOM      6  C   UNL     1     111.935 126.205 138.582  0.00  0.00    +0.000 C 
ATOM      7  C   UNL     1     111.335 126.495 139.068  0.00  0.00    +0.000 C 
ATOM      8  C   UNL     1     112.911 126.599 139.549  0.00  0.00    +0.000 A 
ATOM      9  C   UNL     1     111.524 126.838 139.795  0.00  0.00    +0.000 C 
ATOM     10  C   UNL     1     113.312 127.305 141.050  0.00  0.00    +0.000 A 
ATOM     11  C   UNL     1     113.735 126.647 139.787  0.00  0.00    +0.000 A 
ATOM     12  C   UNL     1     113.937 127.002 140.543  0.00  0.00    +0.000 A 
ENDROOT
BRANCH   6  14
ATOM     13  O   UNL     1     111.182 124.834 135.676  0.00  0.00    +0.000 OA
ATOM     14  C   UNL     1     111.747 125.862 137.856  0.00  0.00    +0.000 A 
ATOM     15  C   UNL     1     111.731 125.041 137.778  0.00  0.00    +0.000 A 
ATOM     16  C   UNL     1     111.575 126.341 137.206  0.00  0.00    +0.000 A 
ATOM     17  C   UNL     1     111.386 125.998 136.480  0.00  0.00    +0.000 A 
ATOM     18  C   UNL     1     111.543 124.698 137.052  0.00  0.00    +0.000 A 
ATOM     19  C   UNL     1     111.371 125.177 136.402  0.00  0.00    +0.000 A 
BRANCH  17  20
ATOM     20  O   UNL     1     111.214 126.477 135.830  0.00  0.00    +0.000 OA
ATOM     21  C   UNL     1     111.606 127.196 135.732  0.00  0.00    +0.000 C 
ENDBRANCH  17  20
BRANCH  18  22
ATOM     22  O   UNL     1     111.527 123.877 136.974  0.00  0.00    +0.000 OA
ATOM     23  C   UNL     1     112.177 123.428 137.214  0.00  0.00    +0.000 C 
ENDBRANCH  18  22
ENDBRANCH   6  14
BRANCH   4  24
ATOM     24  O   UNL     1     111.889 127.537 141.274  0.00  0.00    +0.000 OA
BRANCH  24  33
ATOM     25  O   UNL     1     112.192 128.932 141.222  0.00  0.00    +0.000 OA
ATOM     26  O   UNL     1     111.793 129.110 143.658  0.00  0.00    +0.000 OA
ATOM     27  O   UNL     1     112.229 130.446 142.794  0.00  0.00    +0.000 OA
ATOM     28  O   UNL     1     111.622 127.655 142.898  0.00  0.00    +0.000 OA
ATOM     29  C   UNL     1     111.926 129.051 142.846  0.00  0.00    +0.000 C 
ATOM     30  C   UNL     1     112.144 129.719 142.415  0.00  0.00    +0.000 C 
ATOM     31  C   UNL     1     111.841 128.323 142.467  0.00  0.00    +0.000 C 
ATOM     32  C   UNL     1     112.277 129.659 141.603  0.00  0.00    +0.000 C 
ATOM     33  C   UNL     1     111.974 128.264 141.655  0.00  0.00    +0.000 C 
BRANCH  32  35
ATOM     34  O   UNL     1     112.118 130.498 140.457  0.00  0.00    +0.000 OA
ATOM     35  C   UNL     1     112.496 130.328 141.170  0.00  0.00    +0.000 C 
ENDBRANCH  32  35
ENDBRANCH  24  33
ENDBRANCH   4  24
TORSDOF 6
ENDMDL
MODEL 9
REMARK VINA RESULT:      -8.3      6.599      9.015
REMARK  Name = 42608014
REMARK  6 active torsions:
REMARK  status: ('A' for Active; 'I' for Inactive)
REMARK    1  A    between atoms: O_2  and  C_17
REMARK    2  A    between atoms: O_2  and  C_19
REMARK    3  A    between atoms: O_10  and  C_31
REMARK    4  A    between atoms: O_11  and  C_32
REMARK    5  A    between atoms: C_16  and  C_18
REMARK    6  A    between atoms: C_21  and  C_26
REMARK                            x       y       z     vdW  Elec       q    Type
REMARK                         _______ _______ _______ _____ _____    ______ ____
ROOT
ATOM      1  O   UNL     1     111.474 130.964 144.932  0.00  0.00    +0.000 OA
ATOM      2  O   UNL     1     112.371 132.010 142.877  0.00  0.00    +0.000 OA
ATOM      3  O   UNL     1     111.361 128.381 143.593  0.00  0.00    +0.000 OA
ATOM      4  C   UNL     1     112.030 130.390 142.862  0.00  0.00    +0.000 A 
ATOM      5  C   UNL     1     111.897 130.856 143.572  0.00  0.00    +0.000 A 
ATOM      6  C   UNL     1     111.649 131.770 144.923  0.00  0.00    +0.000 C 
ATOM      7  C   UNL     1     111.948 132.119 144.238  0.00  0.00    +0.000 C 
ATOM      8  C   UNL     1     111.597 130.507 144.257  0.00  0.00    +0.000 A 
ATOM      9  C   UNL     1     112.072 131.661 143.562  0.00  0.00    +0.000 C 
ATOM     10  C   UNL     1     111.849 129.550 142.866  0.00  0.00    +0.000 A 
ATOM     11  C   UNL     1     111.410 129.668 144.280  0.00  0.00    +0.000 A 
ATOM     12  C   UNL     1     111.537 129.187 143.580  0.00  0.00    +0.000 A 
ENDROOT
BRANCH   6  14
ATOM     13  O   UNL     1     111.154 133.599 147.625  0.00  0.00    +0.000 OA
ATOM     14  C   UNL     1     111.525 132.227 145.598  0.00  0.00    +0.000 A 
ATOM     15  C   UNL     1     112.107 132.269 146.181  0.00  0.00    +0.000 A 
ATOM     16  C   UNL     1     110.818 132.643 145.691  0.00  0.00    +0.000 A 
ATOM     17  C   UNL     1     110.695 133.100 146.367  0.00  0.00    +0.000 A 
ATOM     18  C   UNL     1     111.984 132.726 146.856  0.00  0.00    +0.000 A 
ATOM     19  C   UNL     1     111.277 133.142 146.949  0.00  0.00    +0.000 A 
BRANCH  17  20
ATOM     20  O   UNL     1     109.988 133.517 146.460  0.00  0.00    +0.000 OA
ATOM     21  C   UNL     1     109.270 133.157 146.270  0.00  0.00    +0.000 C 
ENDBRANCH  17  20
BRANCH  18  22
ATOM     22  O   UNL     1     112.566 132.768 147.439  0.00  0.00    +0.000 OA
ATOM     23  C   UNL     1     113.113 132.155 147.520  0.00  0.00    +0.000 C 
ENDBRANCH  18  22
ENDBRANCH   6  14
BRANCH   4  24
ATOM     24  O   UNL     1     112.329 130.747 142.182  0.00  0.00    +0.000 OA
BRANCH  24  33
ATOM     25  O   UNL     1     111.186 130.753 141.324  0.00  0.00    +0.000 OA
ATOM     26  O   UNL     1     112.552 129.799 139.495  0.00  0.00    +0.000 OA
ATOM     27  O   UNL     1     110.953 130.124 139.247  0.00  0.00    +0.000 OA
ATOM     28  O   UNL     1     113.240 130.110 140.962  0.00  0.00    +0.000 OA
ATOM     29  C   UNL     1     112.097 130.117 140.105  0.00  0.00    +0.000 C 
ATOM     30  C   UNL     1     111.298 130.279 139.981  0.00  0.00    +0.000 C 
ATOM     31  C   UNL     1     112.441 130.273 140.838  0.00  0.00    +0.000 C 
ATOM     32  C   UNL     1     110.843 130.597 140.591  0.00  0.00    +0.000 C 
ATOM     33  C   UNL     1     111.986 130.591 141.448  0.00  0.00    +0.000 C 
BRANCH  32  35
ATOM     34  O   UNL     1     109.706 131.440 140.791  0.00  0.00    +0.000 OA
ATOM     35  C   UNL     1     110.043 130.760 140.467  0.00  0.00    +0.000 C 
ENDBRANCH  32  35
ENDBRANCH  24  33
ENDBRANCH   4  24
TORSDOF 6
ENDMDL
