MODEL 1
REMARK VINA RESULT:      -7.2      0.000      0.000
REMARK  Name = 10643
REMARK  6 active torsions:
REMARK  status: ('A' for Active; 'I' for Inactive)
REMARK    1  A    between atoms: O_2  and  C_11
REMARK    2  A    between atoms: O_3  and  C_13
REMARK    3  A    between atoms: O_4  and  C_15
REMARK    4  A    between atoms: O_5  and  C_16
REMARK    5  A    between atoms: O_7  and  C_22
REMARK    6  A    between atoms: C_10  and  C_17
REMARK                            x       y       z     vdW  Elec       q    Type
REMARK                         _______ _______ _______ _____ _____    ______ ____
ROOT
ATOM      1  O   UNL     1     111.935 126.851 136.218  0.00  0.00    +0.000 OA
ATOM      2  O   UNL     1     110.601 124.948 135.365  0.00  0.00    +0.000 OA
ATOM      3  C   UNL     1     111.708 125.444 136.121  0.00  0.00    +0.000 A 
ATOM      4  C   UNL     1     112.153 126.078 136.405  0.00  0.00    +0.000 A 
ATOM      5  C   UNL     1     111.272 126.990 135.746  0.00  0.00    +0.000 A 
ATOM      6  C   UNL     1     112.845 125.946 136.897  0.00  0.00    +0.000 A 
ATOM      7  C   UNL     1     111.046 125.582 135.649  0.00  0.00    +0.000 A 
ATOM      8  C   UNL     1     110.828 126.356 135.462  0.00  0.00    +0.000 A 
ATOM      9  C   UNL     1     111.925 124.634 136.309  0.00  0.00    +0.000 A 
ATOM     10  C   UNL     1     113.077 125.143 137.095  0.00  0.00    +0.000 A 
ATOM     11  C   UNL     1     112.614 124.482 136.799  0.00  0.00    +0.000 A 
ENDROOT
BRANCH   5  12
ATOM     12  C   UNL     1     111.054 127.763 135.559  0.00  0.00    +0.000 A 
ATOM     13  C   UNL     1     110.498 128.159 136.022  0.00  0.00    +0.000 A 
ATOM     14  C   UNL     1     111.392 128.141 134.908  0.00  0.00    +0.000 A 
ATOM     15  C   UNL     1     110.280 128.932 135.835  0.00  0.00    +0.000 A 
ATOM     16  C   UNL     1     111.174 128.914 134.720  0.00  0.00    +0.000 A 
ATOM     17  C   UNL     1     110.618 129.310 135.184  0.00  0.00    +0.000 A 
BRANCH  17  18
ATOM     18  O   UNL     1     110.400 130.084 134.996  0.00  0.00    +0.000 OA
ATOM     19  C   UNL     1     109.680 130.230 134.620  0.00  0.00    +0.000 C 
ENDBRANCH  17  18
ENDBRANCH   5  12
BRANCH   6  20
ATOM     20  O   UNL     1     113.283 126.586 137.177  0.00  0.00    +0.000 OA
ATOM     21  C   UNL     1     113.215 126.819 137.965  0.00  0.00    +0.000 C 
ENDBRANCH   6  20
BRANCH   8  22
ATOM     22  O   UNL     1     110.165 126.495 134.990  0.00  0.00    +0.000 OA
ATOM     23  C   UNL     1     109.778 125.863 134.627  0.00  0.00    +0.000 C 
ENDBRANCH   8  22
BRANCH  10  24
ATOM     24  O   UNL     1     113.740 125.007 137.567  0.00  0.00    +0.000 OA
ATOM     25  C   UNL     1     114.466 124.832 137.217  0.00  0.00    +0.000 C 
ENDBRANCH  10  24
BRANCH  11  26
ATOM     26  O   UNL     1     112.829 123.707 136.985  0.00  0.00    +0.000 OA
ATOM     27  C   UNL     1     112.248 123.144 137.145  0.00  0.00    +0.000 C 
ENDBRANCH  11  26
TORSDOF 6
ENDMDL
MODEL 2
REMARK VINA RESULT:      -7.1      1.909      3.778
REMARK  Name = 10643
REMARK  6 active torsions:
REMARK  status: ('A' for Active; 'I' for Inactive)
REMARK    1  A    between atoms: O_2  and  C_11
REMARK    2  A    between atoms: O_3  and  C_13
REMARK    3  A    between atoms: O_4  and  C_15
REMARK    4  A    between atoms: O_5  and  C_16
REMARK    5  A    between atoms: O_7  and  C_22
REMARK    6  A    between atoms: C_10  and  C_17
REMARK                            x       y       z     vdW  Elec       q    Type
REMARK                         _______ _______ _______ _____ _____    ______ ____
ROOT
ATOM      1  O   UNL     1     111.920 126.396 138.066  0.00  0.00    +0.000 OA
ATOM      2  O   UNL     1     114.287 125.675 138.106  0.00  0.00    +0.000 OA
ATOM      3  C   UNL     1     113.171 126.295 138.748  0.00  0.00    +0.000 A 
ATOM      4  C   UNL     1     112.382 126.536 138.735  0.00  0.00    +0.000 A 
ATOM      5  C   UNL     1     112.246 126.017 137.410  0.00  0.00    +0.000 A 
ATOM      6  C   UNL     1     112.030 126.932 139.411  0.00  0.00    +0.000 A 
ATOM      7  C   UNL     1     113.498 125.916 138.093  0.00  0.00    +0.000 A 
ATOM      8  C   UNL     1     113.035 125.776 137.423  0.00  0.00    +0.000 A 
ATOM      9  C   UNL     1     113.662 126.435 139.439  0.00  0.00    +0.000 A 
ATOM     10  C   UNL     1     112.506 127.080 140.111  0.00  0.00    +0.000 A 
ATOM     11  C   UNL     1     113.328 126.830 140.125  0.00  0.00    +0.000 A 
ENDROOT
BRANCH   5  12
ATOM     12  C   UNL     1     111.784 125.877 136.742  0.00  0.00    +0.000 A 
ATOM     13  C   UNL     1     111.744 126.443 136.142  0.00  0.00    +0.000 A 
ATOM     14  C   UNL     1     111.361 125.172 136.672  0.00  0.00    +0.000 A 
ATOM     15  C   UNL     1     111.282 126.303 135.473  0.00  0.00    +0.000 A 
ATOM     16  C   UNL     1     110.899 125.032 136.003  0.00  0.00    +0.000 A 
ATOM     17  C   UNL     1     110.860 125.598 135.404  0.00  0.00    +0.000 A 
BRANCH  17  18
ATOM     18  O   UNL     1     110.397 125.458 134.734  0.00  0.00    +0.000 OA
ATOM     19  C   UNL     1     109.705 125.891 134.613  0.00  0.00    +0.000 C 
ENDBRANCH  17  18
ENDBRANCH   5  12
BRANCH   6  20
ATOM     20  O   UNL     1     111.240 127.169 139.389  0.00  0.00    +0.000 OA
ATOM     21  C   UNL     1     111.052 127.966 139.290  0.00  0.00    +0.000 C 
ENDBRANCH   6  20
BRANCH   8  22
ATOM     22  O   UNL     1     113.362 125.396 136.768  0.00  0.00    +0.000 OA
ATOM     23  C   UNL     1     114.145 125.138 136.789  0.00  0.00    +0.000 C 
ENDBRANCH   8  22
BRANCH  10  24
ATOM     24  O   UNL     1     112.177 127.460 140.765  0.00  0.00    +0.000 OA
ATOM     25  C   UNL     1     111.874 127.016 141.390  0.00  0.00    +0.000 C 
ENDBRANCH  10  24
BRANCH  11  26
ATOM     26  O   UNL     1     113.793 126.967 140.792  0.00  0.00    +0.000 OA
ATOM     27  C   UNL     1     114.599 127.125 140.709  0.00  0.00    +0.000 C 
ENDBRANCH  11  26
TORSDOF 6
ENDMDL
MODEL 3
REMARK VINA RESULT:      -7.1      2.378      3.063
REMARK  Name = 10643
REMARK  6 active torsions:
REMARK  status: ('A' for Active; 'I' for Inactive)
REMARK    1  A    between atoms: O_2  and  C_11
REMARK    2  A    between atoms: O_3  and  C_13
REMARK    3  A    between atoms: O_4  and  C_15
REMARK    4  A    between atoms: O_5  and  C_16
REMARK    5  A    between atoms: O_7  and  C_22
REMARK    6  A    between atoms: C_10  and  C_17
REMARK                            x       y       z     vdW  Elec       q    Type
REMARK                         _______ _______ _______ _____ _____    ______ ____
ROOT
ATOM      1  O   UNL     1     113.440 127.786 136.176  0.00  0.00    +0.000 OA
ATOM      2  O   UNL     1     111.187 128.123 135.210  0.00  0.00    +0.000 OA
ATOM      3  C   UNL     1     112.122 127.302 135.912  0.00  0.00    +0.000 A 
ATOM      4  C   UNL     1     112.873 127.190 136.234  0.00  0.00    +0.000 A 
ATOM      5  C   UNL     1     113.257 128.495 135.796  0.00  0.00    +0.000 A 
ATOM      6  C   UNL     1     113.077 126.456 136.632  0.00  0.00    +0.000 A 
ATOM      7  C   UNL     1     111.938 128.011 135.532  0.00  0.00    +0.000 A 
ATOM      8  C   UNL     1     112.506 128.607 135.474  0.00  0.00    +0.000 A 
ATOM      9  C   UNL     1     111.523 126.688 135.966  0.00  0.00    +0.000 A 
ATOM     10  C   UNL     1     112.491 125.831 136.696  0.00  0.00    +0.000 A 
ATOM     11  C   UNL     1     111.708 125.948 136.361  0.00  0.00    +0.000 A 
ENDROOT
BRANCH   5  12
ATOM     12  C   UNL     1     113.823 129.091 135.738  0.00  0.00    +0.000 A 
ATOM     13  C   UNL     1     113.892 129.655 136.336  0.00  0.00    +0.000 A 
ATOM     14  C   UNL     1     114.322 129.123 135.082  0.00  0.00    +0.000 A 
ATOM     15  C   UNL     1     114.459 130.251 136.278  0.00  0.00    +0.000 A 
ATOM     16  C   UNL     1     114.890 129.720 135.024  0.00  0.00    +0.000 A 
ATOM     17  C   UNL     1     114.958 130.283 135.622  0.00  0.00    +0.000 A 
BRANCH  17  18
ATOM     18  O   UNL     1     115.525 130.880 135.563  0.00  0.00    +0.000 OA
ATOM     19  C   UNL     1     115.591 131.321 134.869  0.00  0.00    +0.000 C 
ENDBRANCH  17  18
ENDBRANCH   5  12
BRANCH   6  20
ATOM     20  O   UNL     1     113.831 126.352 136.951  0.00  0.00    +0.000 OA
ATOM     21  C   UNL     1     114.371 125.853 136.578  0.00  0.00    +0.000 C 
ENDBRANCH   6  20
BRANCH   8  22
ATOM     22  O   UNL     1     112.321 129.316 135.094  0.00  0.00    +0.000 OA
ATOM     23  C   UNL     1     111.547 129.465 134.852  0.00  0.00    +0.000 C 
ENDBRANCH   8  22
BRANCH  10  24
ATOM     24  O   UNL     1     112.677 125.123 137.076  0.00  0.00    +0.000 OA
ATOM     25  C   UNL     1     112.438 124.999 137.856  0.00  0.00    +0.000 C 
ENDBRANCH  10  24
BRANCH  11  26
ATOM     26  O   UNL     1     111.138 125.354 136.417  0.00  0.00    +0.000 OA
ATOM     27  C   UNL     1     110.593 125.245 135.807  0.00  0.00    +0.000 C 
ENDBRANCH  11  26
TORSDOF 6
ENDMDL
MODEL 4
REMARK VINA RESULT:      -7.1     13.261     14.103
REMARK  Name = 10643
REMARK  6 active torsions:
REMARK  status: ('A' for Active; 'I' for Inactive)
REMARK    1  A    between atoms: O_2  and  C_11
REMARK    2  A    between atoms: O_3  and  C_13
REMARK    3  A    between atoms: O_4  and  C_15
REMARK    4  A    between atoms: O_5  and  C_16
REMARK    5  A    between atoms: O_7  and  C_22
REMARK    6  A    between atoms: C_10  and  C_17
REMARK                            x       y       z     vdW  Elec       q    Type
REMARK                         _______ _______ _______ _____ _____    ______ ____
ROOT
ATOM      1  O   UNL     1     103.635 124.311 147.288  0.00  0.00    +0.000 OA
ATOM      2  O   UNL     1     103.664 123.291 145.033  0.00  0.00    +0.000 OA
ATOM      3  C   UNL     1     102.971 123.597 146.244  0.00  0.00    +0.000 A 
ATOM      4  C   UNL     1     102.961 123.937 146.996  0.00  0.00    +0.000 A 
ATOM      5  C   UNL     1     104.320 124.346 146.829  0.00  0.00    +0.000 A 
ATOM      6  C   UNL     1     102.254 123.907 147.485  0.00  0.00    +0.000 A 
ATOM      7  C   UNL     1     103.654 123.631 145.784  0.00  0.00    +0.000 A 
ATOM      8  C   UNL     1     104.330 124.006 146.077  0.00  0.00    +0.000 A 
ATOM      9  C   UNL     1     102.274 123.204 145.929  0.00  0.00    +0.000 A 
ATOM     10  C   UNL     1     101.549 123.519 147.186  0.00  0.00    +0.000 A 
ATOM     11  C   UNL     1     101.558 123.165 146.403  0.00  0.00    +0.000 A 
ENDROOT
BRANCH   5  12
ATOM     12  C   UNL     1     104.994 124.719 147.120  0.00  0.00    +0.000 A 
ATOM     13  C   UNL     1     105.141 125.510 146.936  0.00  0.00    +0.000 A 
ATOM     14  C   UNL     1     105.523 124.303 147.597  0.00  0.00    +0.000 A 
ATOM     15  C   UNL     1     105.815 125.884 147.228  0.00  0.00    +0.000 A 
ATOM     16  C   UNL     1     106.199 124.677 147.890  0.00  0.00    +0.000 A 
ATOM     17  C   UNL     1     106.344 125.468 147.704  0.00  0.00    +0.000 A 
BRANCH  17  18
ATOM     18  O   UNL     1     107.020 125.842 147.997  0.00  0.00    +0.000 OA
ATOM     19  C   UNL     1     107.756 125.689 147.657  0.00  0.00    +0.000 C 
ENDBRANCH  17  18
ENDBRANCH   5  12
BRANCH   6  20
ATOM     20  O   UNL     1     102.254 124.250 148.235  0.00  0.00    +0.000 OA
ATOM     21  C   UNL     1     101.869 124.969 148.359  0.00  0.00    +0.000 C 
ENDBRANCH   6  20
BRANCH   8  22
ATOM     22  O   UNL     1     105.013 124.040 145.617  0.00  0.00    +0.000 OA
ATOM     23  C   UNL     1     104.966 123.944 144.799  0.00  0.00    +0.000 C 
ENDBRANCH   8  22
BRANCH  10  24
ATOM     24  O   UNL     1     100.866 123.486 147.648  0.00  0.00    +0.000 OA
ATOM     25  C   UNL     1     100.710 122.819 148.107  0.00  0.00    +0.000 C 
ENDBRANCH  10  24
BRANCH  11  26
ATOM     26  O   UNL     1     100.885 122.790 146.108  0.00  0.00    +0.000 OA
ATOM     27  C   UNL     1     100.754 122.757 145.294  0.00  0.00    +0.000 C 
ENDBRANCH  11  26
TORSDOF 6
ENDMDL
MODEL 5
REMARK VINA RESULT:      -7.0      3.115      4.682
REMARK  Name = 10643
REMARK  6 active torsions:
REMARK  status: ('A' for Active; 'I' for Inactive)
REMARK    1  A    between atoms: O_2  and  C_11
REMARK    2  A    between atoms: O_3  and  C_13
REMARK    3  A    between atoms: O_4  and  C_15
REMARK    4  A    between atoms: O_5  and  C_16
REMARK    5  A    between atoms: O_7  and  C_22
REMARK    6  A    between atoms: C_10  and  C_17
REMARK                            x       y       z     vdW  Elec       q    Type
REMARK                         _______ _______ _______ _____ _____    ______ ____
ROOT
ATOM      1  O   UNL     1     113.473 126.460 138.956  0.00  0.00    +0.000 OA
ATOM      2  O   UNL     1     111.114 125.710 138.926  0.00  0.00    +0.000 OA
ATOM      3  C   UNL     1     112.174 126.439 139.549  0.00  0.00    +0.000 A 
ATOM      4  C   UNL     1     112.960 126.689 139.559  0.00  0.00    +0.000 A 
ATOM      5  C   UNL     1     113.201 125.981 138.341  0.00  0.00    +0.000 A 
ATOM      6  C   UNL     1     113.256 127.188 140.193  0.00  0.00    +0.000 A 
ATOM      7  C   UNL     1     111.900 125.960 138.936  0.00  0.00    +0.000 A 
ATOM      8  C   UNL     1     112.414 125.731 138.331  0.00  0.00    +0.000 A 
ATOM      9  C   UNL     1     111.629 126.671 140.173  0.00  0.00    +0.000 A 
ATOM     10  C   UNL     1     112.726 127.430 140.825  0.00  0.00    +0.000 A 
ATOM     11  C   UNL     1     111.908 127.169 140.814  0.00  0.00    +0.000 A 
ENDROOT
BRANCH   5  12
ATOM     12  C   UNL     1     113.713 125.752 137.738  0.00  0.00    +0.000 A 
ATOM     13  C   UNL     1     113.778 126.209 137.054  0.00  0.00    +0.000 A 
ATOM     14  C   UNL     1     114.163 125.064 137.817  0.00  0.00    +0.000 A 
ATOM     15  C   UNL     1     114.291 125.980 136.451  0.00  0.00    +0.000 A 
ATOM     16  C   UNL     1     114.676 124.835 137.213  0.00  0.00    +0.000 A 
ATOM     17  C   UNL     1     114.740 125.293 136.530  0.00  0.00    +0.000 A 
BRANCH  17  18
ATOM     18  O   UNL     1     115.254 125.063 135.926  0.00  0.00    +0.000 OA
ATOM     19  C   UNL     1     115.563 125.628 135.410  0.00  0.00    +0.000 C 
ENDBRANCH  17  18
ENDBRANCH   5  12
BRANCH   6  20
ATOM     20  O   UNL     1     114.044 127.433 140.195  0.00  0.00    +0.000 OA
ATOM     21  C   UNL     1     114.572 127.117 140.744  0.00  0.00    +0.000 C 
ENDBRANCH   6  20
BRANCH   8  22
ATOM     22  O   UNL     1     112.141 125.252 137.718  0.00  0.00    +0.000 OA
ATOM     23  C   UNL     1     111.363 124.978 137.723  0.00  0.00    +0.000 C 
ENDBRANCH   8  22
BRANCH  10  24
ATOM     24  O   UNL     1     113.002 127.909 141.437  0.00  0.00    +0.000 OA
ATOM     25  C   UNL     1     112.860 128.721 141.421  0.00  0.00    +0.000 C 
ENDBRANCH  10  24
BRANCH  11  26
ATOM     26  O   UNL     1     111.391 127.397 141.417  0.00  0.00    +0.000 OA
ATOM     27  C   UNL     1     110.711 126.955 141.566  0.00  0.00    +0.000 C 
ENDBRANCH  11  26
TORSDOF 6
ENDMDL
MODEL 6
REMARK VINA RESULT:      -6.9     10.693     11.868
REMARK  Name = 10643
REMARK  6 active torsions:
REMARK  status: ('A' for Active; 'I' for Inactive)
REMARK    1  A    between atoms: O_2  and  C_11
REMARK    2  A    between atoms: O_3  and  C_13
REMARK    3  A    between atoms: O_4  and  C_15
REMARK    4  A    between atoms: O_5  and  C_16
REMARK    5  A    between atoms: O_7  and  C_22
REMARK    6  A    between atoms: C_10  and  C_17
REMARK                            x       y       z     vdW  Elec       q    Type
REMARK                         _______ _______ _______ _____ _____    ______ ____
ROOT
ATOM      1  O   UNL     1     106.428 125.299 145.844  0.00  0.00    +0.000 OA
ATOM      2  O   UNL     1     106.662 127.715 145.359  0.00  0.00    +0.000 OA
ATOM      3  C   UNL     1     106.319 126.394 144.933  0.00  0.00    +0.000 A 
ATOM      4  C   UNL     1     106.241 125.589 145.095  0.00  0.00    +0.000 A 
ATOM      5  C   UNL     1     106.693 125.814 146.432  0.00  0.00    +0.000 A 
ATOM      6  C   UNL     1     105.965 125.043 144.491  0.00  0.00    +0.000 A 
ATOM      7  C   UNL     1     106.584 126.910 145.520  0.00  0.00    +0.000 A 
ATOM      8  C   UNL     1     106.771 126.619 146.270  0.00  0.00    +0.000 A 
ATOM      9  C   UNL     1     106.127 126.709 144.157  0.00  0.00    +0.000 A 
ATOM     10  C   UNL     1     105.769 125.339 143.709  0.00  0.00    +0.000 A 
ATOM     11  C   UNL     1     105.850 126.178 143.541  0.00  0.00    +0.000 A 
ENDROOT
BRANCH   5  12
ATOM     12  C   UNL     1     106.880 125.524 147.180  0.00  0.00    +0.000 A 
ATOM     13  C   UNL     1     106.297 125.473 147.762  0.00  0.00    +0.000 A 
ATOM     14  C   UNL     1     107.651 125.284 147.349  0.00  0.00    +0.000 A 
ATOM     15  C   UNL     1     106.484 125.183 148.510  0.00  0.00    +0.000 A 
ATOM     16  C   UNL     1     107.839 124.993 148.099  0.00  0.00    +0.000 A 
ATOM     17  C   UNL     1     107.255 124.943 148.679  0.00  0.00    +0.000 A 
BRANCH  17  18
ATOM     18  O   UNL     1     107.443 124.653 149.429  0.00  0.00    +0.000 OA
ATOM     19  C   UNL     1     107.301 123.861 149.612  0.00  0.00    +0.000 C 
ENDBRANCH  17  18
ENDBRANCH   5  12
BRANCH   6  20
ATOM     20  O   UNL     1     105.890 124.239 144.662  0.00  0.00    +0.000 OA
ATOM     21  C   UNL     1     105.141 123.908 144.761  0.00  0.00    +0.000 C 
ENDBRANCH   6  20
BRANCH   8  22
ATOM     22  O   UNL     1     107.036 127.134 146.857  0.00  0.00    +0.000 OA
ATOM     23  C   UNL     1     107.103 127.941 146.699  0.00  0.00    +0.000 C 
ENDBRANCH   8  22
BRANCH  10  24
ATOM     24  O   UNL     1     105.504 124.822 143.123  0.00  0.00    +0.000 OA
ATOM     25  C   UNL     1     106.003 124.613 142.501  0.00  0.00    +0.000 C 
ENDBRANCH  10  24
BRANCH  11  26
ATOM     26  O   UNL     1     105.664 126.472 142.792  0.00  0.00    +0.000 OA
ATOM     27  C   UNL     1     105.509 127.276 142.691  0.00  0.00    +0.000 C 
ENDBRANCH  11  26
TORSDOF 6
ENDMDL
MODEL 7
REMARK VINA RESULT:      -6.9     13.400     14.139
REMARK  Name = 10643
REMARK  6 active torsions:
REMARK  status: ('A' for Active; 'I' for Inactive)
REMARK    1  A    between atoms: O_2  and  C_11
REMARK    2  A    between atoms: O_3  and  C_13
REMARK    3  A    between atoms: O_4  and  C_15
REMARK    4  A    between atoms: O_5  and  C_16
REMARK    5  A    between atoms: O_7  and  C_22
REMARK    6  A    between atoms: C_10  and  C_17
REMARK                            x       y       z     vdW  Elec       q    Type
REMARK                         _______ _______ _______ _____ _____    ______ ____
ROOT
ATOM      1  O   UNL     1     103.606 124.673 146.607  0.00  0.00    +0.000 OA
ATOM      2  O   UNL     1     103.605 124.381 149.065  0.00  0.00    +0.000 OA
ATOM      3  C   UNL     1     104.184 124.942 147.885  0.00  0.00    +0.000 A 
ATOM      4  C   UNL     1     104.185 125.040 147.066  0.00  0.00    +0.000 A 
ATOM      5  C   UNL     1     103.027 124.209 146.966  0.00  0.00    +0.000 A 
ATOM      6  C   UNL     1     104.784 125.521 146.679  0.00  0.00    +0.000 A 
ATOM      7  C   UNL     1     103.605 124.479 148.245  0.00  0.00    +0.000 A 
ATOM      8  C   UNL     1     103.026 124.112 147.785  0.00  0.00    +0.000 A 
ATOM      9  C   UNL     1     104.782 125.319 148.374  0.00  0.00    +0.000 A 
ATOM     10  C   UNL     1     105.389 125.905 147.153  0.00  0.00    +0.000 A 
ATOM     11  C   UNL     1     105.388 125.804 148.006  0.00  0.00    +0.000 A 
ENDROOT
BRANCH   5  12
ATOM     12  C   UNL     1     102.448 123.843 146.507  0.00  0.00    +0.000 A 
ATOM     13  C   UNL     1     102.612 123.129 146.127  0.00  0.00    +0.000 A 
ATOM     14  C   UNL     1     101.704 124.190 146.428  0.00  0.00    +0.000 A 
ATOM     15  C   UNL     1     102.034 122.763 145.669  0.00  0.00    +0.000 A 
ATOM     16  C   UNL     1     101.124 123.823 145.968  0.00  0.00    +0.000 A 
ATOM     17  C   UNL     1     101.290 123.110 145.589  0.00  0.00    +0.000 A 
BRANCH  17  18
ATOM     18  O   UNL     1     100.710 122.743 145.129  0.00  0.00    +0.000 OA
ATOM     19  C   UNL     1     100.768 122.753 144.306  0.00  0.00    +0.000 C 
ENDBRANCH  17  18
ENDBRANCH   5  12
BRANCH   6  20
ATOM     20  O   UNL     1     104.776 125.613 145.859  0.00  0.00    +0.000 OA
ATOM     21  C   UNL     1     105.347 125.236 145.398  0.00  0.00    +0.000 C 
ENDBRANCH   6  20
BRANCH   8  22
ATOM     22  O   UNL     1     102.447 123.648 148.146  0.00  0.00    +0.000 OA
ATOM     23  C   UNL     1     102.510 123.455 148.945  0.00  0.00    +0.000 C 
ENDBRANCH   8  22
BRANCH  10  24
ATOM     24  O   UNL     1     105.967 126.369 146.790  0.00  0.00    +0.000 OA
ATOM     25  C   UNL     1     105.923 127.191 146.832  0.00  0.00    +0.000 C 
ENDBRANCH  10  24
BRANCH  11  26
ATOM     26  O   UNL     1     105.966 126.169 148.468  0.00  0.00    +0.000 OA
ATOM     27  C   UNL     1     106.299 125.767 149.107  0.00  0.00    +0.000 C 
ENDBRANCH  11  26
TORSDOF 6
ENDMDL
MODEL 8
REMARK VINA RESULT:      -6.9      1.118      2.382
REMARK  Name = 10643
REMARK  6 active torsions:
REMARK  status: ('A' for Active; 'I' for Inactive)
REMARK    1  A    between atoms: O_2  and  C_11
REMARK    2  A    between atoms: O_3  and  C_13
REMARK    3  A    between atoms: O_4  and  C_15
REMARK    4  A    between atoms: O_5  and  C_16
REMARK    5  A    between atoms: O_7  and  C_22
REMARK    6  A    between atoms: C_10  and  C_17
REMARK                            x       y       z     vdW  Elec       q    Type
REMARK                         _______ _______ _______ _____ _____    ______ ____
ROOT
ATOM      1  O   UNL     1     111.106 127.323 135.907  0.00  0.00    +0.000 OA
ATOM      2  O   UNL     1     113.413 128.128 136.298  0.00  0.00    +0.000 OA
ATOM      3  C   UNL     1     112.467 127.058 136.247  0.00  0.00    +0.000 A 
ATOM      4  C   UNL     1     111.698 126.789 136.116  0.00  0.00    +0.000 A 
ATOM      5  C   UNL     1     111.281 128.125 135.827  0.00  0.00    +0.000 A 
ATOM      6  C   UNL     1     111.503 125.956 136.196  0.00  0.00    +0.000 A 
ATOM      7  C   UNL     1     112.644 127.860 136.168  0.00  0.00    +0.000 A 
ATOM      8  C   UNL     1     112.050 128.394 135.958  0.00  0.00    +0.000 A 
ATOM      9  C   UNL     1     113.094 126.511 136.466  0.00  0.00    +0.000 A 
ATOM     10  C   UNL     1     112.116 125.396 136.414  0.00  0.00    +0.000 A 
ATOM     11  C   UNL     1     112.917 125.675 136.550  0.00  0.00    +0.000 A 
ENDROOT
BRANCH   5  12
ATOM     12  C   UNL     1     110.689 128.659 135.618  0.00  0.00    +0.000 A 
ATOM     13  C   UNL     1     110.570 128.854 134.825  0.00  0.00    +0.000 A 
ATOM     14  C   UNL     1     110.214 128.998 136.201  0.00  0.00    +0.000 A 
ATOM     15  C   UNL     1     109.977 129.387 134.615  0.00  0.00    +0.000 A 
ATOM     16  C   UNL     1     109.620 129.532 135.991  0.00  0.00    +0.000 A 
ATOM     17  C   UNL     1     109.503 129.726 135.198  0.00  0.00    +0.000 A 
BRANCH  17  18
ATOM     18  O   UNL     1     108.909 130.261 134.989  0.00  0.00    +0.000 OA
ATOM     19  C   UNL     1     109.100 131.046 134.824  0.00  0.00    +0.000 C 
ENDBRANCH  17  18
ENDBRANCH   5  12
BRANCH   6  20
ATOM     20  O   UNL     1     110.731 125.697 136.063  0.00  0.00    +0.000 OA
ATOM     21  C   UNL     1     110.536 125.332 135.349  0.00  0.00    +0.000 C 
ENDBRANCH   6  20
BRANCH   8  22
ATOM     22  O   UNL     1     112.227 129.195 135.878  0.00  0.00    +0.000 OA
ATOM     23  C   UNL     1     112.986 129.470 136.048  0.00  0.00    +0.000 C 
ENDBRANCH   8  22
BRANCH  10  24
ATOM     24  O   UNL     1     111.937 124.594 136.493  0.00  0.00    +0.000 OA
ATOM     25  C   UNL     1     111.776 124.278 137.238  0.00  0.00    +0.000 C 
ENDBRANCH  10  24
BRANCH  11  26
ATOM     26  O   UNL     1     113.513 125.144 136.760  0.00  0.00    +0.000 OA
ATOM     27  C   UNL     1     114.297 125.303 136.560  0.00  0.00    +0.000 C 
ENDBRANCH  11  26
TORSDOF 6
ENDMDL
MODEL 9
REMARK VINA RESULT:      -6.8      9.726     10.783
REMARK  Name = 10643
REMARK  6 active torsions:
REMARK  status: ('A' for Active; 'I' for Inactive)
REMARK    1  A    between atoms: O_2  and  C_11
REMARK    2  A    between atoms: O_3  and  C_13
REMARK    3  A    between atoms: O_4  and  C_15
REMARK    4  A    between atoms: O_5  and  C_16
REMARK    5  A    between atoms: O_7  and  C_22
REMARK    6  A    between atoms: C_10  and  C_17
REMARK                            x       y       z     vdW  Elec       q    Type
REMARK                         _______ _______ _______ _____ _____    ______ ____
ROOT
ATOM      1  O   UNL     1     103.448 130.218 142.380  0.00  0.00    +0.000 OA
ATOM      2  O   UNL     1     103.354 128.629 140.485  0.00  0.00    +0.000 OA
ATOM      3  C   UNL     1     103.875 129.003 141.762  0.00  0.00    +0.000 A 
ATOM      4  C   UNL     1     103.907 129.533 142.393  0.00  0.00    +0.000 A 
ATOM      5  C   UNL     1     102.958 130.375 141.735  0.00  0.00    +0.000 A 
ATOM      6  C   UNL     1     104.414 129.382 143.071  0.00  0.00    +0.000 A 
ATOM      7  C   UNL     1     103.386 129.159 141.116  0.00  0.00    +0.000 A 
ATOM      8  C   UNL     1     102.926 129.845 141.103  0.00  0.00    +0.000 A 
ATOM      9  C   UNL     1     104.349 128.286 141.764  0.00  0.00    +0.000 A 
ATOM     10  C   UNL     1     104.894 128.670 143.091  0.00  0.00    +0.000 A 
ATOM     11  C   UNL     1     104.861 128.118 142.433  0.00  0.00    +0.000 A 
ENDROOT
BRANCH   5  12
ATOM     12  C   UNL     1     102.499 131.059 141.721  0.00  0.00    +0.000 A 
ATOM     13  C   UNL     1     102.797 131.749 141.380  0.00  0.00    +0.000 A 
ATOM     14  C   UNL     1     101.742 131.055 142.049  0.00  0.00    +0.000 A 
ATOM     15  C   UNL     1     102.339 132.434 141.366  0.00  0.00    +0.000 A 
ATOM     16  C   UNL     1     101.283 131.741 142.035  0.00  0.00    +0.000 A 
ATOM     17  C   UNL     1     101.581 132.430 141.694  0.00  0.00    +0.000 A 
BRANCH  17  18
ATOM     18  O   UNL     1     101.122 133.116 141.681  0.00  0.00    +0.000 OA
ATOM     19  C   UNL     1     101.480 133.854 141.767  0.00  0.00    +0.000 C 
ENDBRANCH  17  18
ENDBRANCH   5  12
BRANCH   6  20
ATOM     20  O   UNL     1     104.438 129.918 143.698  0.00  0.00    +0.000 OA
ATOM     21  C   UNL     1     105.090 130.416 143.788  0.00  0.00    +0.000 C 
ENDBRANCH   6  20
BRANCH   8  22
ATOM     22  O   UNL     1     102.437 130.000 140.458  0.00  0.00    +0.000 OA
ATOM     23  C   UNL     1     102.313 129.420 139.884  0.00  0.00    +0.000 C 
ENDBRANCH   8  22
BRANCH  10  24
ATOM     24  O   UNL     1     105.383 128.517 143.737  0.00  0.00    +0.000 OA
ATOM     25  C   UNL     1     105.143 127.983 144.319  0.00  0.00    +0.000 C 
ENDBRANCH  10  24
BRANCH  11  26
ATOM     26  O   UNL     1     105.319 127.431 142.443  0.00  0.00    +0.000 OA
ATOM     27  C   UNL     1     105.518 127.057 141.735  0.00  0.00    +0.000 C 
ENDBRANCH  11  26
TORSDOF 6
ENDMDL
MODEL 10
REMARK VINA RESULT:      -6.7      2.433      4.954
REMARK  Name = 10643
REMARK  6 active torsions:
REMARK  status: ('A' for Active; 'I' for Inactive)
REMARK    1  A    between atoms: O_2  and  C_11
REMARK    2  A    between atoms: O_3  and  C_13
REMARK    3  A    between atoms: O_4  and  C_15
REMARK    4  A    between atoms: O_5  and  C_16
REMARK    5  A    between atoms: O_7  and  C_22
REMARK    6  A    between atoms: C_10  and  C_17
REMARK                            x       y       z     vdW  Elec       q    Type
REMARK                         _______ _______ _______ _____ _____    ______ ____
ROOT
ATOM      1  O   UNL     1     113.603 127.827 136.456  0.00  0.00    +0.000 OA
ATOM      2  O   UNL     1     112.341 128.808 138.346  0.00  0.00    +0.000 OA
ATOM      3  C   UNL     1     113.171 128.971 137.194  0.00  0.00    +0.000 A 
ATOM      4  C   UNL     1     113.591 128.644 136.564  0.00  0.00    +0.000 A 
ATOM      5  C   UNL     1     113.193 127.335 136.978  0.00  0.00    +0.000 A 
ATOM      6  C   UNL     1     114.022 129.145 136.014  0.00  0.00    +0.000 A 
ATOM      7  C   UNL     1     112.762 128.481 137.716  0.00  0.00    +0.000 A 
ATOM      8  C   UNL     1     112.773 127.662 137.608  0.00  0.00    +0.000 A 
ATOM      9  C   UNL     1     113.152 129.822 137.318  0.00  0.00    +0.000 A 
ATOM     10  C   UNL     1     114.014 129.997 136.122  0.00  0.00    +0.000 A 
ATOM     11  C   UNL     1     113.576 130.338 136.778  0.00  0.00    +0.000 A 
ENDROOT
BRANCH   5  12
ATOM     12  C   UNL     1     113.205 126.518 136.869  0.00  0.00    +0.000 A 
ATOM     13  C   UNL     1     112.607 126.151 136.434  0.00  0.00    +0.000 A 
ATOM     14  C   UNL     1     113.813 126.067 137.196  0.00  0.00    +0.000 A 
ATOM     15  C   UNL     1     112.619 125.334 136.326  0.00  0.00    +0.000 A 
ATOM     16  C   UNL     1     113.825 125.249 137.088  0.00  0.00    +0.000 A 
ATOM     17  C   UNL     1     113.227 124.883 136.653  0.00  0.00    +0.000 A 
BRANCH  17  18
ATOM     18  O   UNL     1     113.239 124.064 136.545  0.00  0.00    +0.000 OA
ATOM     19  C   UNL     1     112.634 123.598 136.859  0.00  0.00    +0.000 C 
ENDBRANCH  17  18
ENDBRANCH   5  12
BRANCH   6  20
ATOM     20  O   UNL     1     114.439 128.809 135.387  0.00  0.00    +0.000 OA
ATOM     21  C   UNL     1     114.170 128.908 134.613  0.00  0.00    +0.000 C 
ENDBRANCH   6  20
BRANCH   8  22
ATOM     22  O   UNL     1     112.364 127.172 138.130  0.00  0.00    +0.000 OA
ATOM     23  C   UNL     1     111.971 127.496 138.779  0.00  0.00    +0.000 C 
ENDBRANCH   8  22
BRANCH  10  24
ATOM     24  O   UNL     1     114.424 130.486 135.598  0.00  0.00    +0.000 OA
ATOM     25  C   UNL     1     115.182 130.751 135.789  0.00  0.00    +0.000 C 
ENDBRANCH  10  24
BRANCH  11  26
ATOM     26  O   UNL     1     113.562 131.156 136.889  0.00  0.00    +0.000 OA
ATOM     27  C   UNL     1     112.864 131.530 137.120  0.00  0.00    +0.000 C 
ENDBRANCH  11  26
TORSDOF 6
ENDMDL
