MODEL 1
REMARK VINA RESULT:      -7.9      0.000      0.000
REMARK  Name = 54799
REMARK  5 active torsions:
REMARK  status: ('A' for Active; 'I' for Inactive)
REMARK    1  A    between atoms: O_2  and  C_13
REMARK    2  A    between atoms: O_3  and  C_16
REMARK    3  A    between atoms: O_4  and  C_17
REMARK    4  A    between atoms: O_5  and  C_18
REMARK    5  A    between atoms: C_12  and  C_19
REMARK                            x       y       z     vdW  Elec       q    Type
REMARK                         _______ _______ _______ _____ _____    ______ ____
ROOT
ATOM      1  O   UNL     1     103.824 124.517 146.305  0.00  0.00    +0.000 OA
ATOM      2  O   UNL     1     102.043 124.309 148.577  0.00  0.00    +0.000 OA
ATOM      3  O   UNL     1     103.196 125.171 148.669  0.00  0.00    +0.000 OA
ATOM      4  C   UNL     1     102.921 124.410 147.455  0.00  0.00    +0.000 A 
ATOM      5  C   UNL     1     103.123 124.195 146.683  0.00  0.00    +0.000 A 
ATOM      6  C   UNL     1     104.322 125.071 146.735  0.00  0.00    +0.000 A 
ATOM      7  C   UNL     1     102.649 123.664 146.266  0.00  0.00    +0.000 A 
ATOM      8  C   UNL     1     102.245 124.094 147.807  0.00  0.00    +0.000 A 
ATOM      9  C   UNL     1     103.406 124.962 147.899  0.00  0.00    +0.000 A 
ATOM     10  C   UNL     1     104.111 125.295 147.539  0.00  0.00    +0.000 A 
ATOM     11  C   UNL     1     101.974 123.349 146.618  0.00  0.00    +0.000 A 
ATOM     12  C   UNL     1     101.772 123.564 147.389  0.00  0.00    +0.000 A 
ENDROOT
BRANCH   6  15
ATOM     13  O   UNL     1     107.119 124.919 146.171  0.00  0.00    +0.000 OA
ATOM     14  O   UNL     1     107.023 126.327 145.316  0.00  0.00    +0.000 OA
ATOM     15  C   UNL     1     104.997 125.385 146.381  0.00  0.00    +0.000 A 
ATOM     16  C   UNL     1     105.720 124.995 146.453  0.00  0.00    +0.000 A 
ATOM     17  C   UNL     1     104.948 126.089 145.953  0.00  0.00    +0.000 A 
ATOM     18  C   UNL     1     106.395 125.309 146.099  0.00  0.00    +0.000 A 
ATOM     19  C   UNL     1     105.624 126.403 145.598  0.00  0.00    +0.000 A 
ATOM     20  C   UNL     1     106.347 126.014 145.671  0.00  0.00    +0.000 A 
ENDBRANCH   6  15
BRANCH   7  21
ATOM     21  O   UNL     1     102.851 123.449 145.495  0.00  0.00    +0.000 OA
ATOM     22  C   UNL     1     103.246 122.739 145.356  0.00  0.00    +0.000 C 
ENDBRANCH   7  21
BRANCH  10  23
ATOM     23  O   UNL     1     104.583 125.825 147.959  0.00  0.00    +0.000 OA
ATOM     24  C   UNL     1     104.414 125.991 148.749  0.00  0.00    +0.000 C 
ENDBRANCH  10  23
BRANCH  11  25
ATOM     25  O   UNL     1     101.500 122.818 146.201  0.00  0.00    +0.000 OA
ATOM     26  C   UNL     1     100.886 123.097 145.726  0.00  0.00    +0.000 C 
ENDBRANCH  11  25
BRANCH  12  27
ATOM     27  O   UNL     1     101.096 123.247 147.741  0.00  0.00    +0.000 OA
ATOM     28  C   UNL     1     101.162 122.780 148.417  0.00  0.00    +0.000 C 
ENDBRANCH  12  27
TORSDOF 5
ENDMDL
MODEL 2
REMARK VINA RESULT:      -7.8      1.125      2.357
REMARK  Name = 54799
REMARK  5 active torsions:
REMARK  status: ('A' for Active; 'I' for Inactive)
REMARK    1  A    between atoms: O_2  and  C_13
REMARK    2  A    between atoms: O_3  and  C_16
REMARK    3  A    between atoms: O_4  and  C_17
REMARK    4  A    between atoms: O_5  and  C_18
REMARK    5  A    between atoms: C_12  and  C_19
REMARK                            x       y       z     vdW  Elec       q    Type
REMARK                         _______ _______ _______ _____ _____    ______ ____
ROOT
ATOM      1  O   UNL     1     104.585 124.822 146.975  0.00  0.00    +0.000 OA
ATOM      2  O   UNL     1     103.127 123.059 145.201  0.00  0.00    +0.000 OA
ATOM      3  O   UNL     1     104.398 123.590 144.771  0.00  0.00    +0.000 OA
ATOM      4  C   UNL     1     103.845 123.929 146.078  0.00  0.00    +0.000 A 
ATOM      5  C   UNL     1     103.904 124.330 146.798  0.00  0.00    +0.000 A 
ATOM      6  C   UNL     1     105.215 124.898 146.395  0.00  0.00    +0.000 A 
ATOM      7  C   UNL     1     103.302 124.260 147.359  0.00  0.00    +0.000 A 
ATOM      8  C   UNL     1     103.185 123.460 145.920  0.00  0.00    +0.000 A 
ATOM      9  C   UNL     1     104.464 123.993 145.487  0.00  0.00    +0.000 A 
ATOM     10  C   UNL     1     105.154 124.481 145.646  0.00  0.00    +0.000 A 
ATOM     11  C   UNL     1     102.643 123.791 147.200  0.00  0.00    +0.000 A 
ATOM     12  C   UNL     1     102.584 123.390 146.480  0.00  0.00    +0.000 A 
ENDROOT
BRANCH   6  15
ATOM     13  O   UNL     1     107.878 125.167 147.396  0.00  0.00    +0.000 OA
ATOM     14  O   UNL     1     107.849 126.777 147.040  0.00  0.00    +0.000 OA
ATOM     15  C   UNL     1     105.874 125.368 146.556  0.00  0.00    +0.000 A 
ATOM     16  C   UNL     1     106.547 125.033 146.896  0.00  0.00    +0.000 A 
ATOM     17  C   UNL     1     105.859 126.174 146.378  0.00  0.00    +0.000 A 
ATOM     18  C   UNL     1     107.205 125.502 147.057  0.00  0.00    +0.000 A 
ATOM     19  C   UNL     1     106.518 126.643 146.539  0.00  0.00    +0.000 A 
ATOM     20  C   UNL     1     107.191 126.309 146.878  0.00  0.00    +0.000 A 
ENDBRANCH   6  15
BRANCH   7  21
ATOM     21  O   UNL     1     103.360 124.660 148.078  0.00  0.00    +0.000 OA
ATOM     22  C   UNL     1     102.936 125.357 148.197  0.00  0.00    +0.000 C 
ENDBRANCH   7  21
BRANCH  10  23
ATOM     23  O   UNL     1     105.754 124.548 145.083  0.00  0.00    +0.000 OA
ATOM     24  C   UNL     1     105.581 124.453 144.282  0.00  0.00    +0.000 C 
ENDBRANCH  10  23
BRANCH  11  25
ATOM     25  O   UNL     1     102.041 123.721 147.761  0.00  0.00    +0.000 OA
ATOM     26  C   UNL     1     102.049 123.098 148.300  0.00  0.00    +0.000 C 
ENDBRANCH  11  25
BRANCH  12  27
ATOM     27  O   UNL     1     101.924 122.921 146.323  0.00  0.00    +0.000 OA
ATOM     28  C   UNL     1     101.353 123.178 145.787  0.00  0.00    +0.000 C 
ENDBRANCH  12  27
TORSDOF 5
ENDMDL
MODEL 3
REMARK VINA RESULT:      -7.7     13.526     14.410
REMARK  Name = 54799
REMARK  5 active torsions:
REMARK  status: ('A' for Active; 'I' for Inactive)
REMARK    1  A    between atoms: O_2  and  C_13
REMARK    2  A    between atoms: O_3  and  C_16
REMARK    3  A    between atoms: O_4  and  C_17
REMARK    4  A    between atoms: O_5  and  C_18
REMARK    5  A    between atoms: C_12  and  C_19
REMARK                            x       y       z     vdW  Elec       q    Type
REMARK                         _______ _______ _______ _____ _____    ______ ____
ROOT
ATOM      1  O   UNL     1     110.283 130.689 136.056  0.00  0.00    +0.000 OA
ATOM      2  O   UNL     1     112.273 131.265 138.078  0.00  0.00    +0.000 OA
ATOM      3  O   UNL     1     111.157 132.166 137.917  0.00  0.00    +0.000 OA
ATOM      4  C   UNL     1     111.292 130.979 137.079  0.00  0.00    +0.000 A 
ATOM      5  C   UNL     1     111.009 130.495 136.472  0.00  0.00    +0.000 A 
ATOM      6  C   UNL     1     109.845 131.396 136.273  0.00  0.00    +0.000 A 
ATOM      7  C   UNL     1     111.425 129.815 136.259  0.00  0.00    +0.000 A 
ATOM      8  C   UNL     1     111.990 130.781 137.472  0.00  0.00    +0.000 A 
ATOM      9  C   UNL     1     110.868 131.689 137.310  0.00  0.00    +0.000 A 
ATOM     10  C   UNL     1     110.140 131.900 136.905  0.00  0.00    +0.000 A 
ATOM     11  C   UNL     1     112.123 129.618 136.652  0.00  0.00    +0.000 A 
ATOM     12  C   UNL     1     112.406 130.102 137.259  0.00  0.00    +0.000 A 
ENDROOT
BRANCH   6  15
ATOM     13  O   UNL     1     107.014 131.146 135.987  0.00  0.00    +0.000 OA
ATOM     14  O   UNL     1     107.053 132.173 134.696  0.00  0.00    +0.000 OA
ATOM     15  C   UNL     1     109.147 131.591 135.879  0.00  0.00    +0.000 A 
ATOM     16  C   UNL     1     108.429 131.271 136.130  0.00  0.00    +0.000 A 
ATOM     17  C   UNL     1     109.168 132.104 135.234  0.00  0.00    +0.000 A 
ATOM     18  C   UNL     1     107.732 131.465 135.736  0.00  0.00    +0.000 A 
ATOM     19  C   UNL     1     108.469 132.298 134.839  0.00  0.00    +0.000 A 
ATOM     20  C   UNL     1     107.751 131.979 135.090  0.00  0.00    +0.000 A 
ENDBRANCH   6  15
BRANCH   7  21
ATOM     21  O   UNL     1     111.143 129.332 135.653  0.00  0.00    +0.000 OA
ATOM     22  C   UNL     1     111.490 129.363 134.906  0.00  0.00    +0.000 C 
ENDBRANCH   7  21
BRANCH  10  23
ATOM     23  O   UNL     1     109.726 132.580 137.120  0.00  0.00    +0.000 OA
ATOM     24  C   UNL     1     109.976 133.028 137.767  0.00  0.00    +0.000 C 
ENDBRANCH  10  23
BRANCH  11  25
ATOM     25  O   UNL     1     112.540 128.939 136.439  0.00  0.00    +0.000 OA
ATOM     26  C   UNL     1     112.399 128.228 136.833  0.00  0.00    +0.000 C 
ENDBRANCH  11  25
BRANCH  12  27
ATOM     27  O   UNL     1     113.105 129.905 137.651  0.00  0.00    +0.000 OA
ATOM     28  C   UNL     1     113.786 130.353 137.531  0.00  0.00    +0.000 C 
ENDBRANCH  12  27
TORSDOF 5
ENDMDL
MODEL 4
REMARK VINA RESULT:      -7.6      1.110      4.305
REMARK  Name = 54799
REMARK  5 active torsions:
REMARK  status: ('A' for Active; 'I' for Inactive)
REMARK    1  A    between atoms: O_2  and  C_13
REMARK    2  A    between atoms: O_3  and  C_16
REMARK    3  A    between atoms: O_4  and  C_17
REMARK    4  A    between atoms: O_5  and  C_18
REMARK    5  A    between atoms: C_12  and  C_19
REMARK                            x       y       z     vdW  Elec       q    Type
REMARK                         _______ _______ _______ _____ _____    ______ ____
ROOT
ATOM      1  O   UNL     1     104.231 124.503 146.231  0.00  0.00    +0.000 OA
ATOM      2  O   UNL     1     106.231 125.329 148.154  0.00  0.00    +0.000 OA
ATOM      3  O   UNL     1     105.012 124.722 148.630  0.00  0.00    +0.000 OA
ATOM      4  C   UNL     1     105.245 124.921 147.203  0.00  0.00    +0.000 A 
ATOM      5  C   UNL     1     104.993 124.851 146.420  0.00  0.00    +0.000 A 
ATOM      6  C   UNL     1     103.724 124.223 146.867  0.00  0.00    +0.000 A 
ATOM      7  C   UNL     1     105.476 125.118 145.806  0.00  0.00    +0.000 A 
ATOM      8  C   UNL     1     105.980 125.258 147.371  0.00  0.00    +0.000 A 
ATOM      9  C   UNL     1     104.752 124.648 147.851  0.00  0.00    +0.000 A 
ATOM     10  C   UNL     1     103.986 124.296 147.683  0.00  0.00    +0.000 A 
ATOM     11  C   UNL     1     106.209 125.455 145.974  0.00  0.00    +0.000 A 
ATOM     12  C   UNL     1     106.462 125.525 146.758  0.00  0.00    +0.000 A 
ENDROOT
BRANCH   6  15
ATOM     13  O   UNL     1     100.909 124.500 146.464  0.00  0.00    +0.000 OA
ATOM     14  O   UNL     1     100.789 122.879 146.182  0.00  0.00    +0.000 OA
ATOM     15  C   UNL     1     102.990 123.886 146.696  0.00  0.00    +0.000 A 
ATOM     16  C   UNL     1     102.316 124.361 146.665  0.00  0.00    +0.000 A 
ATOM     17  C   UNL     1     102.931 123.076 146.555  0.00  0.00    +0.000 A 
ATOM     18  C   UNL     1     101.583 124.025 146.494  0.00  0.00    +0.000 A 
ATOM     19  C   UNL     1     102.197 122.740 146.383  0.00  0.00    +0.000 A 
ATOM     20  C   UNL     1     101.523 123.214 146.353  0.00  0.00    +0.000 A 
ENDBRANCH   6  15
BRANCH   7  21
ATOM     21  O   UNL     1     105.224 125.048 145.024  0.00  0.00    +0.000 OA
ATOM     22  C   UNL     1     105.567 124.484 144.530  0.00  0.00    +0.000 C 
ENDBRANCH   7  21
BRANCH  10  23
ATOM     23  O   UNL     1     103.506 124.030 148.298  0.00  0.00    +0.000 OA
ATOM     24  C   UNL     1     103.562 124.378 149.044  0.00  0.00    +0.000 C 
ENDBRANCH  10  23
BRANCH  11  25
ATOM     25  O   UNL     1     106.692 125.721 145.361  0.00  0.00    +0.000 OA
ATOM     26  C   UNL     1     106.621 126.495 145.086  0.00  0.00    +0.000 C 
ENDBRANCH  11  25
BRANCH  12  27
ATOM     27  O   UNL     1     107.196 125.862 146.926  0.00  0.00    +0.000 OA
ATOM     28  C   UNL     1     107.791 125.405 147.267  0.00  0.00    +0.000 C 
ENDBRANCH  12  27
TORSDOF 5
ENDMDL
MODEL 5
REMARK VINA RESULT:      -7.5     12.547     13.485
REMARK  Name = 54799
REMARK  5 active torsions:
REMARK  status: ('A' for Active; 'I' for Inactive)
REMARK    1  A    between atoms: O_2  and  C_13
REMARK    2  A    between atoms: O_3  and  C_16
REMARK    3  A    between atoms: O_4  and  C_17
REMARK    4  A    between atoms: O_5  and  C_18
REMARK    5  A    between atoms: C_12  and  C_19
REMARK                            x       y       z     vdW  Elec       q    Type
REMARK                         _______ _______ _______ _____ _____    ______ ____
ROOT
ATOM      1  O   UNL     1     110.126 130.413 136.561  0.00  0.00    +0.000 OA
ATOM      2  O   UNL     1     108.022 128.638 135.665  0.00  0.00    +0.000 OA
ATOM      3  O   UNL     1     107.686 129.993 136.030  0.00  0.00    +0.000 OA
ATOM      4  C   UNL     1     109.062 129.513 136.107  0.00  0.00    +0.000 A 
ATOM      5  C   UNL     1     109.858 129.647 136.279  0.00  0.00    +0.000 A 
ATOM      6  C   UNL     1     109.556 131.049 136.665  0.00  0.00    +0.000 A 
ATOM      7  C   UNL     1     110.409 129.041 136.181  0.00  0.00    +0.000 A 
ATOM      8  C   UNL     1     108.818 128.772 135.837  0.00  0.00    +0.000 A 
ATOM      9  C   UNL     1     108.479 130.136 136.205  0.00  0.00    +0.000 A 
ATOM     10  C   UNL     1     108.727 130.909 136.486  0.00  0.00    +0.000 A 
ATOM     11  C   UNL     1     110.165 128.301 135.911  0.00  0.00    +0.000 A 
ATOM     12  C   UNL     1     109.369 128.167 135.739  0.00  0.00    +0.000 A 
ENDROOT
BRANCH   6  15
ATOM     13  O   UNL     1     110.080 132.846 138.824  0.00  0.00    +0.000 OA
ATOM     14  O   UNL     1     110.545 134.005 137.747  0.00  0.00    +0.000 OA
ATOM     15  C   UNL     1     109.803 131.788 136.935  0.00  0.00    +0.000 A 
ATOM     16  C   UNL     1     109.818 131.948 137.745  0.00  0.00    +0.000 A 
ATOM     17  C   UNL     1     110.036 132.368 136.396  0.00  0.00    +0.000 A 
ATOM     18  C   UNL     1     110.065 132.686 138.015  0.00  0.00    +0.000 A 
ATOM     19  C   UNL     1     110.283 133.107 136.668  0.00  0.00    +0.000 A 
ATOM     20  C   UNL     1     110.298 133.267 137.476  0.00  0.00    +0.000 A 
ENDBRANCH   6  15
BRANCH   7  21
ATOM     21  O   UNL     1     111.205 129.175 136.353  0.00  0.00    +0.000 OA
ATOM     22  C   UNL     1     111.525 128.902 137.062  0.00  0.00    +0.000 C 
ENDBRANCH   7  21
BRANCH  10  23
ATOM     23  O   UNL     1     108.174 131.514 136.583  0.00  0.00    +0.000 OA
ATOM     24  C   UNL     1     107.526 131.565 136.075  0.00  0.00    +0.000 C 
ENDBRANCH  10  23
BRANCH  11  25
ATOM     25  O   UNL     1     110.716 127.694 135.813  0.00  0.00    +0.000 OA
ATOM     26  C   UNL     1     111.076 127.578 135.081  0.00  0.00    +0.000 C 
ENDBRANCH  11  25
BRANCH  12  27
ATOM     27  O   UNL     1     109.125 127.426 135.469  0.00  0.00    +0.000 OA
ATOM     28  C   UNL     1     108.697 126.926 135.965  0.00  0.00    +0.000 C 
ENDBRANCH  12  27
TORSDOF 5
ENDMDL
MODEL 6
REMARK VINA RESULT:      -7.4     12.372     14.172
REMARK  Name = 54799
REMARK  5 active torsions:
REMARK  status: ('A' for Active; 'I' for Inactive)
REMARK    1  A    between atoms: O_2  and  C_13
REMARK    2  A    between atoms: O_3  and  C_16
REMARK    3  A    between atoms: O_4  and  C_17
REMARK    4  A    between atoms: O_5  and  C_18
REMARK    5  A    between atoms: C_12  and  C_19
REMARK                            x       y       z     vdW  Elec       q    Type
REMARK                         _______ _______ _______ _____ _____    ______ ____
ROOT
ATOM      1  O   UNL     1     112.071 126.825 136.419  0.00  0.00    +0.000 OA
ATOM      2  O   UNL     1     110.507 128.476 134.629  0.00  0.00    +0.000 OA
ATOM      3  O   UNL     1     110.308 127.047 134.616  0.00  0.00    +0.000 OA
ATOM      4  C   UNL     1     111.280 127.663 135.513  0.00  0.00    +0.000 A 
ATOM      5  C   UNL     1     111.856 127.594 136.102  0.00  0.00    +0.000 A 
ATOM      6  C   UNL     1     111.683 126.119 136.121  0.00  0.00    +0.000 A 
ATOM      7  C   UNL     1     112.232 128.268 136.392  0.00  0.00    +0.000 A 
ATOM      8  C   UNL     1     111.082 128.407 135.216  0.00  0.00    +0.000 A 
ATOM      9  C   UNL     1     110.882 126.969 135.203  0.00  0.00    +0.000 A 
ATOM     10  C   UNL     1     111.083 126.191 135.508  0.00  0.00    +0.000 A 
ATOM     11  C   UNL     1     112.034 129.012 136.095  0.00  0.00    +0.000 A 
ATOM     12  C   UNL     1     111.458 129.081 135.506  0.00  0.00    +0.000 A 
ENDROOT
BRANCH   6  15
ATOM     13  O   UNL     1     111.282 124.030 138.029  0.00  0.00    +0.000 OA
ATOM     14  O   UNL     1     112.483 123.150 137.318  0.00  0.00    +0.000 OA
ATOM     15  C   UNL     1     111.883 125.377 136.420  0.00  0.00    +0.000 A 
ATOM     16  C   UNL     1     111.483 125.074 137.075  0.00  0.00    +0.000 A 
ATOM     17  C   UNL     1     112.484 124.937 136.064  0.00  0.00    +0.000 A 
ATOM     18  C   UNL     1     111.683 124.332 137.374  0.00  0.00    +0.000 A 
ATOM     19  C   UNL     1     112.684 124.194 136.364  0.00  0.00    +0.000 A 
ATOM     20  C   UNL     1     112.284 123.892 137.018  0.00  0.00    +0.000 A 
ENDBRANCH   6  15
BRANCH   7  21
ATOM     21  O   UNL     1     112.807 128.199 136.980  0.00  0.00    +0.000 OA
ATOM     22  C   UNL     1     112.620 128.382 137.762  0.00  0.00    +0.000 C 
ENDBRANCH   7  21
BRANCH  10  23
ATOM     23  O   UNL     1     110.706 125.518 135.216  0.00  0.00    +0.000 OA
ATOM     24  C   UNL     1     109.972 125.586 134.845  0.00  0.00    +0.000 C 
ENDBRANCH  10  23
BRANCH  11  25
ATOM     25  O   UNL     1     112.410 129.686 136.385  0.00  0.00    +0.000 OA
ATOM     26  C   UNL     1     113.089 129.972 136.015  0.00  0.00    +0.000 C 
ENDBRANCH  11  25
BRANCH  12  27
ATOM     27  O   UNL     1     111.260 129.825 135.210  0.00  0.00    +0.000 OA
ATOM     28  C   UNL     1     110.542 130.174 135.415  0.00  0.00    +0.000 C 
ENDBRANCH  12  27
TORSDOF 5
ENDMDL
MODEL 7
REMARK VINA RESULT:      -7.4      9.713     11.444
REMARK  Name = 54799
REMARK  5 active torsions:
REMARK  status: ('A' for Active; 'I' for Inactive)
REMARK    1  A    between atoms: O_2  and  C_13
REMARK    2  A    between atoms: O_3  and  C_16
REMARK    3  A    between atoms: O_4  and  C_17
REMARK    4  A    between atoms: O_5  and  C_18
REMARK    5  A    between atoms: C_12  and  C_19
REMARK                            x       y       z     vdW  Elec       q    Type
REMARK                         _______ _______ _______ _____ _____    ______ ____
ROOT
ATOM      1  O   UNL     1     111.290 131.646 145.167  0.00  0.00    +0.000 OA
ATOM      2  O   UNL     1     112.185 132.077 142.448  0.00  0.00    +0.000 OA
ATOM      3  O   UNL     1     111.994 133.218 143.311  0.00  0.00    +0.000 OA
ATOM      4  C   UNL     1     111.743 131.862 143.790  0.00  0.00    +0.000 A 
ATOM      5  C   UNL     1     111.514 131.347 144.393  0.00  0.00    +0.000 A 
ATOM      6  C   UNL     1     111.305 132.493 145.315  0.00  0.00    +0.000 A 
ATOM      7  C   UNL     1     111.498 130.534 144.257  0.00  0.00    +0.000 A 
ATOM      8  C   UNL     1     111.956 131.563 143.051  0.00  0.00    +0.000 A 
ATOM      9  C   UNL     1     111.764 132.711 143.920  0.00  0.00    +0.000 A 
ATOM     10  C   UNL     1     111.543 133.029 144.687  0.00  0.00    +0.000 A 
ATOM     11  C   UNL     1     111.711 130.235 143.518  0.00  0.00    +0.000 A 
ATOM     12  C   UNL     1     111.940 130.750 142.915  0.00  0.00    +0.000 A 
ENDROOT
BRANCH   6  15
ATOM     13  O   UNL     1     109.306 133.482 147.101  0.00  0.00    +0.000 OA
ATOM     14  O   UNL     1     110.450 133.678 148.273  0.00  0.00    +0.000 OA
ATOM     15  C   UNL     1     111.091 132.789 146.055  0.00  0.00    +0.000 A 
ATOM     16  C   UNL     1     110.305 132.987 146.209  0.00  0.00    +0.000 A 
ATOM     17  C   UNL     1     111.664 132.887 146.641  0.00  0.00    +0.000 A 
ATOM     18  C   UNL     1     110.092 133.283 146.947  0.00  0.00    +0.000 A 
ATOM     19  C   UNL     1     111.449 133.183 147.381  0.00  0.00    +0.000 A 
ATOM     20  C   UNL     1     110.664 133.381 147.534  0.00  0.00    +0.000 A 
ENDBRANCH   6  15
BRANCH   7  21
ATOM     21  O   UNL     1     111.269 130.019 144.859  0.00  0.00    +0.000 OA
ATOM     22  C   UNL     1     111.839 129.592 145.275  0.00  0.00    +0.000 C 
ENDBRANCH   7  21
BRANCH  10  23
ATOM     23  O   UNL     1     111.560 133.843 144.820  0.00  0.00    +0.000 OA
ATOM     24  C   UNL     1     111.951 134.340 144.290  0.00  0.00    +0.000 C 
ENDBRANCH  10  23
BRANCH  11  25
ATOM     25  O   UNL     1     111.695 129.421 143.382  0.00  0.00    +0.000 OA
ATOM     26  C   UNL     1     111.021 129.069 143.064  0.00  0.00    +0.000 C 
ENDBRANCH  11  25
BRANCH  12  27
ATOM     27  O   UNL     1     112.153 130.450 142.176  0.00  0.00    +0.000 OA
ATOM     28  C   UNL     1     112.941 130.471 141.933  0.00  0.00    +0.000 C 
ENDBRANCH  12  27
TORSDOF 5
ENDMDL
MODEL 8
REMARK VINA RESULT:      -7.4     13.089     13.895
REMARK  Name = 54799
REMARK  5 active torsions:
REMARK  status: ('A' for Active; 'I' for Inactive)
REMARK    1  A    between atoms: O_2  and  C_13
REMARK    2  A    between atoms: O_3  and  C_16
REMARK    3  A    between atoms: O_4  and  C_17
REMARK    4  A    between atoms: O_5  and  C_18
REMARK    5  A    between atoms: C_12  and  C_19
REMARK                            x       y       z     vdW  Elec       q    Type
REMARK                         _______ _______ _______ _____ _____    ______ ____
ROOT
ATOM      1  O   UNL     1     112.058 126.838 136.331  0.00  0.00    +0.000 OA
ATOM      2  O   UNL     1     111.501 124.017 136.004  0.00  0.00    +0.000 OA
ATOM      3  O   UNL     1     110.630 124.980 135.374  0.00  0.00    +0.000 OA
ATOM      4  C   UNL     1     111.777 125.409 136.166  0.00  0.00    +0.000 A 
ATOM      5  C   UNL     1     112.245 126.013 136.480  0.00  0.00    +0.000 A 
ATOM      6  C   UNL     1     111.375 127.038 135.849  0.00  0.00    +0.000 A 
ATOM      7  C   UNL     1     112.902 125.828 136.943  0.00  0.00    +0.000 A 
ATOM      8  C   UNL     1     111.968 124.620 136.317  0.00  0.00    +0.000 A 
ATOM      9  C   UNL     1     111.091 125.589 135.683  0.00  0.00    +0.000 A 
ATOM     10  C   UNL     1     110.888 126.409 135.522  0.00  0.00    +0.000 A 
ATOM     11  C   UNL     1     113.092 125.040 137.093  0.00  0.00    +0.000 A 
ATOM     12  C   UNL     1     112.624 124.435 136.780  0.00  0.00    +0.000 A 
ENDROOT
BRANCH   6  15
ATOM     13  O   UNL     1     109.982 129.427 136.567  0.00  0.00    +0.000 OA
ATOM     14  O   UNL     1     110.623 130.196 135.256  0.00  0.00    +0.000 OA
ATOM     15  C   UNL     1     111.187 127.827 135.701  0.00  0.00    +0.000 A 
ATOM     16  C   UNL     1     110.678 128.233 136.208  0.00  0.00    +0.000 A 
ATOM     17  C   UNL     1     111.508 128.211 135.045  0.00  0.00    +0.000 A 
ATOM     18  C   UNL     1     110.490 129.021 136.060  0.00  0.00    +0.000 A 
ATOM     19  C   UNL     1     111.320 129.001 134.897  0.00  0.00    +0.000 A 
ATOM     20  C   UNL     1     110.812 129.406 135.404  0.00  0.00    +0.000 A 
ENDBRANCH   6  15
BRANCH   7  21
ATOM     21  O   UNL     1     113.369 126.431 137.257  0.00  0.00    +0.000 OA
ATOM     22  C   UNL     1     113.289 126.645 138.049  0.00  0.00    +0.000 C 
ENDBRANCH   7  21
BRANCH  10  23
ATOM     23  O   UNL     1     110.230 126.591 135.059  0.00  0.00    +0.000 OA
ATOM     24  C   UNL     1     109.864 126.001 134.613  0.00  0.00    +0.000 C 
ENDBRANCH  10  23
BRANCH  11  25
ATOM     25  O   UNL     1     113.749 124.854 137.557  0.00  0.00    +0.000 OA
ATOM     26  C   UNL     1     114.486 124.745 137.204  0.00  0.00    +0.000 C 
ENDBRANCH  11  25
BRANCH  12  27
ATOM     27  O   UNL     1     112.815 123.647 136.930  0.00  0.00    +0.000 OA
ATOM     28  C   UNL     1     112.296 123.171 137.359  0.00  0.00    +0.000 C 
ENDBRANCH  12  27
TORSDOF 5
ENDMDL
MODEL 9
REMARK VINA RESULT:      -7.4     13.441     14.358
REMARK  Name = 54799
REMARK  5 active torsions:
REMARK  status: ('A' for Active; 'I' for Inactive)
REMARK    1  A    between atoms: O_2  and  C_13
REMARK    2  A    between atoms: O_3  and  C_16
REMARK    3  A    between atoms: O_4  and  C_17
REMARK    4  A    between atoms: O_5  and  C_18
REMARK    5  A    between atoms: C_12  and  C_19
REMARK                            x       y       z     vdW  Elec       q    Type
REMARK                         _______ _______ _______ _____ _____    ______ ____
ROOT
ATOM      1  O   UNL     1     112.839 127.479 136.579  0.00  0.00    +0.000 OA
ATOM      2  O   UNL     1     110.239 127.858 135.365  0.00  0.00    +0.000 OA
ATOM      3  O   UNL     1     110.725 126.515 135.572  0.00  0.00    +0.000 OA
ATOM      4  C   UNL     1     111.523 127.673 135.964  0.00  0.00    +0.000 A 
ATOM      5  C   UNL     1     112.211 127.990 136.292  0.00  0.00    +0.000 A 
ATOM      6  C   UNL     1     112.750 126.626 136.524  0.00  0.00    +0.000 A 
ATOM      7  C   UNL     1     112.302 128.809 136.347  0.00  0.00    +0.000 A 
ATOM      8  C   UNL     1     110.927 128.175 135.692  0.00  0.00    +0.000 A 
ATOM      9  C   UNL     1     111.416 126.823 135.901  0.00  0.00    +0.000 A 
ATOM     10  C   UNL     1     112.033 126.295 136.182  0.00  0.00    +0.000 A 
ATOM     11  C   UNL     1     111.706 129.309 136.075  0.00  0.00    +0.000 A 
ATOM     12  C   UNL     1     111.018 128.992 135.747  0.00  0.00    +0.000 A 
ENDROOT
BRANCH   6  15
ATOM     13  O   UNL     1     115.152 125.153 136.049  0.00  0.00    +0.000 OA
ATOM     14  O   UNL     1     115.142 124.631 137.614  0.00  0.00    +0.000 OA
ATOM     15  C   UNL     1     113.348 126.127 136.797  0.00  0.00    +0.000 A 
ATOM     16  C   UNL     1     113.951 125.889 136.287  0.00  0.00    +0.000 A 
ATOM     17  C   UNL     1     113.342 125.866 137.579  0.00  0.00    +0.000 A 
ATOM     18  C   UNL     1     114.549 125.391 136.559  0.00  0.00    +0.000 A 
ATOM     19  C   UNL     1     113.941 125.367 137.852  0.00  0.00    +0.000 A 
ATOM     20  C   UNL     1     114.544 125.130 137.342  0.00  0.00    +0.000 A 
ENDBRANCH   6  15
BRANCH   7  21
ATOM     21  O   UNL     1     112.990 129.126 136.674  0.00  0.00    +0.000 OA
ATOM     22  C   UNL     1     113.581 129.422 136.183  0.00  0.00    +0.000 C 
ENDBRANCH   7  21
BRANCH  10  23
ATOM     23  O   UNL     1     111.939 125.478 136.126  0.00  0.00    +0.000 OA
ATOM     24  C   UNL     1     111.188 125.156 136.016  0.00  0.00    +0.000 C 
ENDBRANCH  10  23
BRANCH  11  25
ATOM     25  O   UNL     1     111.797 130.128 136.130  0.00  0.00    +0.000 OA
ATOM     26  C   UNL     1     111.513 130.531 136.790  0.00  0.00    +0.000 C 
ENDBRANCH  11  25
BRANCH  12  27
ATOM     27  O   UNL     1     110.422 129.494 135.475  0.00  0.00    +0.000 OA
ATOM     28  C   UNL     1     110.291 129.579 134.666  0.00  0.00    +0.000 C 
ENDBRANCH  12  27
TORSDOF 5
ENDMDL
MODEL 10
REMARK VINA RESULT:      -7.4      6.077      8.140
REMARK  Name = 54799
REMARK  5 active torsions:
REMARK  status: ('A' for Active; 'I' for Inactive)
REMARK    1  A    between atoms: O_2  and  C_13
REMARK    2  A    between atoms: O_3  and  C_16
REMARK    3  A    between atoms: O_4  and  C_17
REMARK    4  A    between atoms: O_5  and  C_18
REMARK    5  A    between atoms: C_12  and  C_19
REMARK                            x       y       z     vdW  Elec       q    Type
REMARK                         _______ _______ _______ _____ _____    ______ ____
ROOT
ATOM      1  O   UNL     1     103.486 130.178 142.386  0.00  0.00    +0.000 OA
ATOM      2  O   UNL     1     104.414 127.765 141.084  0.00  0.00    +0.000 OA
ATOM      3  O   UNL     1     103.439 128.591 140.414  0.00  0.00    +0.000 OA
ATOM      4  C   UNL     1     103.957 128.956 141.728  0.00  0.00    +0.000 A 
ATOM      5  C   UNL     1     103.975 129.472 142.373  0.00  0.00    +0.000 A 
ATOM      6  C   UNL     1     102.972 130.351 141.719  0.00  0.00    +0.000 A 
ATOM      7  C   UNL     1     104.467 129.312 143.016  0.00  0.00    +0.000 A 
ATOM      8  C   UNL     1     104.432 128.281 141.728  0.00  0.00    +0.000 A 
ATOM      9  C   UNL     1     103.450 129.112 141.053  0.00  0.00    +0.000 A 
ATOM     10  C   UNL     1     102.954 129.813 141.047  0.00  0.00    +0.000 A 
ATOM     11  C   UNL     1     104.940 128.637 143.015  0.00  0.00    +0.000 A 
ATOM     12  C   UNL     1     104.923 128.121 142.370  0.00  0.00    +0.000 A 
ENDROOT
BRANCH   6  15
ATOM     13  O   UNL     1     102.620 133.127 141.142  0.00  0.00    +0.000 OA
ATOM     14  O   UNL     1     101.081 133.055 141.732  0.00  0.00    +0.000 OA
ATOM     15  C   UNL     1     102.499 131.026 141.722  0.00  0.00    +0.000 A 
ATOM     16  C   UNL     1     102.796 131.739 141.431  0.00  0.00    +0.000 A 
ATOM     17  C   UNL     1     101.729 130.990 142.017  0.00  0.00    +0.000 A 
ATOM     18  C   UNL     1     102.323 132.414 141.434  0.00  0.00    +0.000 A 
ATOM     19  C   UNL     1     101.257 131.667 142.020  0.00  0.00    +0.000 A 
ATOM     20  C   UNL     1     101.553 132.378 141.729  0.00  0.00    +0.000 A 
ENDBRANCH   6  15
BRANCH   7  21
ATOM     21  O   UNL     1     104.484 129.827 143.660  0.00  0.00    +0.000 OA
ATOM     22  C   UNL     1     105.105 130.364 143.741  0.00  0.00    +0.000 C 
ENDBRANCH   7  21
BRANCH  10  23
ATOM     23  O   UNL     1     102.463 129.971 140.403  0.00  0.00    +0.000 OA
ATOM     24  C   UNL     1     102.296 129.375 139.857  0.00  0.00    +0.000 C 
ENDBRANCH  10  23
BRANCH  11  25
ATOM     25  O   UNL     1     105.432 128.477 143.658  0.00  0.00    +0.000 OA
ATOM     26  C   UNL     1     105.166 127.994 144.271  0.00  0.00    +0.000 C 
ENDBRANCH  11  25
BRANCH  12  27
ATOM     27  O   UNL     1     105.397 127.446 142.370  0.00  0.00    +0.000 OA
ATOM     28  C   UNL     1     106.085 127.424 141.916  0.00  0.00    +0.000 C 
ENDBRANCH  12  27
TORSDOF 5
ENDMDL
