MODEL 1
REMARK VINA RESULT:      -8.3      0.000      0.000
REMARK  Name = 3083845
REMARK  3 active torsions:
REMARK  status: ('A' for Active; 'I' for Inactive)
REMARK    1  A    between atoms: O_2  and  C_10
REMARK    2  A    between atoms: O_3  and  C_14
REMARK    3  A    between atoms: C_12  and  C_17
REMARK                            x       y       z     vdW  Elec       q    Type
REMARK                         _______ _______ _______ _____ _____    ______ ____
ROOT
ATOM      1  O   UNL     1     104.724 124.183 146.789  0.00  0.00    +0.000 OA
ATOM      2  O   UNL     1     102.002 124.939 147.413  0.00  0.00    +0.000 OA
ATOM      3  O   UNL     1     102.502 122.742 145.655  0.00  0.00    +0.000 OA
ATOM      4  O   UNL     1     103.087 125.686 148.002  0.00  0.00    +0.000 OA
ATOM      5  C   UNL     1     103.345 124.564 147.104  0.00  0.00    +0.000 A 
ATOM      6  C   UNL     1     103.876 124.072 146.707  0.00  0.00    +0.000 A 
ATOM      7  C   UNL     1     103.595 123.465 146.224  0.00  0.00    +0.000 A 
ATOM      8  C   UNL     1     102.533 124.447 147.017  0.00  0.00    +0.000 A 
ATOM      9  C   UNL     1     105.023 124.813 147.291  0.00  0.00    +0.000 A 
ATOM     10  C   UNL     1     103.625 125.199 147.609  0.00  0.00    +0.000 A 
ATOM     11  C   UNL     1     102.252 123.841 146.534  0.00  0.00    +0.000 A 
ATOM     12  C   UNL     1     102.783 123.350 146.138  0.00  0.00    +0.000 A 
ATOM     13  C   UNL     1     104.470 125.325 147.703  0.00  0.00    +0.000 A 
ENDROOT
BRANCH   9  15
ATOM     14  O   UNL     1     108.274 125.267 147.630  0.00  0.00    +0.000 OA
ATOM     15  C   UNL     1     105.836 124.927 147.375  0.00  0.00    +0.000 A 
ATOM     16  C   UNL     1     106.258 125.341 146.800  0.00  0.00    +0.000 A 
ATOM     17  C   UNL     1     106.227 124.626 148.036  0.00  0.00    +0.000 A 
ATOM     18  C   UNL     1     107.069 125.454 146.885  0.00  0.00    +0.000 A 
ATOM     19  C   UNL     1     107.040 124.739 148.122  0.00  0.00    +0.000 A 
ATOM     20  C   UNL     1     107.461 125.153 147.546  0.00  0.00    +0.000 A 
ENDBRANCH   9  15
BRANCH   7  21
ATOM     21  O   UNL     1     104.126 122.974 145.827  0.00  0.00    +0.000 OA
ATOM     22  C   UNL     1     104.078 122.890 145.009  0.00  0.00    +0.000 C 
ENDBRANCH   7  21
BRANCH  11  23
ATOM     23  O   UNL     1     101.439 123.725 146.447  0.00  0.00    +0.000 OA
ATOM     24  C   UNL     1     101.042 123.200 146.944  0.00  0.00    +0.000 C 
ENDBRANCH  11  23
TORSDOF 3
ENDMDL
MODEL 2
REMARK VINA RESULT:      -8.0      1.313      4.254
REMARK  Name = 3083845
REMARK  3 active torsions:
REMARK  status: ('A' for Active; 'I' for Inactive)
REMARK    1  A    between atoms: O_2  and  C_10
REMARK    2  A    between atoms: O_3  and  C_14
REMARK    3  A    between atoms: C_12  and  C_17
REMARK                            x       y       z     vdW  Elec       q    Type
REMARK                         _______ _______ _______ _____ _____    ______ ____
ROOT
ATOM      1  O   UNL     1     104.194 124.435 145.965  0.00  0.00    +0.000 OA
ATOM      2  O   UNL     1     106.224 125.148 147.901  0.00  0.00    +0.000 OA
ATOM      3  O   UNL     1     106.684 125.612 145.119  0.00  0.00    +0.000 OA
ATOM      4  O   UNL     1     104.990 124.560 148.366  0.00  0.00    +0.000 OA
ATOM      5  C   UNL     1     105.223 124.796 146.944  0.00  0.00    +0.000 A 
ATOM      6  C   UNL     1     104.966 124.757 146.161  0.00  0.00    +0.000 A 
ATOM      7  C   UNL     1     105.453 125.029 145.552  0.00  0.00    +0.000 A 
ATOM      8  C   UNL     1     105.967 125.108 147.118  0.00  0.00    +0.000 A 
ATOM      9  C   UNL     1     103.682 124.150 146.594  0.00  0.00    +0.000 A 
ATOM     10  C   UNL     1     104.726 124.517 147.586  0.00  0.00    +0.000 A 
ATOM     11  C   UNL     1     106.454 125.380 146.511  0.00  0.00    +0.000 A 
ATOM     12  C   UNL     1     106.197 125.340 145.728  0.00  0.00    +0.000 A 
ATOM     13  C   UNL     1     103.950 124.191 147.410  0.00  0.00    +0.000 A 
ENDROOT
BRANCH   9  15
ATOM     14  O   UNL     1     100.711 122.904 145.883  0.00  0.00    +0.000 OA
ATOM     15  C   UNL     1     102.939 123.838 146.417  0.00  0.00    +0.000 A 
ATOM     16  C   UNL     1     102.259 124.278 146.573  0.00  0.00    +0.000 A 
ATOM     17  C   UNL     1     102.877 123.087 146.082  0.00  0.00    +0.000 A 
ATOM     18  C   UNL     1     101.517 123.967 146.395  0.00  0.00    +0.000 A 
ATOM     19  C   UNL     1     102.134 122.775 145.904  0.00  0.00    +0.000 A 
ATOM     20  C   UNL     1     101.454 123.215 146.061  0.00  0.00    +0.000 A 
ENDBRANCH   9  15
BRANCH   7  21
ATOM     21  O   UNL     1     105.197 124.989 144.769  0.00  0.00    +0.000 OA
ATOM     22  C   UNL     1     105.643 124.582 144.209  0.00  0.00    +0.000 C 
ENDBRANCH   7  21
BRANCH  11  23
ATOM     23  O   UNL     1     107.197 125.692 146.685  0.00  0.00    +0.000 OA
ATOM     24  C   UNL     1     107.275 126.487 146.885  0.00  0.00    +0.000 C 
ENDBRANCH  11  23
TORSDOF 3
ENDMDL
MODEL 3
REMARK VINA RESULT:      -8.0      1.098      4.548
REMARK  Name = 3083845
REMARK  3 active torsions:
REMARK  status: ('A' for Active; 'I' for Inactive)
REMARK    1  A    between atoms: O_2  and  C_10
REMARK    2  A    between atoms: O_3  and  C_14
REMARK    3  A    between atoms: C_12  and  C_17
REMARK                            x       y       z     vdW  Elec       q    Type
REMARK                         _______ _______ _______ _____ _____    ______ ____
ROOT
ATOM      1  O   UNL     1     104.685 124.311 147.297  0.00  0.00    +0.000 OA
ATOM      2  O   UNL     1     107.192 125.266 146.213  0.00  0.00    +0.000 OA
ATOM      3  O   UNL     1     106.817 125.148 149.043  0.00  0.00    +0.000 OA
ATOM      4  O   UNL     1     106.149 124.856 145.304  0.00  0.00    +0.000 OA
ATOM      5  C   UNL     1     105.955 124.794 146.750  0.00  0.00    +0.000 A 
ATOM      6  C   UNL     1     105.480 124.618 147.401  0.00  0.00    +0.000 A 
ATOM      7  C   UNL     1     105.768 124.735 148.166  0.00  0.00    +0.000 A 
ATOM      8  C   UNL     1     106.717 125.089 146.864  0.00  0.00    +0.000 A 
ATOM      9  C   UNL     1     104.379 124.186 146.503  0.00  0.00    +0.000 A 
ATOM     10  C   UNL     1     105.667 124.676 145.949  0.00  0.00    +0.000 A 
ATOM     11  C   UNL     1     107.005 125.207 147.627  0.00  0.00    +0.000 A 
ATOM     12  C   UNL     1     106.530 125.030 148.278  0.00  0.00    +0.000 A 
ATOM     13  C   UNL     1     104.874 124.370 145.825  0.00  0.00    +0.000 A 
ENDROOT
BRANCH   9  15
ATOM     14  O   UNL     1     101.330 123.006 146.061  0.00  0.00    +0.000 OA
ATOM     15  C   UNL     1     103.617 123.891 146.392  0.00  0.00    +0.000 A 
ATOM     16  C   UNL     1     102.963 124.355 146.585  0.00  0.00    +0.000 A 
ATOM     17  C   UNL     1     103.509 123.132 146.089  0.00  0.00    +0.000 A 
ATOM     18  C   UNL     1     102.201 124.060 146.475  0.00  0.00    +0.000 A 
ATOM     19  C   UNL     1     102.746 122.836 145.978  0.00  0.00    +0.000 A 
ATOM     20  C   UNL     1     102.092 123.301 146.171  0.00  0.00    +0.000 A 
ENDBRANCH   9  15
BRANCH   7  21
ATOM     21  O   UNL     1     105.293 124.559 148.817  0.00  0.00    +0.000 OA
ATOM     22  C   UNL     1     105.113 125.145 149.368  0.00  0.00    +0.000 C 
ENDBRANCH   7  21
BRANCH  11  23
ATOM     23  O   UNL     1     107.767 125.501 147.741  0.00  0.00    +0.000 OA
ATOM     24  C   UNL     1     108.389 124.985 147.904  0.00  0.00    +0.000 C 
ENDBRANCH  11  23
TORSDOF 3
ENDMDL
MODEL 4
REMARK VINA RESULT:      -7.9      2.955      3.742
REMARK  Name = 3083845
REMARK  3 active torsions:
REMARK  status: ('A' for Active; 'I' for Inactive)
REMARK    1  A    between atoms: O_2  and  C_10
REMARK    2  A    between atoms: O_3  and  C_14
REMARK    3  A    between atoms: C_12  and  C_17
REMARK                            x       y       z     vdW  Elec       q    Type
REMARK                         _______ _______ _______ _____ _____    ______ ____
ROOT
ATOM      1  O   UNL     1     106.645 125.467 146.306  0.00  0.00    +0.000 OA
ATOM      2  O   UNL     1     105.999 127.989 145.042  0.00  0.00    +0.000 OA
ATOM      3  O   UNL     1     105.585 125.540 143.628  0.00  0.00    +0.000 OA
ATOM      4  O   UNL     1     106.528 127.995 146.385  0.00  0.00    +0.000 OA
ATOM      5  C   UNL     1     106.317 126.743 145.664  0.00  0.00    +0.000 A 
ATOM      6  C   UNL     1     106.354 125.919 145.636  0.00  0.00    +0.000 A 
ATOM      7  C   UNL     1     106.110 125.518 144.957  0.00  0.00    +0.000 A 
ATOM      8  C   UNL     1     106.036 127.165 145.013  0.00  0.00    +0.000 A 
ATOM      9  C   UNL     1     106.901 125.879 147.016  0.00  0.00    +0.000 A 
ATOM     10  C   UNL     1     106.568 127.171 146.365  0.00  0.00    +0.000 A 
ATOM     11  C   UNL     1     105.792 126.765 144.335  0.00  0.00    +0.000 A 
ATOM     12  C   UNL     1     105.829 125.941 144.307  0.00  0.00    +0.000 A 
ATOM     13  C   UNL     1     106.862 126.737 147.046  0.00  0.00    +0.000 A 
ENDROOT
BRANCH   9  15
ATOM     14  O   UNL     1     108.022 124.177 149.611  0.00  0.00    +0.000 OA
ATOM     15  C   UNL     1     107.181 125.453 147.665  0.00  0.00    +0.000 A 
ATOM     16  C   UNL     1     107.978 125.247 147.710  0.00  0.00    +0.000 A 
ATOM     17  C   UNL     1     106.664 125.235 148.269  0.00  0.00    +0.000 A 
ATOM     18  C   UNL     1     108.258 124.822 148.358  0.00  0.00    +0.000 A 
ATOM     19  C   UNL     1     106.944 124.809 148.918  0.00  0.00    +0.000 A 
ATOM     20  C   UNL     1     107.741 124.603 148.963  0.00  0.00    +0.000 A 
ENDBRANCH   9  15
BRANCH   7  21
ATOM     21  O   UNL     1     106.147 124.694 144.928  0.00  0.00    +0.000 OA
ATOM     22  C   UNL     1     105.459 124.254 144.813  0.00  0.00    +0.000 C 
ENDBRANCH   7  21
BRANCH  11  23
ATOM     23  O   UNL     1     105.511 127.187 143.685  0.00  0.00    +0.000 OA
ATOM     24  C   UNL     1     106.022 127.386 143.069  0.00  0.00    +0.000 C 
ENDBRANCH  11  23
TORSDOF 3
ENDMDL
MODEL 5
REMARK VINA RESULT:      -7.9     11.368     12.759
REMARK  Name = 3083845
REMARK  3 active torsions:
REMARK  status: ('A' for Active; 'I' for Inactive)
REMARK    1  A    between atoms: O_2  and  C_10
REMARK    2  A    between atoms: O_3  and  C_14
REMARK    3  A    between atoms: C_12  and  C_17
REMARK                            x       y       z     vdW  Elec       q    Type
REMARK                         _______ _______ _______ _____ _____    ______ ____
ROOT
ATOM      1  O   UNL     1     111.585 126.118 137.043  0.00  0.00    +0.000 OA
ATOM      2  O   UNL     1     109.333 126.199 135.227  0.00  0.00    +0.000 OA
ATOM      3  O   UNL     1     109.284 127.751 137.626  0.00  0.00    +0.000 OA
ATOM      4  O   UNL     1     110.466 125.368 134.898  0.00  0.00    +0.000 OA
ATOM      5  C   UNL     1     110.444 126.160 136.125  0.00  0.00    +0.000 A 
ATOM      6  C   UNL     1     110.806 126.406 136.824  0.00  0.00    +0.000 A 
ATOM      7  C   UNL     1     110.419 126.937 137.325  0.00  0.00    +0.000 A 
ATOM      8  C   UNL     1     109.695 126.445 135.926  0.00  0.00    +0.000 A 
ATOM      9  C   UNL     1     111.993 125.565 136.525  0.00  0.00    +0.000 A 
ATOM     10  C   UNL     1     110.835 125.609 135.596  0.00  0.00    +0.000 A 
ATOM     11  C   UNL     1     109.309 126.975 136.426  0.00  0.00    +0.000 A 
ATOM     12  C   UNL     1     109.671 127.221 137.126  0.00  0.00    +0.000 A 
ATOM     13  C   UNL     1     111.615 125.309 135.797  0.00  0.00    +0.000 A 
ENDROOT
BRANCH   9  15
ATOM     14  O   UNL     1     114.986 124.435 137.331  0.00  0.00    +0.000 OA
ATOM     15  C   UNL     1     112.741 125.282 136.727  0.00  0.00    +0.000 A 
ATOM     16  C   UNL     1     112.823 124.532 137.059  0.00  0.00    +0.000 A 
ATOM     17  C   UNL     1     113.407 125.751 136.596  0.00  0.00    +0.000 A 
ATOM     18  C   UNL     1     113.571 124.250 137.260  0.00  0.00    +0.000 A 
ATOM     19  C   UNL     1     114.156 125.469 136.797  0.00  0.00    +0.000 A 
ATOM     20  C   UNL     1     114.238 124.718 137.129  0.00  0.00    +0.000 A 
ENDBRANCH   9  15
BRANCH   7  21
ATOM     21  O   UNL     1     110.781 127.183 138.024  0.00  0.00    +0.000 OA
ATOM     22  C   UNL     1     110.431 127.013 138.751  0.00  0.00    +0.000 C 
ENDBRANCH   7  21
BRANCH  11  23
ATOM     23  O   UNL     1     108.560 127.260 136.228  0.00  0.00    +0.000 OA
ATOM     24  C   UNL     1     108.485 127.965 135.808  0.00  0.00    +0.000 C 
ENDBRANCH  11  23
TORSDOF 3
ENDMDL
MODEL 6
REMARK VINA RESULT:      -7.8     12.081     13.166
REMARK  Name = 3083845
REMARK  3 active torsions:
REMARK  status: ('A' for Active; 'I' for Inactive)
REMARK    1  A    between atoms: O_2  and  C_10
REMARK    2  A    between atoms: O_3  and  C_14
REMARK    3  A    between atoms: C_12  and  C_17
REMARK                            x       y       z     vdW  Elec       q    Type
REMARK                         _______ _______ _______ _____ _____    ______ ____
ROOT
ATOM      1  O   UNL     1     110.566 127.285 135.933  0.00  0.00    +0.000 OA
ATOM      2  O   UNL     1     107.992 128.592 135.743  0.00  0.00    +0.000 OA
ATOM      3  O   UNL     1     110.382 130.074 135.235  0.00  0.00    +0.000 OA
ATOM      4  O   UNL     1     108.041 127.194 136.095  0.00  0.00    +0.000 OA
ATOM      5  C   UNL     1     109.264 127.949 135.836  0.00  0.00    +0.000 A 
ATOM      6  C   UNL     1     110.087 127.981 135.783  0.00  0.00    +0.000 A 
ATOM      7  C   UNL     1     110.460 128.690 135.582  0.00  0.00    +0.000 A 
ATOM      8  C   UNL     1     108.815 128.625 135.690  0.00  0.00    +0.000 A 
ATOM      9  C   UNL     1     110.184 126.544 136.142  0.00  0.00    +0.000 A 
ATOM     10  C   UNL     1     108.864 127.217 136.044  0.00  0.00    +0.000 A 
ATOM     11  C   UNL     1     109.187 129.333 135.489  0.00  0.00    +0.000 A 
ATOM     12  C   UNL     1     110.009 129.365 135.436  0.00  0.00    +0.000 A 
ATOM     13  C   UNL     1     109.328 126.510 136.198  0.00  0.00    +0.000 A 
ENDROOT
BRANCH   9  15
ATOM     14  O   UNL     1     111.994 123.848 136.728  0.00  0.00    +0.000 OA
ATOM     15  C   UNL     1     110.637 125.869 136.288  0.00  0.00    +0.000 A 
ATOM     16  C   UNL     1     110.842 125.367 135.668  0.00  0.00    +0.000 A 
ATOM     17  C   UNL     1     110.883 125.698 137.057  0.00  0.00    +0.000 A 
ATOM     18  C   UNL     1     111.294 124.694 135.814  0.00  0.00    +0.000 A 
ATOM     19  C   UNL     1     111.336 125.024 137.204  0.00  0.00    +0.000 A 
ATOM     20  C   UNL     1     111.541 124.522 136.582  0.00  0.00    +0.000 A 
ENDBRANCH   9  15
BRANCH   7  21
ATOM     21  O   UNL     1     111.282 128.723 135.529  0.00  0.00    +0.000 OA
ATOM     22  C   UNL     1     111.641 128.928 134.816  0.00  0.00    +0.000 C 
ENDBRANCH   7  21
BRANCH  11  23
ATOM     23  O   UNL     1     108.737 130.009 135.343  0.00  0.00    +0.000 OA
ATOM     24  C   UNL     1     108.562 130.530 135.957  0.00  0.00    +0.000 C 
ENDBRANCH  11  23
TORSDOF 3
ENDMDL
MODEL 7
REMARK VINA RESULT:      -7.8      8.001      8.728
REMARK  Name = 3083845
REMARK  3 active torsions:
REMARK  status: ('A' for Active; 'I' for Inactive)
REMARK    1  A    between atoms: O_2  and  C_10
REMARK    2  A    between atoms: O_3  and  C_14
REMARK    3  A    between atoms: C_12  and  C_17
REMARK                            x       y       z     vdW  Elec       q    Type
REMARK                         _______ _______ _______ _____ _____    ______ ____
ROOT
ATOM      1  O   UNL     1     102.664 130.693 141.512  0.00  0.00    +0.000 OA
ATOM      2  O   UNL     1     104.251 128.969 143.209  0.00  0.00    +0.000 OA
ATOM      3  O   UNL     1     103.845 128.283 140.465  0.00  0.00    +0.000 OA
ATOM      4  O   UNL     1     103.676 130.168 143.772  0.00  0.00    +0.000 OA
ATOM      5  C   UNL     1     103.468 129.819 142.369  0.00  0.00    +0.000 A 
ATOM      6  C   UNL     1     103.139 129.988 141.632  0.00  0.00    +0.000 A 
ATOM      7  C   UNL     1     103.265 129.476 140.996  0.00  0.00    +0.000 A 
ATOM      8  C   UNL     1     103.922 129.138 142.472  0.00  0.00    +0.000 A 
ATOM      9  C   UNL     1     102.529 131.231 142.169  0.00  0.00    +0.000 A 
ATOM     10  C   UNL     1     103.344 130.344 143.038  0.00  0.00    +0.000 A 
ATOM     11  C   UNL     1     104.048 128.626 141.838  0.00  0.00    +0.000 A 
ATOM     12  C   UNL     1     103.719 128.795 141.100  0.00  0.00    +0.000 A 
ATOM     13  C   UNL     1     102.871 131.055 142.937  0.00  0.00    +0.000 A 
ENDROOT
BRANCH   9  15
ATOM     14  O   UNL     1     100.710 133.951 141.746  0.00  0.00    +0.000 OA
ATOM     15  C   UNL     1     102.074 131.911 142.063  0.00  0.00    +0.000 A 
ATOM     16  C   UNL     1     101.265 131.896 142.225  0.00  0.00    +0.000 A 
ATOM     17  C   UNL     1     102.429 132.606 141.795  0.00  0.00    +0.000 A 
ATOM     18  C   UNL     1     100.811 132.576 142.119  0.00  0.00    +0.000 A 
ATOM     19  C   UNL     1     101.974 133.287 141.689  0.00  0.00    +0.000 A 
ATOM     20  C   UNL     1     101.165 133.271 141.852  0.00  0.00    +0.000 A 
ENDBRANCH   9  15
BRANCH   7  21
ATOM     21  O   UNL     1     102.936 129.645 140.259  0.00  0.00    +0.000 OA
ATOM     22  C   UNL     1     102.421 129.107 139.904  0.00  0.00    +0.000 C 
ENDBRANCH   7  21
BRANCH  11  23
ATOM     23  O   UNL     1     104.503 127.945 141.940  0.00  0.00    +0.000 OA
ATOM     24  C   UNL     1     105.317 127.970 141.817  0.00  0.00    +0.000 C 
ENDBRANCH  11  23
TORSDOF 3
ENDMDL
MODEL 8
REMARK VINA RESULT:      -7.8      7.719      8.635
REMARK  Name = 3083845
REMARK  3 active torsions:
REMARK  status: ('A' for Active; 'I' for Inactive)
REMARK    1  A    between atoms: O_2  and  C_10
REMARK    2  A    between atoms: O_3  and  C_14
REMARK    3  A    between atoms: C_12  and  C_17
REMARK                            x       y       z     vdW  Elec       q    Type
REMARK                         _______ _______ _______ _____ _____    ______ ____
ROOT
ATOM      1  O   UNL     1     102.991 130.473 142.302  0.00  0.00    +0.000 OA
ATOM      2  O   UNL     1     103.907 128.249 140.694  0.00  0.00    +0.000 OA
ATOM      3  O   UNL     1     104.818 128.529 143.388  0.00  0.00    +0.000 OA
ATOM      4  O   UNL     1     102.992 129.201 140.112  0.00  0.00    +0.000 OA
ATOM      5  C   UNL     1     103.456 129.346 141.489  0.00  0.00    +0.000 A 
ATOM      6  C   UNL     1     103.457 129.759 142.204  0.00  0.00    +0.000 A 
ATOM      7  C   UNL     1     103.912 129.486 142.837  0.00  0.00    +0.000 A 
ATOM      8  C   UNL     1     103.909 128.661 141.408  0.00  0.00    +0.000 A 
ATOM      9  C   UNL     1     102.515 130.762 141.646  0.00  0.00    +0.000 A 
ATOM     10  C   UNL     1     102.988 129.620 140.823  0.00  0.00    +0.000 A 
ATOM     11  C   UNL     1     104.362 128.389 142.040  0.00  0.00    +0.000 A 
ATOM     12  C   UNL     1     104.364 128.801 142.755  0.00  0.00    +0.000 A 
ATOM     13  C   UNL     1     102.514 130.333 140.902  0.00  0.00    +0.000 A 
ENDROOT
BRANCH   9  15
ATOM     14  O   UNL     1     100.710 133.503 141.984  0.00  0.00    +0.000 OA
ATOM     15  C   UNL     1     102.064 131.447 141.731  0.00  0.00    +0.000 A 
ATOM     16  C   UNL     1     101.287 131.399 142.003  0.00  0.00    +0.000 A 
ATOM     17  C   UNL     1     102.390 132.181 141.543  0.00  0.00    +0.000 A 
ATOM     18  C   UNL     1     100.836 132.084 142.087  0.00  0.00    +0.000 A 
ATOM     19  C   UNL     1     101.939 132.867 141.627  0.00  0.00    +0.000 A 
ATOM     20  C   UNL     1     101.162 132.818 141.899  0.00  0.00    +0.000 A 
ENDBRANCH   9  15
BRANCH   7  21
ATOM     21  O   UNL     1     103.913 129.899 143.552  0.00  0.00    +0.000 OA
ATOM     22  C   UNL     1     104.616 130.215 143.843  0.00  0.00    +0.000 C 
ENDBRANCH   7  21
BRANCH  11  23
ATOM     23  O   UNL     1     104.815 127.704 141.959  0.00  0.00    +0.000 OA
ATOM     24  C   UNL     1     105.616 127.758 141.770  0.00  0.00    +0.000 C 
ENDBRANCH  11  23
TORSDOF 3
ENDMDL
MODEL 9
REMARK VINA RESULT:      -7.7     10.105     12.317
REMARK  Name = 3083845
REMARK  3 active torsions:
REMARK  status: ('A' for Active; 'I' for Inactive)
REMARK    1  A    between atoms: O_2  and  C_10
REMARK    2  A    between atoms: O_3  and  C_14
REMARK    3  A    between atoms: C_12  and  C_17
REMARK                            x       y       z     vdW  Elec       q    Type
REMARK                         _______ _______ _______ _____ _____    ______ ____
ROOT
ATOM      1  O   UNL     1     113.563 126.434 138.978  0.00  0.00    +0.000 OA
ATOM      2  O   UNL     1     110.975 126.264 140.261  0.00  0.00    +0.000 OA
ATOM      3  O   UNL     1     113.110 127.667 141.542  0.00  0.00    +0.000 OA
ATOM      4  O   UNL     1     111.161 125.633 138.977  0.00  0.00    +0.000 OA
ATOM      5  C   UNL     1     112.253 126.349 139.629  0.00  0.00    +0.000 A 
ATOM      6  C   UNL     1     113.036 126.611 139.632  0.00  0.00    +0.000 A 
ATOM      7  C   UNL     1     113.321 127.051 140.270  0.00  0.00    +0.000 A 
ATOM      8  C   UNL     1     111.757 126.526 140.264  0.00  0.00    +0.000 A 
ATOM      9  C   UNL     1     113.271 125.977 138.310  0.00  0.00    +0.000 A 
ATOM     10  C   UNL     1     111.944 125.891 138.972  0.00  0.00    +0.000 A 
ATOM     11  C   UNL     1     112.042 126.965 140.901  0.00  0.00    +0.000 A 
ATOM     12  C   UNL     1     112.824 127.227 140.904  0.00  0.00    +0.000 A 
ATOM     13  C   UNL     1     112.457 125.703 138.307  0.00  0.00    +0.000 A 
ENDROOT
BRANCH   9  15
ATOM     14  O   UNL     1     115.268 125.274 135.779  0.00  0.00    +0.000 OA
ATOM     15  C   UNL     1     113.770 125.801 137.677  0.00  0.00    +0.000 A 
ATOM     16  C   UNL     1     113.794 126.298 137.020  0.00  0.00    +0.000 A 
ATOM     17  C   UNL     1     114.246 125.128 137.703  0.00  0.00    +0.000 A 
ATOM     18  C   UNL     1     114.292 126.123 136.387  0.00  0.00    +0.000 A 
ATOM     19  C   UNL     1     114.746 124.952 137.069  0.00  0.00    +0.000 A 
ATOM     20  C   UNL     1     114.769 125.450 136.412  0.00  0.00    +0.000 A 
ENDBRANCH   9  15
BRANCH   7  21
ATOM     21  O   UNL     1     114.104 127.313 140.273  0.00  0.00    +0.000 OA
ATOM     22  C   UNL     1     114.613 127.082 140.879  0.00  0.00    +0.000 C 
ENDBRANCH   7  21
BRANCH  11  23
ATOM     23  O   UNL     1     111.546 127.142 141.536  0.00  0.00    +0.000 OA
ATOM     24  C   UNL     1     111.129 127.853 141.549  0.00  0.00    +0.000 C 
ENDBRANCH  11  23
TORSDOF 3
ENDMDL
MODEL 10
REMARK VINA RESULT:      -7.7     12.731     13.982
REMARK  Name = 3083845
REMARK  3 active torsions:
REMARK  status: ('A' for Active; 'I' for Inactive)
REMARK    1  A    between atoms: O_2  and  C_10
REMARK    2  A    between atoms: O_3  and  C_14
REMARK    3  A    between atoms: C_12  and  C_17
REMARK                            x       y       z     vdW  Elec       q    Type
REMARK                         _______ _______ _______ _____ _____    ______ ____
ROOT
ATOM      1  O   UNL     1     112.645 126.859 136.306  0.00  0.00    +0.000 OA
ATOM      2  O   UNL     1     113.718 124.236 136.888  0.00  0.00    +0.000 OA
ATOM      3  O   UNL     1     110.990 124.511 136.083  0.00  0.00    +0.000 OA
ATOM      4  O   UNL     1     114.580 125.387 137.012  0.00  0.00    +0.000 OA
ATOM      5  C   UNL     1     113.186 125.530 136.600  0.00  0.00    +0.000 A 
ATOM      6  C   UNL     1     112.554 126.008 136.370  0.00  0.00    +0.000 A 
ATOM      7  C   UNL     1     111.821 125.668 136.198  0.00  0.00    +0.000 A 
ATOM      8  C   UNL     1     113.086 124.713 136.658  0.00  0.00    +0.000 A 
ATOM      9  C   UNL     1     113.405 127.219 136.484  0.00  0.00    +0.000 A 
ATOM     10  C   UNL     1     113.953 125.872 136.782  0.00  0.00    +0.000 A 
ATOM     11  C   UNL     1     112.355 124.374 136.486  0.00  0.00    +0.000 A 
ATOM     12  C   UNL     1     111.722 124.851 136.256  0.00  0.00    +0.000 A 
ATOM     13  C   UNL     1     114.063 126.722 136.724  0.00  0.00    +0.000 A 
ENDROOT
BRANCH   9  15
ATOM     14  O   UNL     1     113.791 130.488 136.251  0.00  0.00    +0.000 OA
ATOM     15  C   UNL     1     113.502 128.037 136.426  0.00  0.00    +0.000 A 
ATOM     16  C   UNL     1     113.832 128.366 135.746  0.00  0.00    +0.000 A 
ATOM     17  C   UNL     1     113.267 128.525 137.048  0.00  0.00    +0.000 A 
ATOM     18  C   UNL     1     113.929 129.182 135.687  0.00  0.00    +0.000 A 
ATOM     19  C   UNL     1     113.364 129.342 136.990  0.00  0.00    +0.000 A 
ATOM     20  C   UNL     1     113.695 129.671 136.310  0.00  0.00    +0.000 A 
ENDBRANCH   9  15
BRANCH   7  21
ATOM     21  O   UNL     1     111.189 126.145 135.967  0.00  0.00    +0.000 OA
ATOM     22  C   UNL     1     110.834 126.032 135.232  0.00  0.00    +0.000 C 
ENDBRANCH   7  21
BRANCH  11  23
ATOM     23  O   UNL     1     112.255 123.557 136.543  0.00  0.00    +0.000 OA
ATOM     24  C   UNL     1     111.960 123.225 137.238  0.00  0.00    +0.000 C 
ENDBRANCH  11  23
TORSDOF 3
ENDMDL
