MODEL 1
REMARK VINA RESULT:     -12.4      0.000      0.000
REMARK  Name = 
REMARK  12 active torsions:
REMARK  status: ('A' for Active; 'I' for Inactive)
REMARK    1  A    between atoms: C_8  and  O_19
REMARK    2  A    between atoms: C_9  and  C_12
REMARK    3  A    between atoms: O_19  and  C_29
REMARK    4  A    between atoms: C_22  and  O_38
REMARK    5  A    between atoms: C_23  and  O_39
REMARK    6  A    between atoms: C_25  and  O_37
REMARK    7  A    between atoms: C_31  and  C_36
REMARK    8  A    between atoms: C_36  and  O_37
REMARK    9  A    between atoms: O_38  and  C_52
REMARK   10  A    between atoms: O_39  and  C_46
REMARK   11  A    between atoms: C_52  and  C_54
REMARK   12  A    between atoms: C_55  and  C_56
REMARK                            x       y       z     vdW  Elec       q    Type
REMARK                         _______ _______ _______ _____ _____    ______ ____
ROOT
ATOM      1  O   UNL     1     113.759 128.966 140.075  0.00  0.00    +0.000 OA
ENDROOT
BRANCH   1   6
ATOM      2  C   UNL     1     113.407 128.594 137.902  0.00  0.00    +0.000 C 
ATOM      3  C   UNL     1     113.098 127.858 137.213  0.00  0.00    +0.000 C 
ATOM      4  C   UNL     1     113.227 127.911 138.258  0.00  0.00    +0.000 C 
ATOM      5  C   UNL     1     113.173 127.424 139.200  0.00  0.00    +0.000 C 
ATOM      6  C   UNL     1     113.482 128.161 139.889  0.00  0.00    +0.000 C 
ATOM      7  O   UNL     1     113.353 128.108 138.843  0.00  0.00    +0.000 OA
ATOM      8  C   UNL     1     113.359 128.757 136.972  0.00  0.00    +0.000 C 
ATOM      9  O   UNL     1     112.916 126.651 139.097  0.00  0.00    +0.000 OA
BRANCH   3  10
ATOM     10  O   UNL     1     113.229 128.552 136.377  0.00  0.00    +0.000 OA
BRANCH  10  11
ATOM     11  C   UNL     1     112.390 128.998 135.949  0.00  0.00    +0.000 C 
ATOM     12  O   UNL     1     112.716 129.051 135.075  0.00  0.00    +0.000 OA
BRANCH  11  13
ATOM     13  C   UNL     1     111.474 129.355 136.072  0.00  0.00    +0.000 C 
ATOM     14  C   UNL     1     110.881 129.382 135.347  0.00  0.00    +0.000 C 
BRANCH  14  15
ATOM     15  C   UNL     1     110.116 129.681 135.449  0.00  0.00    +0.000 A 
ATOM     16  C   UNL     1     109.860 130.510 135.024  0.00  0.00    +0.000 A 
ATOM     17  C   UNL     1     108.967 130.859 135.143  0.00  0.00    +0.000 A 
ATOM     18  C   UNL     1     108.330 130.378 135.687  0.00  0.00    +0.000 A 
ATOM     19  C   UNL     1     108.586 129.550 136.112  0.00  0.00    +0.000 A 
ATOM     20  C   UNL     1     109.479 129.201 135.993  0.00  0.00    +0.000 A 
ATOM     21  O   UNL     1     107.439 130.726 135.806  0.00  0.00    +0.000 OA
ENDBRANCH  14  15
ENDBRANCH  11  13
ENDBRANCH  10  11
ENDBRANCH   3  10
BRANCH   4  22
ATOM     22  O   UNL     1     112.934 127.293 137.365  0.00  0.00    +0.000 OA
BRANCH  22  27
ATOM     23  C   UNL     1     111.469 125.990 136.587  0.00  0.00    +0.000 C 
ATOM     24  C   UNL     1     111.209 125.074 136.133  0.00  0.00    +0.000 C 
ATOM     25  C   UNL     1     112.102 125.535 136.453  0.00  0.00    +0.000 C 
ATOM     26  C   UNL     1     113.156 125.483 136.556  0.00  0.00    +0.000 C 
ATOM     27  C   UNL     1     113.416 126.400 137.011  0.00  0.00    +0.000 C 
ATOM     28  O   UNL     1     112.524 125.939 136.690  0.00  0.00    +0.000 OA
ATOM     29  C   UNL     1     110.550 125.687 136.336  0.00  0.00    +0.000 C 
ATOM     30  O   UNL     1     110.512 125.081 136.052  0.00  0.00    +0.000 OA
ATOM     31  O   UNL     1     111.666 124.674 136.003  0.00  0.00    +0.000 OA
ATOM     32  O   UNL     1     113.395 124.695 136.221  0.00  0.00    +0.000 OA
ENDBRANCH  22  27
ENDBRANCH   4  22
ENDBRANCH   1   6
BRANCH   1  33
ATOM     33  C   UNL     1     114.078 129.615 140.391  0.00  0.00    +0.000 C 
BRANCH  33  37
ATOM     34  C   UNL     1     112.830 130.920 142.090  0.00  0.00    +0.000 C 
ATOM     35  C   UNL     1     111.970 130.322 142.224  0.00  0.00    +0.000 C 
ATOM     36  O   UNL     1     112.844 130.273 141.633  0.00  0.00    +0.000 OA
ATOM     37  C   UNL     1     113.414 129.750 140.908  0.00  0.00    +0.000 C 
ATOM     38  C   UNL     1     114.273 130.348 140.774  0.00  0.00    +0.000 C 
ATOM     39  C   UNL     1     113.399 130.396 141.365  0.00  0.00    +0.000 C 
ATOM     40  O   UNL     1     112.112 131.087 142.663  0.00  0.00    +0.000 OA
ATOM     41  O   UNL     1     114.232 130.859 141.154  0.00  0.00    +0.000 OA
ATOM     42  O   UNL     1     114.844 129.885 140.090  0.00  0.00    +0.000 OA
BRANCH  35  43
ATOM     43  O   UNL     1     111.459 130.863 142.924  0.00  0.00    +0.000 OA
BRANCH  43  51
ATOM     44  C   UNL     1     109.501 133.002 146.620  0.00  0.00    +0.000 A 
ATOM     45  C   UNL     1     110.481 133.238 146.587  0.00  0.00    +0.000 A 
ATOM     46  C   UNL     1     111.066 132.865 145.854  0.00  0.00    +0.000 A 
ATOM     47  C   UNL     1     110.670 132.257 145.153  0.00  0.00    +0.000 A 
ATOM     48  C   UNL     1     109.690 132.021 145.185  0.00  0.00    +0.000 A 
ATOM     49  C   UNL     1     109.104 132.393 145.919  0.00  0.00    +0.000 A 
ATOM     50  C   UNL     1     111.255 131.884 144.420  0.00  0.00    +0.000 A 
ATOM     51  C   UNL     1     110.859 131.276 143.719  0.00  0.00    +0.000 A 
ATOM     52  C   UNL     1     109.879 131.040 143.751  0.00  0.00    +0.000 A 
ATOM     53  O   UNL     1     109.293 131.412 144.484  0.00  0.00    +0.000 OA
ATOM     54  O   UNL     1     112.020 132.068 144.395  0.00  0.00    +0.000 OA
ATOM     55  O   UNL     1     108.915 133.374 147.353  0.00  0.00    +0.000 OA
ATOM     56  O   UNL     1     112.047 133.101 145.822  0.00  0.00    +0.000 OA
BRANCH  52  57
ATOM     57  C   UNL     1     109.482 130.431 143.050  0.00  0.00    +0.000 A 
ATOM     58  C   UNL     1     109.468 129.414 143.201  0.00  0.00    +0.000 A 
ATOM     59  C   UNL     1     109.065 128.793 142.487  0.00  0.00    +0.000 A 
ATOM     60  C   UNL     1     108.675 129.190 141.621  0.00  0.00    +0.000 A 
ATOM     61  C   UNL     1     108.689 130.207 141.470  0.00  0.00    +0.000 A 
ATOM     62  C   UNL     1     109.093 130.828 142.184  0.00  0.00    +0.000 A 
ATOM     63  O   UNL     1     108.224 128.496 140.823  0.00  0.00    +0.000 OA
ENDBRANCH  52  57
ENDBRANCH  43  51
ENDBRANCH  35  43
ENDBRANCH  33  37
ENDBRANCH   1  33
TORSDOF 12
ENDMDL
MODEL 2
REMARK VINA RESULT:     -12.2      2.790      7.001
REMARK  Name = 
REMARK  12 active torsions:
REMARK  status: ('A' for Active; 'I' for Inactive)
REMARK    1  A    between atoms: C_8  and  O_19
REMARK    2  A    between atoms: C_9  and  C_12
REMARK    3  A    between atoms: O_19  and  C_29
REMARK    4  A    between atoms: C_22  and  O_38
REMARK    5  A    between atoms: C_23  and  O_39
REMARK    6  A    between atoms: C_25  and  O_37
REMARK    7  A    between atoms: C_31  and  C_36
REMARK    8  A    between atoms: C_36  and  O_37
REMARK    9  A    between atoms: O_38  and  C_52
REMARK   10  A    between atoms: O_39  and  C_46
REMARK   11  A    between atoms: C_52  and  C_54
REMARK   12  A    between atoms: C_55  and  C_56
REMARK                            x       y       z     vdW  Elec       q    Type
REMARK                         _______ _______ _______ _____ _____    ______ ____
ROOT
ATOM      1  O   UNL     1     107.630 129.838 141.780  0.00  0.00    +0.000 OA
ENDROOT
BRANCH   1   6
ATOM      2  C   UNL     1     108.174 127.673 141.760  0.00  0.00    +0.000 C 
ATOM      3  C   UNL     1     107.763 126.702 141.706  0.00  0.00    +0.000 C 
ATOM      4  C   UNL     1     107.384 127.686 141.706  0.00  0.00    +0.000 C 
ATOM      5  C   UNL     1     106.539 128.327 141.665  0.00  0.00    +0.000 C 
ATOM      6  C   UNL     1     106.949 129.298 141.719  0.00  0.00    +0.000 C 
ATOM      7  O   UNL     1     107.329 128.314 141.719  0.00  0.00    +0.000 OA
ATOM      8  C   UNL     1     108.709 126.894 141.776  0.00  0.00    +0.000 C 
ATOM      9  O   UNL     1     105.854 127.879 141.606  0.00  0.00    +0.000 OA
BRANCH   3  10
ATOM     10  O   UNL     1     108.761 126.254 141.763  0.00  0.00    +0.000 OA
BRANCH  10  11
ATOM     11  C   UNL     1     109.254 125.999 140.881  0.00  0.00    +0.000 C 
ATOM     12  O   UNL     1     109.519 125.141 141.137  0.00  0.00    +0.000 OA
BRANCH  11  13
ATOM     13  C   UNL     1     109.534 126.263 139.968  0.00  0.00    +0.000 C 
ATOM     14  C   UNL     1     110.402 126.074 139.671  0.00  0.00    +0.000 C 
BRANCH  14  15
ATOM     15  C   UNL     1     110.635 126.295 138.908  0.00  0.00    +0.000 A 
ATOM     16  C   UNL     1     111.534 126.615 138.752  0.00  0.00    +0.000 A 
ATOM     17  C   UNL     1     111.806 126.873 137.862  0.00  0.00    +0.000 A 
ATOM     18  C   UNL     1     111.181 126.810 137.128  0.00  0.00    +0.000 A 
ATOM     19  C   UNL     1     110.283 126.490 137.284  0.00  0.00    +0.000 A 
ATOM     20  C   UNL     1     110.011 126.232 138.175  0.00  0.00    +0.000 A 
ATOM     21  O   UNL     1     111.453 127.067 136.239  0.00  0.00    +0.000 OA
ENDBRANCH  14  15
ENDBRANCH  11  13
ENDBRANCH  10  11
ENDBRANCH   3  10
BRANCH   4  22
ATOM     22  O   UNL     1     107.170 126.583 141.662  0.00  0.00    +0.000 OA
BRANCH  22  27
ATOM     23  C   UNL     1     106.134 125.056 140.640  0.00  0.00    +0.000 C 
ATOM     24  C   UNL     1     105.484 124.225 140.654  0.00  0.00    +0.000 C 
ATOM     25  C   UNL     1     105.889 124.883 141.372  0.00  0.00    +0.000 C 
ATOM     26  C   UNL     1     105.962 125.173 142.390  0.00  0.00    +0.000 C 
ATOM     27  C   UNL     1     106.612 126.004 142.376  0.00  0.00    +0.000 C 
ATOM     28  O   UNL     1     106.207 125.346 141.658  0.00  0.00    +0.000 OA
ATOM     29  C   UNL     1     105.834 124.518 139.852  0.00  0.00    +0.000 C 
ATOM     30  O   UNL     1     105.418 124.011 139.989  0.00  0.00    +0.000 OA
ATOM     31  O   UNL     1     105.259 124.041 141.203  0.00  0.00    +0.000 OA
ATOM     32  O   UNL     1     105.449 124.603 142.842  0.00  0.00    +0.000 OA
ENDBRANCH  22  27
ENDBRANCH   4  22
ENDBRANCH   1   6
BRANCH   1  33
ATOM     33  C   UNL     1     108.120 130.450 141.879  0.00  0.00    +0.000 C 
BRANCH  33  37
ATOM     34  C   UNL     1     109.858 130.946 140.183  0.00  0.00    +0.000 C 
ATOM     35  C   UNL     1     109.657 130.210 139.455  0.00  0.00    +0.000 C 
ATOM     36  O   UNL     1     109.248 130.486 140.388  0.00  0.00    +0.000 OA
ATOM     37  C   UNL     1     108.522 130.311 141.141  0.00  0.00    +0.000 C 
ATOM     38  C   UNL     1     108.723 131.047 141.870  0.00  0.00    +0.000 C 
ATOM     39  C   UNL     1     109.132 130.772 140.936  0.00  0.00    +0.000 C 
ATOM     40  O   UNL     1     110.313 130.812 139.380  0.00  0.00    +0.000 OA
ATOM     41  O   UNL     1     109.218 131.401 141.677  0.00  0.00    +0.000 OA
ATOM     42  O   UNL     1     108.053 130.916 142.606  0.00  0.00    +0.000 OA
BRANCH  35  43
ATOM     43  O   UNL     1     110.375 130.418 138.759  0.00  0.00    +0.000 OA
BRANCH  43  51
ATOM     44  C   UNL     1     114.399 130.545 136.337  0.00  0.00    +0.000 A 
ATOM     45  C   UNL     1     114.609 130.385 137.311  0.00  0.00    +0.000 A 
ATOM     46  C   UNL     1     113.860 130.327 137.986  0.00  0.00    +0.000 A 
ATOM     47  C   UNL     1     112.902 130.430 137.686  0.00  0.00    +0.000 A 
ATOM     48  C   UNL     1     112.692 130.590 136.712  0.00  0.00    +0.000 A 
ATOM     49  C   UNL     1     113.441 130.648 136.037  0.00  0.00    +0.000 A 
ATOM     50  C   UNL     1     112.154 130.372 138.361  0.00  0.00    +0.000 A 
ATOM     51  C   UNL     1     111.195 130.475 138.061  0.00  0.00    +0.000 A 
ATOM     52  C   UNL     1     110.986 130.635 137.087  0.00  0.00    +0.000 A 
ATOM     53  O   UNL     1     111.734 130.693 136.412  0.00  0.00    +0.000 OA
ATOM     54  O   UNL     1     112.317 130.248 139.121  0.00  0.00    +0.000 OA
ATOM     55  O   UNL     1     115.147 130.602 135.662  0.00  0.00    +0.000 OA
ATOM     56  O   UNL     1     114.070 130.167 138.960  0.00  0.00    +0.000 OA
BRANCH  52  57
ATOM     57  C   UNL     1     110.027 130.738 136.787  0.00  0.00    +0.000 A 
ATOM     58  C   UNL     1     109.602 131.673 136.734  0.00  0.00    +0.000 A 
ATOM     59  C   UNL     1     108.626 131.778 136.428  0.00  0.00    +0.000 A 
ATOM     60  C   UNL     1     108.074 130.947 136.175  0.00  0.00    +0.000 A 
ATOM     61  C   UNL     1     108.499 130.012 136.228  0.00  0.00    +0.000 A 
ATOM     62  C   UNL     1     109.475 129.907 136.534  0.00  0.00    +0.000 A 
ATOM     63  O   UNL     1     106.982 131.065 135.834  0.00  0.00    +0.000 OA
ENDBRANCH  52  57
ENDBRANCH  43  51
ENDBRANCH  35  43
ENDBRANCH  33  37
ENDBRANCH   1  33
TORSDOF 12
ENDMDL
MODEL 3
REMARK VINA RESULT:     -12.0      6.183      9.838
REMARK  Name = 
REMARK  12 active torsions:
REMARK  status: ('A' for Active; 'I' for Inactive)
REMARK    1  A    between atoms: C_8  and  O_19
REMARK    2  A    between atoms: C_9  and  C_12
REMARK    3  A    between atoms: O_19  and  C_29
REMARK    4  A    between atoms: C_22  and  O_38
REMARK    5  A    between atoms: C_23  and  O_39
REMARK    6  A    between atoms: C_25  and  O_37
REMARK    7  A    between atoms: C_31  and  C_36
REMARK    8  A    between atoms: C_36  and  O_37
REMARK    9  A    between atoms: O_38  and  C_52
REMARK   10  A    between atoms: O_39  and  C_46
REMARK   11  A    between atoms: C_52  and  C_54
REMARK   12  A    between atoms: C_55  and  C_56
REMARK                            x       y       z     vdW  Elec       q    Type
REMARK                         _______ _______ _______ _____ _____    ______ ____
ROOT
ATOM      1  O   UNL     1     105.567 133.940 145.315  0.00  0.00    +0.000 OA
ENDROOT
BRANCH   1   6
ATOM      2  C   UNL     1     103.829 133.645 143.945  0.00  0.00    +0.000 C 
ATOM      3  C   UNL     1     103.488 133.836 142.965  0.00  0.00    +0.000 C 
ATOM      4  C   UNL     1     104.366 134.036 143.514  0.00  0.00    +0.000 C 
ATOM      5  C   UNL     1     105.338 134.461 143.537  0.00  0.00    +0.000 C 
ATOM      6  C   UNL     1     105.679 134.270 144.517  0.00  0.00    +0.000 C 
ATOM      7  O   UNL     1     104.801 134.070 143.968  0.00  0.00    +0.000 OA
ATOM      8  C   UNL     1     102.977 133.371 143.642  0.00  0.00    +0.000 C 
ATOM      9  O   UNL     1     105.512 134.794 142.807  0.00  0.00    +0.000 OA
BRANCH   3  10
ATOM     10  O   UNL     1     102.536 133.338 143.176  0.00  0.00    +0.000 OA
BRANCH  10  11
ATOM     11  C   UNL     1     102.362 132.388 142.784  0.00  0.00    +0.000 C 
ATOM     12  O   UNL     1     101.437 132.375 142.910  0.00  0.00    +0.000 OA
BRANCH  11  13
ATOM     13  C   UNL     1     102.735 131.568 142.371  0.00  0.00    +0.000 C 
ATOM     14  C   UNL     1     102.227 131.083 141.752  0.00  0.00    +0.000 C 
BRANCH  14  15
ATOM     15  C   UNL     1     102.539 130.397 141.408  0.00  0.00    +0.000 A 
ATOM     16  C   UNL     1     103.232 129.901 141.862  0.00  0.00    +0.000 A 
ATOM     17  C   UNL     1     103.596 129.101 141.459  0.00  0.00    +0.000 A 
ATOM     18  C   UNL     1     103.266 128.798 140.603  0.00  0.00    +0.000 A 
ATOM     19  C   UNL     1     102.572 129.294 140.150  0.00  0.00    +0.000 A 
ATOM     20  C   UNL     1     102.209 130.094 140.552  0.00  0.00    +0.000 A 
ATOM     21  O   UNL     1     103.628 128.000 140.202  0.00  0.00    +0.000 OA
ENDBRANCH  14  15
ENDBRANCH  11  13
ENDBRANCH  10  11
ENDBRANCH   3  10
BRANCH   4  22
ATOM     22  O   UNL     1     103.809 134.128 142.541  0.00  0.00    +0.000 OA
BRANCH  22  27
ATOM     23  C   UNL     1     104.010 133.897 140.454  0.00  0.00    +0.000 C 
ATOM     24  C   UNL     1     103.918 134.287 139.477  0.00  0.00    +0.000 C 
ATOM     25  C   UNL     1     103.734 134.639 140.456  0.00  0.00    +0.000 C 
ATOM     26  C   UNL     1     103.405 135.428 141.083  0.00  0.00    +0.000 C 
ATOM     27  C   UNL     1     103.497 135.037 142.059  0.00  0.00    +0.000 C 
ATOM     28  O   UNL     1     103.681 134.687 141.082  0.00  0.00    +0.000 OA
ATOM     29  C   UNL     1     104.231 133.428 139.599  0.00  0.00    +0.000 C 
ATOM     30  O   UNL     1     104.130 133.783 139.039  0.00  0.00    +0.000 OA
ATOM     31  O   UNL     1     103.706 134.868 139.416  0.00  0.00    +0.000 OA
ATOM     32  O   UNL     1     103.186 136.097 140.538  0.00  0.00    +0.000 OA
ENDBRANCH  22  27
ENDBRANCH   4  22
ENDBRANCH   1   6
BRANCH   1  33
ATOM     33  C   UNL     1     105.585 133.768 146.086  0.00  0.00    +0.000 C 
BRANCH  33  37
ATOM     34  C   UNL     1     106.193 131.483 146.830  0.00  0.00    +0.000 C 
ATOM     35  C   UNL     1     106.177 130.954 145.916  0.00  0.00    +0.000 C 
ATOM     36  O   UNL     1     106.002 131.950 146.220  0.00  0.00    +0.000 OA
ATOM     37  C   UNL     1     105.746 132.942 145.949  0.00  0.00    +0.000 C 
ATOM     38  C   UNL     1     105.762 133.471 146.862  0.00  0.00    +0.000 C 
ATOM     39  C   UNL     1     105.936 132.475 146.559  0.00  0.00    +0.000 C 
ATOM     40  O   UNL     1     106.373 130.576 146.702  0.00  0.00    +0.000 OA
ATOM     41  O   UNL     1     105.918 133.070 147.333  0.00  0.00    +0.000 OA
ATOM     42  O   UNL     1     105.523 134.423 146.649  0.00  0.00    +0.000 OA
BRANCH  35  43
ATOM     43  O   UNL     1     106.428 130.014 146.228  0.00  0.00    +0.000 OA
BRANCH  43  51
ATOM     44  C   UNL     1     106.510 125.519 147.592  0.00  0.00    +0.000 A 
ATOM     45  C   UNL     1     105.771 125.997 148.086  0.00  0.00    +0.000 A 
ATOM     46  C   UNL     1     105.604 126.978 147.918  0.00  0.00    +0.000 A 
ATOM     47  C   UNL     1     106.177 127.481 147.257  0.00  0.00    +0.000 A 
ATOM     48  C   UNL     1     106.916 127.003 146.763  0.00  0.00    +0.000 A 
ATOM     49  C   UNL     1     107.083 126.022 146.931  0.00  0.00    +0.000 A 
ATOM     50  C   UNL     1     106.010 128.462 147.089  0.00  0.00    +0.000 A 
ATOM     51  C   UNL     1     106.583 128.965 146.428  0.00  0.00    +0.000 A 
ATOM     52  C   UNL     1     107.322 128.488 145.934  0.00  0.00    +0.000 A 
ATOM     53  O   UNL     1     107.489 127.506 146.102  0.00  0.00    +0.000 OA
ATOM     54  O   UNL     1     105.433 128.835 147.474  0.00  0.00    +0.000 OA
ATOM     55  O   UNL     1     106.677 124.538 147.760  0.00  0.00    +0.000 OA
ATOM     56  O   UNL     1     104.865 127.456 148.412  0.00  0.00    +0.000 OA
BRANCH  52  57
ATOM     57  C   UNL     1     107.895 128.991 145.273  0.00  0.00    +0.000 A 
ATOM     58  C   UNL     1     108.781 129.414 145.577  0.00  0.00    +0.000 A 
ATOM     59  C   UNL     1     109.365 129.927 144.904  0.00  0.00    +0.000 A 
ATOM     60  C   UNL     1     109.063 130.016 143.924  0.00  0.00    +0.000 A 
ATOM     61  C   UNL     1     108.176 129.593 143.619  0.00  0.00    +0.000 A 
ATOM     62  C   UNL     1     107.592 129.080 144.293  0.00  0.00    +0.000 A 
ATOM     63  O   UNL     1     109.716 130.590 143.171  0.00  0.00    +0.000 OA
ENDBRANCH  52  57
ENDBRANCH  43  51
ENDBRANCH  35  43
ENDBRANCH  33  37
ENDBRANCH   1  33
TORSDOF 12
ENDMDL
MODEL 4
REMARK VINA RESULT:     -11.9      2.783      4.396
REMARK  Name = 
REMARK  12 active torsions:
REMARK  status: ('A' for Active; 'I' for Inactive)
REMARK    1  A    between atoms: C_8  and  O_19
REMARK    2  A    between atoms: C_9  and  C_12
REMARK    3  A    between atoms: O_19  and  C_29
REMARK    4  A    between atoms: C_22  and  O_38
REMARK    5  A    between atoms: C_23  and  O_39
REMARK    6  A    between atoms: C_25  and  O_37
REMARK    7  A    between atoms: C_31  and  C_36
REMARK    8  A    between atoms: C_36  and  O_37
REMARK    9  A    between atoms: O_38  and  C_52
REMARK   10  A    between atoms: O_39  and  C_46
REMARK   11  A    between atoms: C_52  and  C_54
REMARK   12  A    between atoms: C_55  and  C_56
REMARK                            x       y       z     vdW  Elec       q    Type
REMARK                         _______ _______ _______ _____ _____    ______ ____
ROOT
ATOM      1  O   UNL     1     111.019 127.918 141.823  0.00  0.00    +0.000 OA
ENDROOT
BRANCH   1   6
ATOM      2  C   UNL     1     112.215 128.337 139.984  0.00  0.00    +0.000 C 
ATOM      3  C   UNL     1     112.642 127.878 139.136  0.00  0.00    +0.000 C 
ATOM      4  C   UNL     1     112.077 127.557 139.966  0.00  0.00    +0.000 C 
ATOM      5  C   UNL     1     111.609 126.758 140.485  0.00  0.00    +0.000 C 
ATOM      6  C   UNL     1     111.182 127.216 141.333  0.00  0.00    +0.000 C 
ATOM      7  O   UNL     1     111.747 127.537 140.503  0.00  0.00    +0.000 OA
ATOM      8  C   UNL     1     112.701 128.823 139.336  0.00  0.00    +0.000 C 
ATOM      9  O   UNL     1     111.725 126.057 140.073  0.00  0.00    +0.000 OA
BRANCH   3  10
ATOM     10  O   UNL     1     113.036 128.839 138.789  0.00  0.00    +0.000 OA
BRANCH  10  11
ATOM     11  C   UNL     1     112.614 129.287 137.948  0.00  0.00    +0.000 C 
ATOM     12  O   UNL     1     113.408 129.600 137.568  0.00  0.00    +0.000 OA
BRANCH  11  13
ATOM     13  C   UNL     1     111.796 129.501 137.430  0.00  0.00    +0.000 C 
ATOM     14  C   UNL     1     111.868 129.835 136.559  0.00  0.00    +0.000 C 
BRANCH  14  15
ATOM     15  C   UNL     1     111.185 130.014 136.126  0.00  0.00    +0.000 A 
ATOM     16  C   UNL     1     110.640 130.772 136.376  0.00  0.00    +0.000 A 
ATOM     17  C   UNL     1     109.843 130.980 135.872  0.00  0.00    +0.000 A 
ATOM     18  C   UNL     1     109.591 130.431 135.118  0.00  0.00    +0.000 A 
ATOM     19  C   UNL     1     110.135 129.673 134.869  0.00  0.00    +0.000 A 
ATOM     20  C   UNL     1     110.933 129.465 135.373  0.00  0.00    +0.000 A 
ATOM     21  O   UNL     1     108.795 130.639 134.614  0.00  0.00    +0.000 OA
ENDBRANCH  14  15
ENDBRANCH  11  13
ENDBRANCH  10  11
ENDBRANCH   3  10
BRANCH   4  22
ATOM     22  O   UNL     1     112.604 127.285 139.011  0.00  0.00    +0.000 OA
BRANCH  22  27
ATOM     23  C   UNL     1     112.382 126.162 137.240  0.00  0.00    +0.000 C 
ATOM     24  C   UNL     1     112.744 125.433 136.568  0.00  0.00    +0.000 C 
ATOM     25  C   UNL     1     113.075 125.860 137.474  0.00  0.00    +0.000 C 
ATOM     26  C   UNL     1     113.815 125.904 138.233  0.00  0.00    +0.000 C 
ATOM     27  C   UNL     1     113.453 126.633 138.904  0.00  0.00    +0.000 C 
ATOM     28  O   UNL     1     113.122 126.206 137.999  0.00  0.00    +0.000 OA
ATOM     29  C   UNL     1     111.941 125.854 136.397  0.00  0.00    +0.000 C 
ATOM     30  O   UNL     1     112.271 125.383 136.053  0.00  0.00    +0.000 OA
ATOM     31  O   UNL     1     113.286 125.160 136.700  0.00  0.00    +0.000 OA
ATOM     32  O   UNL     1     114.438 125.314 137.999  0.00  0.00    +0.000 OA
ENDBRANCH  22  27
ENDBRANCH   4  22
ENDBRANCH   1   6
BRANCH   1  33
ATOM     33  C   UNL     1     110.830 128.431 142.393  0.00  0.00    +0.000 C 
BRANCH  33  37
ATOM     34  C   UNL     1     108.474 129.129 142.718  0.00  0.00    +0.000 C 
ATOM     35  C   UNL     1     107.984 128.567 141.971  0.00  0.00    +0.000 C 
ATOM     36  O   UNL     1     108.979 128.681 142.305  0.00  0.00    +0.000 OA
ATOM     37  C   UNL     1     110.000 128.413 142.203  0.00  0.00    +0.000 C 
ATOM     38  C   UNL     1     110.490 128.974 142.951  0.00  0.00    +0.000 C 
ATOM     39  C   UNL     1     109.495 128.860 142.617  0.00  0.00    +0.000 C 
ATOM     40  O   UNL     1     107.561 129.124 142.527  0.00  0.00    +0.000 OA
ATOM     41  O   UNL     1     110.058 129.323 143.265  0.00  0.00    +0.000 OA
ATOM     42  O   UNL     1     111.466 128.748 142.888  0.00  0.00    +0.000 OA
BRANCH  35  43
ATOM     43  O   UNL     1     107.014 128.858 142.108  0.00  0.00    +0.000 OA
BRANCH  43  51
ATOM     44  C   UNL     1     102.832 130.956 141.689  0.00  0.00    +0.000 A 
ATOM     45  C   UNL     1     103.549 131.593 141.378  0.00  0.00    +0.000 A 
ATOM     46  C   UNL     1     104.518 131.311 141.397  0.00  0.00    +0.000 A 
ATOM     47  C   UNL     1     104.769 130.390 141.728  0.00  0.00    +0.000 A 
ATOM     48  C   UNL     1     104.051 129.753 142.039  0.00  0.00    +0.000 A 
ATOM     49  C   UNL     1     103.082 130.036 142.020  0.00  0.00    +0.000 A 
ATOM     50  C   UNL     1     105.738 130.108 141.746  0.00  0.00    +0.000 A 
ATOM     51  C   UNL     1     105.988 129.188 142.077  0.00  0.00    +0.000 A 
ATOM     52  C   UNL     1     105.270 128.550 142.388  0.00  0.00    +0.000 A 
ATOM     53  O   UNL     1     104.301 128.833 142.369  0.00  0.00    +0.000 OA
ATOM     54  O   UNL     1     106.297 130.605 141.504  0.00  0.00    +0.000 OA
ATOM     55  O   UNL     1     101.863 131.238 141.670  0.00  0.00    +0.000 OA
ATOM     56  O   UNL     1     105.236 131.948 141.086  0.00  0.00    +0.000 OA
BRANCH  52  57
ATOM     57  C   UNL     1     105.521 127.630 142.718  0.00  0.00    +0.000 A 
ATOM     58  C   UNL     1     105.635 127.459 143.726  0.00  0.00    +0.000 A 
ATOM     59  C   UNL     1     105.890 126.521 144.063  0.00  0.00    +0.000 A 
ATOM     60  C   UNL     1     106.031 125.754 143.392  0.00  0.00    +0.000 A 
ATOM     61  C   UNL     1     105.917 125.925 142.384  0.00  0.00    +0.000 A 
ATOM     62  C   UNL     1     105.662 126.863 142.047  0.00  0.00    +0.000 A 
ATOM     63  O   UNL     1     106.317 124.705 143.769  0.00  0.00    +0.000 OA
ENDBRANCH  52  57
ENDBRANCH  43  51
ENDBRANCH  35  43
ENDBRANCH  33  37
ENDBRANCH   1  33
TORSDOF 12
ENDMDL
MODEL 5
REMARK VINA RESULT:     -11.9      2.045      4.377
REMARK  Name = 
REMARK  12 active torsions:
REMARK  status: ('A' for Active; 'I' for Inactive)
REMARK    1  A    between atoms: C_8  and  O_19
REMARK    2  A    between atoms: C_9  and  C_12
REMARK    3  A    between atoms: O_19  and  C_29
REMARK    4  A    between atoms: C_22  and  O_38
REMARK    5  A    between atoms: C_23  and  O_39
REMARK    6  A    between atoms: C_25  and  O_37
REMARK    7  A    between atoms: C_31  and  C_36
REMARK    8  A    between atoms: C_36  and  O_37
REMARK    9  A    between atoms: O_38  and  C_52
REMARK   10  A    between atoms: O_39  and  C_46
REMARK   11  A    between atoms: C_52  and  C_54
REMARK   12  A    between atoms: C_55  and  C_56
REMARK                            x       y       z     vdW  Elec       q    Type
REMARK                         _______ _______ _______ _____ _____    ______ ____
ROOT
ATOM      1  O   UNL     1     112.517 129.192 141.550  0.00  0.00    +0.000 OA
ENDROOT
BRANCH   1   6
ATOM      2  C   UNL     1     111.813 129.249 139.432  0.00  0.00    +0.000 C 
ATOM      3  C   UNL     1     112.082 129.572 138.464  0.00  0.00    +0.000 C 
ATOM      4  C   UNL     1     112.520 129.606 139.422  0.00  0.00    +0.000 C 
ATOM      5  C   UNL     1     113.340 129.899 140.030  0.00  0.00    +0.000 C 
ATOM      6  C   UNL     1     113.071 129.577 140.998  0.00  0.00    +0.000 C 
ATOM      7  O   UNL     1     112.633 129.543 140.039  0.00  0.00    +0.000 OA
ATOM      8  C   UNL     1     111.256 129.116 138.680  0.00  0.00    +0.000 C 
ATOM      9  O   UNL     1     113.906 130.272 139.568  0.00  0.00    +0.000 OA
BRANCH   3  10
ATOM     10  O   UNL     1     111.146 129.182 138.051  0.00  0.00    +0.000 OA
BRANCH  10  11
ATOM     11  C   UNL     1     111.151 128.266 137.555  0.00  0.00    +0.000 C 
ATOM     12  O   UNL     1     110.534 128.486 136.889  0.00  0.00    +0.000 OA
BRANCH  11  13
ATOM     13  C   UNL     1     111.505 127.342 137.501  0.00  0.00    +0.000 C 
ATOM     14  C   UNL     1     111.559 126.909 136.673  0.00  0.00    +0.000 C 
BRANCH  14  15
ATOM     15  C   UNL     1     111.855 126.137 136.627  0.00  0.00    +0.000 A 
ATOM     16  C   UNL     1     112.781 125.961 136.839  0.00  0.00    +0.000 A 
ATOM     17  C   UNL     1     113.126 125.061 136.787  0.00  0.00    +0.000 A 
ATOM     18  C   UNL     1     112.545 124.335 136.522  0.00  0.00    +0.000 A 
ATOM     19  C   UNL     1     111.620 124.511 136.310  0.00  0.00    +0.000 A 
ATOM     20  C   UNL     1     111.275 125.412 136.363  0.00  0.00    +0.000 A 
ATOM     21  O   UNL     1     112.890 123.437 136.469  0.00  0.00    +0.000 OA
ENDBRANCH  14  15
ENDBRANCH  11  13
ENDBRANCH  10  11
ENDBRANCH   3  10
BRANCH   4  22
ATOM     22  O   UNL     1     112.600 129.858 138.329  0.00  0.00    +0.000 OA
BRANCH  22  27
ATOM     23  C   UNL     1     113.849 129.709 136.636  0.00  0.00    +0.000 C 
ATOM     24  C   UNL     1     114.345 130.164 135.823  0.00  0.00    +0.000 C 
ATOM     25  C   UNL     1     113.717 130.489 136.607  0.00  0.00    +0.000 C 
ATOM     26  C   UNL     1     113.216 131.291 137.086  0.00  0.00    +0.000 C 
ATOM     27  C   UNL     1     112.719 130.836 137.899  0.00  0.00    +0.000 C 
ATOM     28  O   UNL     1     113.347 130.511 137.115  0.00  0.00    +0.000 OA
ATOM     29  C   UNL     1     114.426 129.255 135.957  0.00  0.00    +0.000 C 
ATOM     30  O   UNL     1     114.688 129.653 135.486  0.00  0.00    +0.000 OA
ATOM     31  O   UNL     1     114.279 130.777 135.749  0.00  0.00    +0.000 OA
ATOM     32  O   UNL     1     113.413 132.019 136.614  0.00  0.00    +0.000 OA
ENDBRANCH  22  27
ENDBRANCH   4  22
ENDBRANCH   1   6
BRANCH   1  33
ATOM     33  C   UNL     1     112.167 128.775 142.121  0.00  0.00    +0.000 C 
BRANCH  33  37
ATOM     34  C   UNL     1     111.169 129.928 144.075  0.00  0.00    +0.000 C 
ATOM     35  C   UNL     1     111.273 130.941 143.796  0.00  0.00    +0.000 C 
ATOM     36  O   UNL     1     111.514 130.007 143.367  0.00  0.00    +0.000 OA
ATOM     37  C   UNL     1     111.932 129.470 142.554  0.00  0.00    +0.000 C 
ATOM     38  C   UNL     1     111.828 128.457 142.833  0.00  0.00    +0.000 C 
ATOM     39  C   UNL     1     111.587 129.391 143.262  0.00  0.00    +0.000 C 
ATOM     40  O   UNL     1     110.903 130.676 144.566  0.00  0.00    +0.000 OA
ATOM     41  O   UNL     1     111.548 128.427 143.405  0.00  0.00    +0.000 OA
ATOM     42  O   UNL     1     112.214 127.911 142.084  0.00  0.00    +0.000 OA
BRANCH  35  43
ATOM     43  O   UNL     1     110.860 131.412 144.604  0.00  0.00    +0.000 OA
BRANCH  43  51
ATOM     44  C   UNL     1     107.943 133.596 147.569  0.00  0.00    +0.000 A 
ATOM     45  C   UNL     1     107.420 132.916 147.037  0.00  0.00    +0.000 A 
ATOM     46  C   UNL     1     107.887 132.347 146.346  0.00  0.00    +0.000 A 
ATOM     47  C   UNL     1     108.877 132.460 146.186  0.00  0.00    +0.000 A 
ATOM     48  C   UNL     1     109.400 133.140 146.717  0.00  0.00    +0.000 A 
ATOM     49  C   UNL     1     108.933 133.708 147.409  0.00  0.00    +0.000 A 
ATOM     50  C   UNL     1     109.344 131.892 145.495  0.00  0.00    +0.000 A 
ATOM     51  C   UNL     1     110.334 132.004 145.335  0.00  0.00    +0.000 A 
ATOM     52  C   UNL     1     110.857 132.685 145.866  0.00  0.00    +0.000 A 
ATOM     53  O   UNL     1     110.390 133.253 146.558  0.00  0.00    +0.000 OA
ATOM     54  O   UNL     1     108.936 131.361 145.081  0.00  0.00    +0.000 OA
ATOM     55  O   UNL     1     107.476 134.164 148.260  0.00  0.00    +0.000 OA
ATOM     56  O   UNL     1     107.364 131.667 145.815  0.00  0.00    +0.000 OA
BRANCH  52  57
ATOM     57  C   UNL     1     111.848 132.797 145.706  0.00  0.00    +0.000 A 
ATOM     58  C   UNL     1     112.524 132.308 146.307  0.00  0.00    +0.000 A 
ATOM     59  C   UNL     1     113.534 132.422 146.145  0.00  0.00    +0.000 A 
ATOM     60  C   UNL     1     113.867 133.026 145.381  0.00  0.00    +0.000 A 
ATOM     61  C   UNL     1     113.190 133.515 144.780  0.00  0.00    +0.000 A 
ATOM     62  C   UNL     1     112.180 133.401 144.943  0.00  0.00    +0.000 A 
ATOM     63  O   UNL     1     114.995 133.154 145.199  0.00  0.00    +0.000 OA
ENDBRANCH  52  57
ENDBRANCH  43  51
ENDBRANCH  35  43
ENDBRANCH  33  37
ENDBRANCH   1  33
TORSDOF 12
ENDMDL
MODEL 6
REMARK VINA RESULT:     -11.8      3.591      6.444
REMARK  Name = 
REMARK  12 active torsions:
REMARK  status: ('A' for Active; 'I' for Inactive)
REMARK    1  A    between atoms: C_8  and  O_19
REMARK    2  A    between atoms: C_9  and  C_12
REMARK    3  A    between atoms: O_19  and  C_29
REMARK    4  A    between atoms: C_22  and  O_38
REMARK    5  A    between atoms: C_23  and  O_39
REMARK    6  A    between atoms: C_25  and  O_37
REMARK    7  A    between atoms: C_31  and  C_36
REMARK    8  A    between atoms: C_36  and  O_37
REMARK    9  A    between atoms: O_38  and  C_52
REMARK   10  A    between atoms: O_39  and  C_46
REMARK   11  A    between atoms: C_52  and  C_54
REMARK   12  A    between atoms: C_55  and  C_56
REMARK                            x       y       z     vdW  Elec       q    Type
REMARK                         _______ _______ _______ _____ _____    ______ ____
ROOT
ATOM      1  O   UNL     1     109.956 127.555 141.170  0.00  0.00    +0.000 OA
ENDROOT
BRANCH   1   6
ATOM      2  C   UNL     1     110.777 129.475 140.381  0.00  0.00    +0.000 C 
ATOM      3  C   UNL     1     111.592 130.140 140.465  0.00  0.00    +0.000 C 
ATOM      4  C   UNL     1     111.309 129.228 140.912  0.00  0.00    +0.000 C 
ATOM      5  C   UNL     1     111.533 128.455 141.604  0.00  0.00    +0.000 C 
ATOM      6  C   UNL     1     110.718 127.790 141.520  0.00  0.00    +0.000 C 
ATOM      7  O   UNL     1     111.001 128.702 141.073  0.00  0.00    +0.000 OA
ATOM      8  C   UNL     1     110.840 130.267 139.869  0.00  0.00    +0.000 C 
ATOM      9  O   UNL     1     112.248 128.614 141.975  0.00  0.00    +0.000 OA
BRANCH   3  10
ATOM     10  O   UNL     1     111.158 130.802 139.709  0.00  0.00    +0.000 OA
BRANCH  10  11
ATOM     11  C   UNL     1     111.588 130.842 138.761  0.00  0.00    +0.000 C 
ATOM     12  O   UNL     1     111.224 131.662 138.499  0.00  0.00    +0.000 OA
BRANCH  11  13
ATOM     13  C   UNL     1     112.168 130.412 138.083  0.00  0.00    +0.000 C 
ATOM     14  C   UNL     1     112.657 130.939 137.483  0.00  0.00    +0.000 C 
BRANCH  14  15
ATOM     15  C   UNL     1     113.142 130.580 136.916  0.00  0.00    +0.000 A 
ATOM     16  C   UNL     1     114.075 130.826 136.852  0.00  0.00    +0.000 A 
ATOM     17  C   UNL     1     114.641 130.406 136.191  0.00  0.00    +0.000 A 
ATOM     18  C   UNL     1     114.274 129.741 135.594  0.00  0.00    +0.000 A 
ATOM     19  C   UNL     1     113.343 129.495 135.658  0.00  0.00    +0.000 A 
ATOM     20  C   UNL     1     112.777 129.915 136.319  0.00  0.00    +0.000 A 
ATOM     21  O   UNL     1     114.839 129.323 134.934  0.00  0.00    +0.000 OA
ENDBRANCH  14  15
ENDBRANCH  11  13
ENDBRANCH  10  11
ENDBRANCH   3  10
BRANCH   4  22
ATOM     22  O   UNL     1     112.063 130.059 140.839  0.00  0.00    +0.000 OA
BRANCH  22  27
ATOM     23  C   UNL     1     114.125 130.488 140.717  0.00  0.00    +0.000 C 
ATOM     24  C   UNL     1     114.973 131.007 141.071  0.00  0.00    +0.000 C 
ATOM     25  C   UNL     1     113.950 130.961 141.328  0.00  0.00    +0.000 C 
ATOM     26  C   UNL     1     113.163 131.291 141.958  0.00  0.00    +0.000 C 
ATOM     27  C   UNL     1     112.315 130.772 141.604  0.00  0.00    +0.000 C 
ATOM     28  O   UNL     1     113.337 130.819 141.347  0.00  0.00    +0.000 OA
ATOM     29  C   UNL     1     115.056 130.426 140.360  0.00  0.00    +0.000 C 
ATOM     30  O   UNL     1     115.512 130.806 140.670  0.00  0.00    +0.000 OA
ATOM     31  O   UNL     1     114.898 131.394 141.551  0.00  0.00    +0.000 OA
ATOM     32  O   UNL     1     113.532 131.868 142.526  0.00  0.00    +0.000 OA
ENDBRANCH  22  27
ENDBRANCH   4  22
ENDBRANCH   1   6
BRANCH   1  33
ATOM     33  C   UNL     1     109.313 127.177 140.910  0.00  0.00    +0.000 C 
BRANCH  33  37
ATOM     34  C   UNL     1     107.455 126.660 142.467  0.00  0.00    +0.000 C 
ATOM     35  C   UNL     1     107.759 127.179 143.335  0.00  0.00    +0.000 C 
ATOM     36  O   UNL     1     108.145 127.035 142.363  0.00  0.00    +0.000 OA
ATOM     37  C   UNL     1     108.916 127.229 141.662  0.00  0.00    +0.000 C 
ATOM     38  C   UNL     1     108.613 126.710 140.794  0.00  0.00    +0.000 C 
ATOM     39  C   UNL     1     108.227 126.854 141.766  0.00  0.00    +0.000 C 
ATOM     40  O   UNL     1     107.004 126.703 143.283  0.00  0.00    +0.000 OA
ATOM     41  O   UNL     1     108.057 126.419 140.909  0.00  0.00    +0.000 OA
ATOM     42  O   UNL     1     109.321 126.869 140.101  0.00  0.00    +0.000 OA
BRANCH  35  43
ATOM     43  O   UNL     1     106.991 126.963 143.973  0.00  0.00    +0.000 OA
BRANCH  43  51
ATOM     44  C   UNL     1     104.057 124.957 147.046  0.00  0.00    +0.000 A 
ATOM     45  C   UNL     1     104.369 124.259 146.388  0.00  0.00    +0.000 A 
ATOM     46  C   UNL     1     105.009 124.510 145.649  0.00  0.00    +0.000 A 
ATOM     47  C   UNL     1     105.338 125.461 145.570  0.00  0.00    +0.000 A 
ATOM     48  C   UNL     1     105.026 126.160 146.228  0.00  0.00    +0.000 A 
ATOM     49  C   UNL     1     104.386 125.908 146.967  0.00  0.00    +0.000 A 
ATOM     50  C   UNL     1     105.978 125.713 144.831  0.00  0.00    +0.000 A 
ATOM     51  C   UNL     1     106.307 126.664 144.752  0.00  0.00    +0.000 A 
ATOM     52  C   UNL     1     105.996 127.363 145.410  0.00  0.00    +0.000 A 
ATOM     53  O   UNL     1     105.355 127.111 146.148  0.00  0.00    +0.000 OA
ATOM     54  O   UNL     1     106.221 125.168 144.318  0.00  0.00    +0.000 OA
ATOM     55  O   UNL     1     103.417 124.705 147.785  0.00  0.00    +0.000 OA
ATOM     56  O   UNL     1     105.320 123.812 144.991  0.00  0.00    +0.000 OA
BRANCH  52  57
ATOM     57  C   UNL     1     106.324 128.314 145.330  0.00  0.00    +0.000 A 
ATOM     58  C   UNL     1     107.189 128.601 145.808  0.00  0.00    +0.000 A 
ATOM     59  C   UNL     1     107.525 129.570 145.727  0.00  0.00    +0.000 A 
ATOM     60  C   UNL     1     106.995 130.252 145.168  0.00  0.00    +0.000 A 
ATOM     61  C   UNL     1     106.131 129.965 144.690  0.00  0.00    +0.000 A 
ATOM     62  C   UNL     1     105.795 128.996 144.771  0.00  0.00    +0.000 A 
ATOM     63  O   UNL     1     107.370 131.336 145.078  0.00  0.00    +0.000 OA
ENDBRANCH  52  57
ENDBRANCH  43  51
ENDBRANCH  35  43
ENDBRANCH  33  37
ENDBRANCH   1  33
TORSDOF 12
ENDMDL
MODEL 7
REMARK VINA RESULT:     -11.8      3.742      6.115
REMARK  Name = 
REMARK  12 active torsions:
REMARK  status: ('A' for Active; 'I' for Inactive)
REMARK    1  A    between atoms: C_8  and  O_19
REMARK    2  A    between atoms: C_9  and  C_12
REMARK    3  A    between atoms: O_19  and  C_29
REMARK    4  A    between atoms: C_22  and  O_38
REMARK    5  A    between atoms: C_23  and  O_39
REMARK    6  A    between atoms: C_25  and  O_37
REMARK    7  A    between atoms: C_31  and  C_36
REMARK    8  A    between atoms: C_36  and  O_37
REMARK    9  A    between atoms: O_38  and  C_52
REMARK   10  A    between atoms: O_39  and  C_46
REMARK   11  A    between atoms: C_52  and  C_54
REMARK   12  A    between atoms: C_55  and  C_56
REMARK                            x       y       z     vdW  Elec       q    Type
REMARK                         _______ _______ _______ _____ _____    ______ ____
ROOT
ATOM      1  O   UNL     1     108.366 125.209 140.979  0.00  0.00    +0.000 OA
ENDROOT
BRANCH   1   6
ATOM      2  C   UNL     1     109.402 126.213 139.275  0.00  0.00    +0.000 C 
ATOM      3  C   UNL     1     110.327 126.623 138.976  0.00  0.00    +0.000 C 
ATOM      4  C   UNL     1     109.949 126.158 139.844  0.00  0.00    +0.000 C 
ATOM      5  C   UNL     1     110.125 125.818 140.834  0.00  0.00    +0.000 C 
ATOM      6  C   UNL     1     109.200 125.409 141.134  0.00  0.00    +0.000 C 
ATOM      7  O   UNL     1     109.577 125.874 140.265  0.00  0.00    +0.000 OA
ATOM      8  C   UNL     1     109.534 126.596 138.421  0.00  0.00    +0.000 C 
ATOM      9  O   UNL     1     110.902 125.977 141.047  0.00  0.00    +0.000 OA
BRANCH   3  10
ATOM     10  O   UNL     1     109.917 126.886 137.995  0.00  0.00    +0.000 OA
BRANCH  10  11
ATOM     11  C   UNL     1     109.728 127.887 137.775  0.00  0.00    +0.000 C 
ATOM     12  O   UNL     1     109.325 127.752 136.943  0.00  0.00    +0.000 OA
BRANCH  11  13
ATOM     13  C   UNL     1     109.792 128.836 138.054  0.00  0.00    +0.000 C 
ATOM     14  C   UNL     1     109.859 129.510 137.409  0.00  0.00    +0.000 C 
BRANCH  14  15
ATOM     15  C   UNL     1     109.913 130.303 137.642  0.00  0.00    +0.000 A 
ATOM     16  C   UNL     1     109.109 130.819 137.787  0.00  0.00    +0.000 A 
ATOM     17  C   UNL     1     109.171 131.744 138.060  0.00  0.00    +0.000 A 
ATOM     18  C   UNL     1     110.038 132.152 138.187  0.00  0.00    +0.000 A 
ATOM     19  C   UNL     1     110.841 131.636 138.041  0.00  0.00    +0.000 A 
ATOM     20  C   UNL     1     110.778 130.712 137.769  0.00  0.00    +0.000 A 
ATOM     21  O   UNL     1     110.100 133.075 138.458  0.00  0.00    +0.000 OA
ENDBRANCH  14  15
ENDBRANCH  11  13
ENDBRANCH  10  11
ENDBRANCH   3  10
BRANCH   4  22
ATOM     22  O   UNL     1     110.823 126.640 139.325  0.00  0.00    +0.000 OA
BRANCH  22  27
ATOM     23  C   UNL     1     112.425 127.953 139.721  0.00  0.00    +0.000 C 
ATOM     24  C   UNL     1     113.460 128.164 139.707  0.00  0.00    +0.000 C 
ATOM     25  C   UNL     1     112.847 127.352 139.424  0.00  0.00    +0.000 C 
ATOM     26  C   UNL     1     112.776 126.376 139.017  0.00  0.00    +0.000 C 
ATOM     27  C   UNL     1     111.742 126.165 139.031  0.00  0.00    +0.000 C 
ATOM     28  O   UNL     1     112.354 126.976 139.314  0.00  0.00    +0.000 OA
ATOM     29  C   UNL     1     112.869 128.794 140.033  0.00  0.00    +0.000 C 
ATOM     30  O   UNL     1     113.536 128.809 139.972  0.00  0.00    +0.000 OA
ATOM     31  O   UNL     1     113.842 127.729 139.484  0.00  0.00    +0.000 OA
ATOM     32  O   UNL     1     113.610 126.129 138.829  0.00  0.00    +0.000 OA
ENDBRANCH  22  27
ENDBRANCH   4  22
ENDBRANCH   1   6
BRANCH   1  33
ATOM     33  C   UNL     1     107.631 124.922 140.985  0.00  0.00    +0.000 C 
BRANCH  33  37
ATOM     34  C   UNL     1     105.717 126.394 141.546  0.00  0.00    +0.000 C 
ATOM     35  C   UNL     1     106.207 127.307 141.750  0.00  0.00    +0.000 C 
ATOM     36  O   UNL     1     106.502 126.334 141.463  0.00  0.00    +0.000 OA
ATOM     37  C   UNL     1     107.288 125.667 141.215  0.00  0.00    +0.000 C 
ATOM     38  C   UNL     1     106.798 124.755 141.012  0.00  0.00    +0.000 C 
ATOM     39  C   UNL     1     106.503 125.727 141.299  0.00  0.00    +0.000 C 
ATOM     40  O   UNL     1     105.321 127.201 141.798  0.00  0.00    +0.000 OA
ATOM     41  O   UNL     1     106.170 124.835 141.088  0.00  0.00    +0.000 OA
ATOM     42  O   UNL     1     107.512 124.091 140.772  0.00  0.00    +0.000 OA
BRANCH  35  43
ATOM     43  O   UNL     1     105.415 127.910 141.980  0.00  0.00    +0.000 OA
BRANCH  43  51
ATOM     44  C   UNL     1     101.961 131.093 142.012  0.00  0.00    +0.000 A 
ATOM     45  C   UNL     1     101.960 130.620 141.121  0.00  0.00    +0.000 A 
ATOM     46  C   UNL     1     102.640 129.897 140.933  0.00  0.00    +0.000 A 
ATOM     47  C   UNL     1     103.319 129.648 141.637  0.00  0.00    +0.000 A 
ATOM     48  C   UNL     1     103.320 130.122 142.528  0.00  0.00    +0.000 A 
ATOM     49  C   UNL     1     102.640 130.845 142.716  0.00  0.00    +0.000 A 
ATOM     50  C   UNL     1     103.998 128.926 141.449  0.00  0.00    +0.000 A 
ATOM     51  C   UNL     1     104.678 128.677 142.153  0.00  0.00    +0.000 A 
ATOM     52  C   UNL     1     104.678 129.151 143.044  0.00  0.00    +0.000 A 
ATOM     53  O   UNL     1     103.999 129.873 143.232  0.00  0.00    +0.000 OA
ATOM     54  O   UNL     1     103.998 128.556 140.754  0.00  0.00    +0.000 OA
ATOM     55  O   UNL     1     101.282 131.816 142.200  0.00  0.00    +0.000 OA
ATOM     56  O   UNL     1     102.639 129.424 140.042  0.00  0.00    +0.000 OA
BRANCH  52  57
ATOM     57  C   UNL     1     105.358 128.902 143.747  0.00  0.00    +0.000 A 
ATOM     58  C   UNL     1     106.278 129.361 143.759  0.00  0.00    +0.000 A 
ATOM     59  C   UNL     1     106.971 129.108 144.475  0.00  0.00    +0.000 A 
ATOM     60  C   UNL     1     106.744 128.396 145.182  0.00  0.00    +0.000 A 
ATOM     61  C   UNL     1     105.823 127.936 145.171  0.00  0.00    +0.000 A 
ATOM     62  C   UNL     1     105.130 128.189 144.454  0.00  0.00    +0.000 A 
ATOM     63  O   UNL     1     107.518 128.113 145.983  0.00  0.00    +0.000 OA
ENDBRANCH  52  57
ENDBRANCH  43  51
ENDBRANCH  35  43
ENDBRANCH  33  37
ENDBRANCH   1  33
TORSDOF 12
ENDMDL
MODEL 8
REMARK VINA RESULT:     -11.8      3.446      4.984
REMARK  Name = 
REMARK  12 active torsions:
REMARK  status: ('A' for Active; 'I' for Inactive)
REMARK    1  A    between atoms: C_8  and  O_19
REMARK    2  A    between atoms: C_9  and  C_12
REMARK    3  A    between atoms: O_19  and  C_29
REMARK    4  A    between atoms: C_22  and  O_38
REMARK    5  A    between atoms: C_23  and  O_39
REMARK    6  A    between atoms: C_25  and  O_37
REMARK    7  A    between atoms: C_31  and  C_36
REMARK    8  A    between atoms: C_36  and  O_37
REMARK    9  A    between atoms: O_38  and  C_52
REMARK   10  A    between atoms: O_39  and  C_46
REMARK   11  A    between atoms: C_52  and  C_54
REMARK   12  A    between atoms: C_55  and  C_56
REMARK                            x       y       z     vdW  Elec       q    Type
REMARK                         _______ _______ _______ _____ _____    ______ ____
ROOT
ATOM      1  O   UNL     1     110.308 128.046 140.219  0.00  0.00    +0.000 OA
ENDROOT
BRANCH   1   6
ATOM      2  C   UNL     1     110.800 127.451 138.124  0.00  0.00    +0.000 C 
ATOM      3  C   UNL     1     111.373 126.772 137.554  0.00  0.00    +0.000 C 
ATOM      4  C   UNL     1     111.220 126.959 138.581  0.00  0.00    +0.000 C 
ATOM      5  C   UNL     1     111.443 126.704 139.587  0.00  0.00    +0.000 C 
ATOM      6  C   UNL     1     110.870 127.383 140.157  0.00  0.00    +0.000 C 
ATOM      7  O   UNL     1     111.023 127.196 139.130  0.00  0.00    +0.000 OA
ATOM      8  C   UNL     1     110.795 127.451 137.179  0.00  0.00    +0.000 C 
ATOM      9  O   UNL     1     111.974 126.078 139.602  0.00  0.00    +0.000 OA
BRANCH   3  10
ATOM     10  O   UNL     1     110.999 127.207 136.621  0.00  0.00    +0.000 OA
BRANCH  10  11
ATOM     11  C   UNL     1     111.637 127.792 136.042  0.00  0.00    +0.000 C 
ATOM     12  O   UNL     1     111.422 127.419 135.213  0.00  0.00    +0.000 OA
BRANCH  11  13
ATOM     13  C   UNL     1     112.315 128.514 136.006  0.00  0.00    +0.000 C 
ATOM     14  C   UNL     1     113.110 128.386 135.528  0.00  0.00    +0.000 C 
BRANCH  14  15
ATOM     15  C   UNL     1     113.677 128.989 135.498  0.00  0.00    +0.000 A 
ATOM     16  C   UNL     1     114.033 129.276 134.647  0.00  0.00    +0.000 A 
ATOM     17  C   UNL     1     114.694 129.980 134.612  0.00  0.00    +0.000 A 
ATOM     18  C   UNL     1     114.999 130.396 135.429  0.00  0.00    +0.000 A 
ATOM     19  C   UNL     1     114.643 130.109 136.279  0.00  0.00    +0.000 A 
ATOM     20  C   UNL     1     113.982 129.406 136.314  0.00  0.00    +0.000 A 
ATOM     21  O   UNL     1     115.659 131.098 135.394  0.00  0.00    +0.000 OA
ENDBRANCH  14  15
ENDBRANCH  11  13
ENDBRANCH  10  11
ENDBRANCH   3  10
BRANCH   4  22
ATOM     22  O   UNL     1     111.735 126.347 137.791  0.00  0.00    +0.000 OA
BRANCH  22  27
ATOM     23  C   UNL     1     113.580 125.421 137.354  0.00  0.00    +0.000 C 
ATOM     24  C   UNL     1     114.131 124.563 137.081  0.00  0.00    +0.000 C 
ATOM     25  C   UNL     1     113.114 124.790 137.252  0.00  0.00    +0.000 C 
ATOM     26  C   UNL     1     112.109 124.454 137.284  0.00  0.00    +0.000 C 
ATOM     27  C   UNL     1     111.558 125.312 137.557  0.00  0.00    +0.000 C 
ATOM     28  O   UNL     1     112.574 125.085 137.386  0.00  0.00    +0.000 OA
ATOM     29  C   UNL     1     114.570 125.361 137.227  0.00  0.00    +0.000 C 
ATOM     30  O   UNL     1     114.804 124.758 137.052  0.00  0.00    +0.000 OA
ATOM     31  O   UNL     1     113.818 124.035 136.987  0.00  0.00    +0.000 OA
ATOM     32  O   UNL     1     112.134 123.590 137.070  0.00  0.00    +0.000 OA
ENDBRANCH  22  27
ENDBRANCH   4  22
ENDBRANCH   1   6
BRANCH   1  33
ATOM     33  C   UNL     1     109.852 128.647 140.449  0.00  0.00    +0.000 C 
BRANCH  33  37
ATOM     34  C   UNL     1     108.122 128.294 142.189  0.00  0.00    +0.000 C 
ATOM     35  C   UNL     1     108.116 127.241 142.268  0.00  0.00    +0.000 C 
ATOM     36  O   UNL     1     108.642 127.956 141.697  0.00  0.00    +0.000 OA
ATOM     37  C   UNL     1     109.374 128.157 140.956  0.00  0.00    +0.000 C 
ATOM     38  C   UNL     1     109.380 129.209 140.877  0.00  0.00    +0.000 C 
ATOM     39  C   UNL     1     108.854 128.494 141.448  0.00  0.00    +0.000 C 
ATOM     40  O   UNL     1     107.589 127.775 142.753  0.00  0.00    +0.000 OA
ATOM     41  O   UNL     1     108.952 129.451 141.284  0.00  0.00    +0.000 OA
ATOM     42  O   UNL     1     110.065 129.443 140.182  0.00  0.00    +0.000 OA
BRANCH  35  43
ATOM     43  O   UNL     1     107.402 127.100 142.985  0.00  0.00    +0.000 OA
BRANCH  43  51
ATOM     44  C   UNL     1     104.929 126.292 146.897  0.00  0.00    +0.000 A 
ATOM     45  C   UNL     1     105.654 126.963 147.102  0.00  0.00    +0.000 A 
ATOM     46  C   UNL     1     106.288 127.259 146.374  0.00  0.00    +0.000 A 
ATOM     47  C   UNL     1     106.197 126.883 145.442  0.00  0.00    +0.000 A 
ATOM     48  C   UNL     1     105.472 126.212 145.237  0.00  0.00    +0.000 A 
ATOM     49  C   UNL     1     104.838 125.915 145.965  0.00  0.00    +0.000 A 
ATOM     50  C   UNL     1     106.831 127.179 144.715  0.00  0.00    +0.000 A 
ATOM     51  C   UNL     1     106.740 126.803 143.782  0.00  0.00    +0.000 A 
ATOM     52  C   UNL     1     106.015 126.131 143.578  0.00  0.00    +0.000 A 
ATOM     53  O   UNL     1     105.381 125.835 144.305  0.00  0.00    +0.000 OA
ATOM     54  O   UNL     1     107.396 127.703 144.874  0.00  0.00    +0.000 OA
ATOM     55  O   UNL     1     104.295 125.996 147.624  0.00  0.00    +0.000 OA
ATOM     56  O   UNL     1     107.013 127.931 146.579  0.00  0.00    +0.000 OA
BRANCH  52  57
ATOM     57  C   UNL     1     105.924 125.755 142.646  0.00  0.00    +0.000 A 
ATOM     58  C   UNL     1     105.352 126.247 141.946  0.00  0.00    +0.000 A 
ATOM     59  C   UNL     1     105.259 125.864 140.996  0.00  0.00    +0.000 A 
ATOM     60  C   UNL     1     105.738 124.988 140.745  0.00  0.00    +0.000 A 
ATOM     61  C   UNL     1     106.309 124.497 141.445  0.00  0.00    +0.000 A 
ATOM     62  C   UNL     1     106.403 124.879 142.395  0.00  0.00    +0.000 A 
ATOM     63  O   UNL     1     105.633 124.560 139.683  0.00  0.00    +0.000 OA
ENDBRANCH  52  57
ENDBRANCH  43  51
ENDBRANCH  35  43
ENDBRANCH  33  37
ENDBRANCH   1  33
TORSDOF 12
ENDMDL
MODEL 9
REMARK VINA RESULT:     -11.7      5.674      9.737
REMARK  Name = 
REMARK  12 active torsions:
REMARK  status: ('A' for Active; 'I' for Inactive)
REMARK    1  A    between atoms: C_8  and  O_19
REMARK    2  A    between atoms: C_9  and  C_12
REMARK    3  A    between atoms: O_19  and  C_29
REMARK    4  A    between atoms: C_22  and  O_38
REMARK    5  A    between atoms: C_23  and  O_39
REMARK    6  A    between atoms: C_25  and  O_37
REMARK    7  A    between atoms: C_31  and  C_36
REMARK    8  A    between atoms: C_36  and  O_37
REMARK    9  A    between atoms: O_38  and  C_52
REMARK   10  A    between atoms: O_39  and  C_46
REMARK   11  A    between atoms: C_52  and  C_54
REMARK   12  A    between atoms: C_55  and  C_56
REMARK                            x       y       z     vdW  Elec       q    Type
REMARK                         _______ _______ _______ _____ _____    ______ ____
ROOT
ATOM      1  O   UNL     1     107.048 125.844 141.761  0.00  0.00    +0.000 OA
ENDROOT
BRANCH   1   6
ATOM      2  C   UNL     1     106.598 128.008 142.078  0.00  0.00    +0.000 C 
ATOM      3  C   UNL     1     107.050 128.946 142.245  0.00  0.00    +0.000 C 
ATOM      4  C   UNL     1     107.387 127.957 142.106  0.00  0.00    +0.000 C 
ATOM      5  C   UNL     1     108.205 127.283 142.039  0.00  0.00    +0.000 C 
ATOM      6  C   UNL     1     107.752 126.345 141.872  0.00  0.00    +0.000 C 
ATOM      7  O   UNL     1     107.415 127.335 142.010  0.00  0.00    +0.000 OA
ATOM      8  C   UNL     1     106.096 128.802 142.178  0.00  0.00    +0.000 C 
ATOM      9  O   UNL     1     108.909 127.693 142.135  0.00  0.00    +0.000 OA
BRANCH   3  10
ATOM     10  O   UNL     1     106.072 129.437 142.276  0.00  0.00    +0.000 OA
BRANCH  10  11
ATOM     11  C   UNL     1     105.728 129.828 143.179  0.00  0.00    +0.000 C 
ATOM     12  O   UNL     1     105.293 130.575 142.827  0.00  0.00    +0.000 OA
BRANCH  11  13
ATOM     13  C   UNL     1     105.676 129.745 144.165  0.00  0.00    +0.000 C 
ATOM     14  C   UNL     1     105.215 130.388 144.665  0.00  0.00    +0.000 C 
BRANCH  14  15
ATOM     15  C   UNL     1     105.171 130.319 145.489  0.00  0.00    +0.000 A 
ATOM     16  C   UNL     1     104.336 130.073 145.909  0.00  0.00    +0.000 A 
ATOM     17  C   UNL     1     104.284 129.992 146.870  0.00  0.00    +0.000 A 
ATOM     18  C   UNL     1     105.068 130.157 147.411  0.00  0.00    +0.000 A 
ATOM     19  C   UNL     1     105.902 130.403 146.991  0.00  0.00    +0.000 A 
ATOM     20  C   UNL     1     105.953 130.484 146.030  0.00  0.00    +0.000 A 
ATOM     21  O   UNL     1     105.017 130.076 148.371  0.00  0.00    +0.000 OA
ENDBRANCH  14  15
ENDBRANCH  11  13
ENDBRANCH  10  11
ENDBRANCH   3  10
BRANCH   4  22
ATOM     22  O   UNL     1     107.649 129.035 142.286  0.00  0.00    +0.000 OA
BRANCH  22  27
ATOM     23  C   UNL     1     108.880 130.266 143.478  0.00  0.00    +0.000 C 
ATOM     24  C   UNL     1     109.607 131.027 143.559  0.00  0.00    +0.000 C 
ATOM     25  C   UNL     1     109.104 130.540 142.770  0.00  0.00    +0.000 C 
ATOM     26  C   UNL     1     108.953 130.437 141.725  0.00  0.00    +0.000 C 
ATOM     27  C   UNL     1     108.226 129.676 141.643  0.00  0.00    +0.000 C 
ATOM     28  O   UNL     1     108.729 130.163 142.432  0.00  0.00    +0.000 OA
ATOM     29  C   UNL     1     109.271 130.632 144.322  0.00  0.00    +0.000 C 
ATOM     30  O   UNL     1     109.727 131.117 144.244  0.00  0.00    +0.000 OA
ATOM     31  O   UNL     1     109.822 131.281 143.035  0.00  0.00    +0.000 OA
ATOM     32  O   UNL     1     109.496 131.029 141.341  0.00  0.00    +0.000 OA
ENDBRANCH  22  27
ENDBRANCH   4  22
ENDBRANCH   1   6
BRANCH   1  33
ATOM     33  C   UNL     1     106.532 125.259 141.636  0.00  0.00    +0.000 C 
BRANCH  33  37
ATOM     34  C   UNL     1     105.244 124.319 143.534  0.00  0.00    +0.000 C 
ATOM     35  C   UNL     1     105.457 125.017 144.298  0.00  0.00    +0.000 C 
ATOM     36  O   UNL     1     105.723 124.898 143.283  0.00  0.00    +0.000 OA
ATOM     37  C   UNL     1     106.258 125.262 142.443  0.00  0.00    +0.000 C 
ATOM     38  C   UNL     1     106.045 124.565 141.680  0.00  0.00    +0.000 C 
ATOM     39  C   UNL     1     105.779 124.684 142.694  0.00  0.00    +0.000 C 
ATOM     40  O   UNL     1     104.932 124.303 144.414  0.00  0.00    +0.000 OA
ATOM     41  O   UNL     1     105.659 124.113 141.912  0.00  0.00    +0.000 OA
ATOM     42  O   UNL     1     106.536 124.875 140.861  0.00  0.00    +0.000 OA
BRANCH  35  43
ATOM     43  O   UNL     1     104.924 124.626 145.077  0.00  0.00    +0.000 OA
BRANCH  43  51
ATOM     44  C   UNL     1     101.911 123.196 148.386  0.00  0.00    +0.000 A 
ATOM     45  C   UNL     1     101.594 122.861 147.489  0.00  0.00    +0.000 A 
ATOM     46  C   UNL     1     102.122 123.074 146.655  0.00  0.00    +0.000 A 
ATOM     47  C   UNL     1     102.967 123.622 146.720  0.00  0.00    +0.000 A 
ATOM     48  C   UNL     1     103.284 123.957 147.617  0.00  0.00    +0.000 A 
ATOM     49  C   UNL     1     102.757 123.744 148.451  0.00  0.00    +0.000 A 
ATOM     50  C   UNL     1     103.495 123.835 145.886  0.00  0.00    +0.000 A 
ATOM     51  C   UNL     1     104.340 124.383 145.950  0.00  0.00    +0.000 A 
ATOM     52  C   UNL     1     104.657 124.718 146.848  0.00  0.00    +0.000 A 
ATOM     53  O   UNL     1     104.130 124.505 147.681  0.00  0.00    +0.000 OA
ATOM     54  O   UNL     1     103.247 123.573 145.186  0.00  0.00    +0.000 OA
ATOM     55  O   UNL     1     101.384 122.984 149.220  0.00  0.00    +0.000 OA
ATOM     56  O   UNL     1     101.805 122.739 145.758  0.00  0.00    +0.000 OA
BRANCH  52  57
ATOM     57  C   UNL     1     105.503 125.266 146.912  0.00  0.00    +0.000 A 
ATOM     58  C   UNL     1     105.465 126.286 146.786  0.00  0.00    +0.000 A 
ATOM     59  C   UNL     1     106.326 126.845 146.851  0.00  0.00    +0.000 A 
ATOM     60  C   UNL     1     107.226 126.383 147.043  0.00  0.00    +0.000 A 
ATOM     61  C   UNL     1     107.263 125.363 147.170  0.00  0.00    +0.000 A 
ATOM     62  C   UNL     1     106.402 124.804 147.104  0.00  0.00    +0.000 A 
ATOM     63  O   UNL     1     108.188 127.008 147.117  0.00  0.00    +0.000 OA
ENDBRANCH  52  57
ENDBRANCH  43  51
ENDBRANCH  35  43
ENDBRANCH  33  37
ENDBRANCH   1  33
TORSDOF 12
ENDMDL
MODEL 10
REMARK VINA RESULT:     -11.7      2.677      4.895
REMARK  Name = 
REMARK  12 active torsions:
REMARK  status: ('A' for Active; 'I' for Inactive)
REMARK    1  A    between atoms: C_8  and  O_19
REMARK    2  A    between atoms: C_9  and  C_12
REMARK    3  A    between atoms: O_19  and  C_29
REMARK    4  A    between atoms: C_22  and  O_38
REMARK    5  A    between atoms: C_23  and  O_39
REMARK    6  A    between atoms: C_25  and  O_37
REMARK    7  A    between atoms: C_31  and  C_36
REMARK    8  A    between atoms: C_36  and  O_37
REMARK    9  A    between atoms: O_38  and  C_52
REMARK   10  A    between atoms: O_39  and  C_46
REMARK   11  A    between atoms: C_52  and  C_54
REMARK   12  A    between atoms: C_55  and  C_56
REMARK                            x       y       z     vdW  Elec       q    Type
REMARK                         _______ _______ _______ _____ _____    ______ ____
ROOT
ATOM      1  O   UNL     1     109.952 125.897 140.355  0.00  0.00    +0.000 OA
ENDROOT
BRANCH   1   6
ATOM      2  C   UNL     1     110.250 126.090 138.150  0.00  0.00    +0.000 C 
ATOM      3  C   UNL     1     110.950 126.385 137.418  0.00  0.00    +0.000 C 
ATOM      4  C   UNL     1     110.929 126.339 138.472  0.00  0.00    +0.000 C 
ATOM      5  C   UNL     1     111.434 126.499 139.391  0.00  0.00    +0.000 C 
ATOM      6  C   UNL     1     110.734 126.204 140.124  0.00  0.00    +0.000 C 
ATOM      7  O   UNL     1     110.755 126.250 139.070  0.00  0.00    +0.000 OA
ATOM      8  C   UNL     1     110.062 126.052 137.225  0.00  0.00    +0.000 C 
ATOM      9  O   UNL     1     112.187 126.792 139.247  0.00  0.00    +0.000 OA
BRANCH   3  10
ATOM     10  O   UNL     1     110.245 126.144 136.616  0.00  0.00    +0.000 OA
BRANCH  10  11
ATOM     11  C   UNL     1     109.748 126.919 136.127  0.00  0.00    +0.000 C 
ATOM     12  O   UNL     1     109.460 126.427 135.387  0.00  0.00    +0.000 OA
BRANCH  11  13
ATOM     13  C   UNL     1     109.477 127.872 136.121  0.00  0.00    +0.000 C 
ATOM     14  C   UNL     1     109.557 128.376 135.336  0.00  0.00    +0.000 C 
BRANCH  14  15
ATOM     15  C   UNL     1     109.331 129.172 135.330  0.00  0.00    +0.000 A 
ATOM     16  C   UNL     1     109.630 129.755 134.619  0.00  0.00    +0.000 A 
ATOM     17  C   UNL     1     109.366 130.684 134.613  0.00  0.00    +0.000 A 
ATOM     18  C   UNL     1     108.803 131.031 135.318  0.00  0.00    +0.000 A 
ATOM     19  C   UNL     1     108.505 130.449 136.028  0.00  0.00    +0.000 A 
ATOM     20  C   UNL     1     108.768 129.519 136.034  0.00  0.00    +0.000 A 
ATOM     21  O   UNL     1     108.540 131.958 135.312  0.00  0.00    +0.000 OA
ENDBRANCH  14  15
ENDBRANCH  11  13
ENDBRANCH  10  11
ENDBRANCH   3  10
BRANCH   4  22
ATOM     22  O   UNL     1     111.507 126.594 137.541  0.00  0.00    +0.000 OA
BRANCH  22  27
ATOM     23  C   UNL     1     112.764 128.051 136.677  0.00  0.00    +0.000 C 
ATOM     24  C   UNL     1     113.665 128.309 136.191  0.00  0.00    +0.000 C 
ATOM     25  C   UNL     1     113.227 127.420 136.556  0.00  0.00    +0.000 C 
ATOM     26  C   UNL     1     113.300 126.372 136.696  0.00  0.00    +0.000 C 
ATOM     27  C   UNL     1     112.400 126.114 137.182  0.00  0.00    +0.000 C 
ATOM     28  O   UNL     1     112.837 127.001 136.818  0.00  0.00    +0.000 OA
ATOM     29  C   UNL     1     113.046 128.965 136.385  0.00  0.00    +0.000 C 
ATOM     30  O   UNL     1     113.643 129.002 136.085  0.00  0.00    +0.000 OA
ATOM     31  O   UNL     1     114.070 127.854 136.068  0.00  0.00    +0.000 OA
ATOM     32  O   UNL     1     114.085 126.134 136.350  0.00  0.00    +0.000 OA
ENDBRANCH  22  27
ENDBRANCH   4  22
ENDBRANCH   1   6
BRANCH   1  33
ATOM     33  C   UNL     1     109.340 125.520 140.682  0.00  0.00    +0.000 C 
BRANCH  33  37
ATOM     34  C   UNL     1     107.496 126.803 141.730  0.00  0.00    +0.000 C 
ATOM     35  C   UNL     1     107.811 127.797 141.563  0.00  0.00    +0.000 C 
ATOM     36  O   UNL     1     108.186 126.835 141.343  0.00  0.00    +0.000 OA
ATOM     37  C   UNL     1     108.951 126.244 140.907  0.00  0.00    +0.000 C 
ATOM     38  C   UNL     1     108.637 125.250 141.075  0.00  0.00    +0.000 C 
ATOM     39  C   UNL     1     108.262 126.212 141.295  0.00  0.00    +0.000 C 
ATOM     40  O   UNL     1     107.053 127.583 141.986  0.00  0.00    +0.000 OA
ATOM     41  O   UNL     1     108.081 125.258 141.387  0.00  0.00    +0.000 OA
ATOM     42  O   UNL     1     109.339 124.654 140.675  0.00  0.00    +0.000 OA
BRANCH  35  43
ATOM     43  O   UNL     1     107.048 128.321 141.996  0.00  0.00    +0.000 OA
BRANCH  43  51
ATOM     44  C   UNL     1     103.068 130.711 142.715  0.00  0.00    +0.000 A 
ATOM     45  C   UNL     1     102.932 130.074 141.945  0.00  0.00    +0.000 A 
ATOM     46  C   UNL     1     103.687 129.474 141.646  0.00  0.00    +0.000 A 
ATOM     47  C   UNL     1     104.578 129.511 142.119  0.00  0.00    +0.000 A 
ATOM     48  C   UNL     1     104.714 130.149 142.889  0.00  0.00    +0.000 A 
ATOM     49  C   UNL     1     103.959 130.749 143.188  0.00  0.00    +0.000 A 
ATOM     50  C   UNL     1     105.333 128.912 141.820  0.00  0.00    +0.000 A 
ATOM     51  C   UNL     1     106.224 128.949 142.293  0.00  0.00    +0.000 A 
ATOM     52  C   UNL     1     106.360 129.587 143.063  0.00  0.00    +0.000 A 
ATOM     53  O   UNL     1     105.605 130.187 143.362  0.00  0.00    +0.000 OA
ATOM     54  O   UNL     1     105.226 128.415 141.219  0.00  0.00    +0.000 OA
ATOM     55  O   UNL     1     102.313 131.311 143.014  0.00  0.00    +0.000 OA
ATOM     56  O   UNL     1     103.550 128.836 140.876  0.00  0.00    +0.000 OA
BRANCH  52  57
ATOM     57  C   UNL     1     107.251 129.625 143.536  0.00  0.00    +0.000 A 
ATOM     58  C   UNL     1     108.015 130.193 143.148  0.00  0.00    +0.000 A 
ATOM     59  C   UNL     1     108.923 130.233 143.629  0.00  0.00    +0.000 A 
ATOM     60  C   UNL     1     109.068 129.702 144.499  0.00  0.00    +0.000 A 
ATOM     61  C   UNL     1     108.304 129.133 144.887  0.00  0.00    +0.000 A 
ATOM     62  C   UNL     1     107.395 129.094 144.406  0.00  0.00    +0.000 A 
ATOM     63  O   UNL     1     110.083 129.746 145.037  0.00  0.00    +0.000 OA
ENDBRANCH  52  57
ENDBRANCH  43  51
ENDBRANCH  35  43
ENDBRANCH  33  37
ENDBRANCH   1  33
TORSDOF 12
ENDMDL
