MODEL 1
REMARK VINA RESULT:      -8.4      0.000      0.000
REMARK  Name = 10381709
REMARK  3 active torsions:
REMARK  status: ('A' for Active; 'I' for Inactive)
REMARK    1  A    between atoms: O_4  and  C_11
REMARK    2  A    between atoms: O_5  and  C_20
REMARK    3  A    between atoms: C_7  and  C_8
REMARK                            x       y       z     vdW  Elec       q    Type
REMARK                         _______ _______ _______ _____ _____    ______ ____
ROOT
ATOM      1  O   UNL     1     105.165 124.271 147.274  0.00  0.00    +0.000 OA
ATOM      2  O   UNL     1     106.479 125.387 145.498  0.00  0.00    +0.000 OA
ATOM      3  C   UNL     1     104.867 124.313 146.505  0.00  0.00    +0.000 A 
ATOM      4  C   UNL     1     106.338 124.972 146.858  0.00  0.00    +0.000 A 
ATOM      5  C   UNL     1     105.901 124.600 147.450  0.00  0.00    +0.000 A 
ATOM      6  C   UNL     1     105.305 124.685 145.913  0.00  0.00    +0.000 A 
ATOM      7  C   UNL     1     106.041 125.015 146.090  0.00  0.00    +0.000 A 
ATOM      8  C   UNL     1     106.200 124.550 148.254  0.00  0.00    +0.000 A 
ATOM      9  C   UNL     1     107.106 125.319 147.029  0.00  0.00    +0.000 A 
ATOM     10  C   UNL     1     106.965 124.891 148.443  0.00  0.00    +0.000 A 
ATOM     11  C   UNL     1     107.421 125.278 147.827  0.00  0.00    +0.000 A 
ENDROOT
BRANCH   3  14
ATOM     12  O   UNL     1     101.940 124.348 146.433  0.00  0.00    +0.000 OA
ATOM     13  O   UNL     1     101.867 123.146 145.872  0.00  0.00    +0.000 OA
ATOM     14  C   UNL     1     104.132 123.984 146.330  0.00  0.00    +0.000 A 
ATOM     15  C   UNL     1     102.706 124.072 146.328  0.00  0.00    +0.000 A 
ATOM     16  C   UNL     1     103.441 124.401 146.503  0.00  0.00    +0.000 A 
ATOM     17  C   UNL     1     102.660 123.325 145.979  0.00  0.00    +0.000 A 
ATOM     18  C   UNL     1     104.086 123.237 145.981  0.00  0.00    +0.000 A 
ATOM     19  C   UNL     1     103.350 122.909 145.806  0.00  0.00    +0.000 A 
ATOM     20  C   UNL     1     101.423 123.777 146.152  0.00  0.00    +0.000 C 
ENDBRANCH   3  14
BRANCH   6  21
ATOM     21  O   UNL     1     105.007 124.728 145.146  0.00  0.00    +0.000 OA
ATOM     22  C   UNL     1     105.490 124.990 144.530  0.00  0.00    +0.000 C 
ENDBRANCH   6  21
BRANCH  10  23
ATOM     23  O   UNL     1     107.260 124.847 149.213  0.00  0.00    +0.000 OA
ATOM     24  C   UNL     1     107.931 124.394 149.372  0.00  0.00    +0.000 C 
ENDBRANCH  10  23
TORSDOF 3
ENDMDL
MODEL 2
REMARK VINA RESULT:      -7.8      6.959      8.322
REMARK  Name = 10381709
REMARK  3 active torsions:
REMARK  status: ('A' for Active; 'I' for Inactive)
REMARK    1  A    between atoms: O_4  and  C_11
REMARK    2  A    between atoms: O_5  and  C_20
REMARK    3  A    between atoms: C_7  and  C_8
REMARK                            x       y       z     vdW  Elec       q    Type
REMARK                         _______ _______ _______ _____ _____    ______ ____
ROOT
ATOM      1  O   UNL     1     103.346 130.216 142.366  0.00  0.00    +0.000 OA
ATOM      2  O   UNL     1     103.319 128.751 140.372  0.00  0.00    +0.000 OA
ATOM      3  C   UNL     1     102.864 130.404 141.723  0.00  0.00    +0.000 A 
ATOM      4  C   UNL     1     103.810 129.052 141.679  0.00  0.00    +0.000 A 
ATOM      5  C   UNL     1     103.819 129.540 142.344  0.00  0.00    +0.000 A 
ATOM      6  C   UNL     1     102.855 129.915 141.058  0.00  0.00    +0.000 A 
ATOM      7  C   UNL     1     103.328 129.239 141.037  0.00  0.00    +0.000 A 
ATOM      8  C   UNL     1     104.316 129.355 143.020  0.00  0.00    +0.000 A 
ATOM      9  C   UNL     1     104.298 128.345 141.644  0.00  0.00    +0.000 A 
ATOM     10  C   UNL     1     104.810 128.653 143.003  0.00  0.00    +0.000 A 
ATOM     11  C   UNL     1     104.801 128.145 142.311  0.00  0.00    +0.000 A 
ENDROOT
BRANCH   3  14
ATOM     12  O   UNL     1     102.388 133.270 141.358  0.00  0.00    +0.000 OA
ATOM     13  O   UNL     1     101.123 133.185 141.754  0.00  0.00    +0.000 OA
ATOM     14  C   UNL     1     102.392 131.080 141.745  0.00  0.00    +0.000 A 
ATOM     15  C   UNL     1     102.234 132.485 141.543  0.00  0.00    +0.000 A 
ATOM     16  C   UNL     1     102.706 131.810 141.521  0.00  0.00    +0.000 A 
ATOM     17  C   UNL     1     101.448 132.432 141.789  0.00  0.00    +0.000 A 
ATOM     18  C   UNL     1     101.607 131.027 141.991  0.00  0.00    +0.000 A 
ATOM     19  C   UNL     1     101.135 131.704 142.013  0.00  0.00    +0.000 A 
ATOM     20  C   UNL     1     101.702 133.701 141.488  0.00  0.00    +0.000 C 
ENDBRANCH   3  14
BRANCH   6  21
ATOM     21  O   UNL     1     102.374 130.103 140.415  0.00  0.00    +0.000 OA
ATOM     22  C   UNL     1     102.258 129.552 139.812  0.00  0.00    +0.000 C 
ENDBRANCH   6  21
BRANCH  10  23
ATOM     23  O   UNL     1     105.291 128.469 143.648  0.00  0.00    +0.000 OA
ATOM     24  C   UNL     1     105.466 127.681 143.820  0.00  0.00    +0.000 C 
ENDBRANCH  10  23
TORSDOF 3
ENDMDL
MODEL 3
REMARK VINA RESULT:      -7.8     10.665     12.067
REMARK  Name = 10381709
REMARK  3 active torsions:
REMARK  status: ('A' for Active; 'I' for Inactive)
REMARK    1  A    between atoms: O_4  and  C_11
REMARK    2  A    between atoms: O_5  and  C_20
REMARK    3  A    between atoms: C_7  and  C_8
REMARK                            x       y       z     vdW  Elec       q    Type
REMARK                         _______ _______ _______ _____ _____    ______ ____
ROOT
ATOM      1  O   UNL     1     112.200 126.190 138.118  0.00  0.00    +0.000 OA
ATOM      2  O   UNL     1     114.590 125.593 137.874  0.00  0.00    +0.000 OA
ATOM      3  C   UNL     1     112.465 125.822 137.428  0.00  0.00    +0.000 A 
ATOM      4  C   UNL     1     113.528 126.160 138.644  0.00  0.00    +0.000 A 
ATOM      5  C   UNL     1     112.731 126.358 138.725  0.00  0.00    +0.000 A 
ATOM      6  C   UNL     1     113.262 125.623 137.347  0.00  0.00    +0.000 A 
ATOM      7  C   UNL     1     113.793 125.792 137.955  0.00  0.00    +0.000 A 
ATOM      8  C   UNL     1     112.443 126.742 139.439  0.00  0.00    +0.000 A 
ATOM      9  C   UNL     1     114.091 126.331 139.271  0.00  0.00    +0.000 A 
ATOM     10  C   UNL     1     112.992 126.921 140.075  0.00  0.00    +0.000 A 
ATOM     11  C   UNL     1     113.821 126.714 139.991  0.00  0.00    +0.000 A 
ENDROOT
BRANCH   3  14
ATOM     12  O   UNL     1     110.907 126.525 135.050  0.00  0.00    +0.000 OA
ATOM     13  O   UNL     1     110.370 125.315 134.954  0.00  0.00    +0.000 OA
ATOM     14  C   UNL     1     111.934 125.653 136.820  0.00  0.00    +0.000 A 
ATOM     15  C   UNL     1     111.204 126.068 135.664  0.00  0.00    +0.000 A 
ATOM     16  C   UNL     1     111.736 126.237 136.272  0.00  0.00    +0.000 A 
ATOM     17  C   UNL     1     110.870 125.316 135.604  0.00  0.00    +0.000 A 
ATOM     18  C   UNL     1     111.600 124.901 136.761  0.00  0.00    +0.000 A 
ATOM     19  C   UNL     1     111.068 124.733 136.152  0.00  0.00    +0.000 A 
ATOM     20  C   UNL     1     110.393 126.060 134.613  0.00  0.00    +0.000 C 
ENDBRANCH   3  14
BRANCH   6  21
ATOM     21  O   UNL     1     113.527 125.255 136.658  0.00  0.00    +0.000 OA
ATOM     22  C   UNL     1     114.336 125.164 136.525  0.00  0.00    +0.000 C 
ENDBRANCH   6  21
BRANCH  10  23
ATOM     23  O   UNL     1     112.723 127.289 140.763  0.00  0.00    +0.000 OA
ATOM     24  C   UNL     1     113.056 128.004 141.005  0.00  0.00    +0.000 C 
ENDBRANCH  10  23
TORSDOF 3
ENDMDL
MODEL 4
REMARK VINA RESULT:      -7.7     11.852     13.810
REMARK  Name = 10381709
REMARK  3 active torsions:
REMARK  status: ('A' for Active; 'I' for Inactive)
REMARK    1  A    between atoms: O_4  and  C_11
REMARK    2  A    between atoms: O_5  and  C_20
REMARK    3  A    between atoms: C_7  and  C_8
REMARK                            x       y       z     vdW  Elec       q    Type
REMARK                         _______ _______ _______ _____ _____    ______ ____
ROOT
ATOM      1  O   UNL     1     113.782 127.429 136.112  0.00  0.00    +0.000 OA
ATOM      2  O   UNL     1     112.897 128.807 137.967  0.00  0.00    +0.000 OA
ATOM      3  C   UNL     1     113.446 127.065 136.773  0.00  0.00    +0.000 A 
ATOM      4  C   UNL     1     113.527 128.711 136.689  0.00  0.00    +0.000 A 
ATOM      5  C   UNL     1     113.822 128.252 136.070  0.00  0.00    +0.000 A 
ATOM      6  C   UNL     1     113.151 127.524 137.391  0.00  0.00    +0.000 A 
ATOM      7  C   UNL     1     113.192 128.348 137.349  0.00  0.00    +0.000 A 
ATOM      8  C   UNL     1     114.173 128.619 135.377  0.00  0.00    +0.000 A 
ATOM      9  C   UNL     1     113.563 129.569 136.657  0.00  0.00    +0.000 A 
ATOM     10  C   UNL     1     114.218 129.475 135.328  0.00  0.00    +0.000 A 
ATOM     11  C   UNL     1     113.910 129.953 135.972  0.00  0.00    +0.000 A 
ENDROOT
BRANCH   3  14
ATOM     12  O   UNL     1     112.108 124.491 136.370  0.00  0.00    +0.000 OA
ATOM     13  O   UNL     1     113.128 123.801 136.867  0.00  0.00    +0.000 OA
ATOM     14  C   UNL     1     113.407 126.242 136.814  0.00  0.00    +0.000 A 
ATOM     15  C   UNL     1     112.692 125.025 136.588  0.00  0.00    +0.000 A 
ATOM     16  C   UNL     1     112.732 125.848 136.547  0.00  0.00    +0.000 A 
ATOM     17  C   UNL     1     113.326 124.596 136.896  0.00  0.00    +0.000 A 
ATOM     18  C   UNL     1     114.040 125.813 137.123  0.00  0.00    +0.000 A 
ATOM     19  C   UNL     1     113.999 124.990 137.164  0.00  0.00    +0.000 A 
ATOM     20  C   UNL     1     112.378 123.736 136.542  0.00  0.00    +0.000 C 
ENDBRANCH   3  14
BRANCH   6  21
ATOM     21  O   UNL     1     112.816 127.161 138.051  0.00  0.00    +0.000 OA
ATOM     22  C   UNL     1     112.513 127.621 138.665  0.00  0.00    +0.000 C 
ENDBRANCH   6  21
BRANCH  10  23
ATOM     23  O   UNL     1     114.554 129.835 134.665  0.00  0.00    +0.000 OA
ATOM     24  C   UNL     1     115.162 130.385 134.760  0.00  0.00    +0.000 C 
ENDBRANCH  10  23
TORSDOF 3
ENDMDL
MODEL 5
REMARK VINA RESULT:      -7.7      1.301      4.271
REMARK  Name = 10381709
REMARK  3 active torsions:
REMARK  status: ('A' for Active; 'I' for Inactive)
REMARK    1  A    between atoms: O_4  and  C_11
REMARK    2  A    between atoms: O_5  and  C_20
REMARK    3  A    between atoms: C_7  and  C_8
REMARK                            x       y       z     vdW  Elec       q    Type
REMARK                         _______ _______ _______ _____ _____    ______ ____
ROOT
ATOM      1  O   UNL     1     103.481 124.737 147.160  0.00  0.00    +0.000 OA
ATOM      2  O   UNL     1     102.832 122.767 145.810  0.00  0.00    +0.000 OA
ATOM      3  C   UNL     1     104.008 124.425 146.607  0.00  0.00    +0.000 A 
ATOM      4  C   UNL     1     102.523 123.736 146.813  0.00  0.00    +0.000 A 
ATOM      5  C   UNL     1     102.739 124.392 147.263  0.00  0.00    +0.000 A 
ATOM      6  C   UNL     1     103.791 123.768 146.157  0.00  0.00    +0.000 A 
ATOM      7  C   UNL     1     103.049 123.424 146.260  0.00  0.00    +0.000 A 
ATOM      8  C   UNL     1     102.199 124.727 147.843  0.00  0.00    +0.000 A 
ATOM      9  C   UNL     1     101.752 123.368 146.912  0.00  0.00    +0.000 A 
ATOM     10  C   UNL     1     101.425 124.373 147.955  0.00  0.00    +0.000 A 
ATOM     11  C   UNL     1     101.200 123.689 147.486  0.00  0.00    +0.000 A 
ENDROOT
BRANCH   3  14
ATOM     12  O   UNL     1     106.804 124.874 147.350  0.00  0.00    +0.000 OA
ATOM     13  O   UNL     1     107.015 125.709 146.339  0.00  0.00    +0.000 OA
ATOM     14  C   UNL     1     104.750 124.769 146.504  0.00  0.00    +0.000 A 
ATOM     15  C   UNL     1     106.104 124.939 146.927  0.00  0.00    +0.000 A 
ATOM     16  C   UNL     1     105.362 124.595 147.030  0.00  0.00    +0.000 A 
ATOM     17  C   UNL     1     106.235 125.459 146.299  0.00  0.00    +0.000 A 
ATOM     18  C   UNL     1     104.881 125.289 145.876  0.00  0.00    +0.000 A 
ATOM     19  C   UNL     1     105.624 125.633 145.774  0.00  0.00    +0.000 A 
ATOM     20  C   UNL     1     107.366 125.349 146.987  0.00  0.00    +0.000 C 
ENDBRANCH   3  14
BRANCH   6  21
ATOM     21  O   UNL     1     104.317 123.456 145.604  0.00  0.00    +0.000 OA
ATOM     22  C   UNL     1     104.095 122.808 145.143  0.00  0.00    +0.000 C 
ENDBRANCH   6  21
BRANCH  10  23
ATOM     23  O   UNL     1     100.901 124.688 148.510  0.00  0.00    +0.000 OA
ATOM     24  C   UNL     1     100.710 124.257 149.187  0.00  0.00    +0.000 C 
ENDBRANCH  10  23
TORSDOF 3
ENDMDL
MODEL 6
REMARK VINA RESULT:      -7.6     12.674     13.151
REMARK  Name = 10381709
REMARK  3 active torsions:
REMARK  status: ('A' for Active; 'I' for Inactive)
REMARK    1  A    between atoms: O_4  and  C_11
REMARK    2  A    between atoms: O_5  and  C_20
REMARK    3  A    between atoms: C_7  and  C_8
REMARK                            x       y       z     vdW  Elec       q    Type
REMARK                         _______ _______ _______ _____ _____    ______ ____
ROOT
ATOM      1  O   UNL     1     112.303 126.546 136.302  0.00  0.00    +0.000 OA
ATOM      2  O   UNL     1     110.659 124.868 135.522  0.00  0.00    +0.000 OA
ATOM      3  C   UNL     1     111.622 126.790 135.903  0.00  0.00    +0.000 A 
ATOM      4  C   UNL     1     111.887 125.185 136.179  0.00  0.00    +0.000 A 
ATOM      5  C   UNL     1     112.435 125.744 136.439  0.00  0.00    +0.000 A 
ATOM      6  C   UNL     1     111.074 126.230 135.643  0.00  0.00    +0.000 A 
ATOM      7  C   UNL     1     111.207 125.428 135.782  0.00  0.00    +0.000 A 
ATOM      8  C   UNL     1     113.147 125.503 136.855  0.00  0.00    +0.000 A 
ATOM      9  C   UNL     1     112.014 124.346 136.317  0.00  0.00    +0.000 A 
ATOM     10  C   UNL     1     113.291 124.669 137.002  0.00  0.00    +0.000 A 
ATOM     11  C   UNL     1     112.720 124.086 136.732  0.00  0.00    +0.000 A 
ENDROOT
BRANCH   3  14
ATOM     12  O   UNL     1     110.604 129.434 136.643  0.00  0.00    +0.000 OA
ATOM     13  O   UNL     1     111.018 129.991 135.511  0.00  0.00    +0.000 OA
ATOM     14  C   UNL     1     111.490 127.592 135.765  0.00  0.00    +0.000 A 
ATOM     15  C   UNL     1     110.968 128.851 136.194  0.00  0.00    +0.000 A 
ATOM     16  C   UNL     1     111.100 128.049 136.332  0.00  0.00    +0.000 A 
ATOM     17  C   UNL     1     111.225 129.197 135.491  0.00  0.00    +0.000 A 
ATOM     18  C   UNL     1     111.747 127.938 135.062  0.00  0.00    +0.000 A 
ATOM     19  C   UNL     1     111.615 128.741 134.925  0.00  0.00    +0.000 A 
ATOM     20  C   UNL     1     110.636 130.136 136.221  0.00  0.00    +0.000 C 
ENDBRANCH   3  14
BRANCH   6  21
ATOM     21  O   UNL     1     110.394 126.473 135.245  0.00  0.00    +0.000 OA
ATOM     22  C   UNL     1     109.880 125.912 134.927  0.00  0.00    +0.000 C 
ENDBRANCH   6  21
BRANCH  10  23
ATOM     23  O   UNL     1     113.972 124.429 137.401  0.00  0.00    +0.000 OA
ATOM     24  C   UNL     1     114.696 124.789 137.233  0.00  0.00    +0.000 C 
ENDBRANCH  10  23
TORSDOF 3
ENDMDL
MODEL 7
REMARK VINA RESULT:      -7.6      2.641      4.437
REMARK  Name = 10381709
REMARK  3 active torsions:
REMARK  status: ('A' for Active; 'I' for Inactive)
REMARK    1  A    between atoms: O_4  and  C_11
REMARK    2  A    between atoms: O_5  and  C_20
REMARK    3  A    between atoms: C_7  and  C_8
REMARK                            x       y       z     vdW  Elec       q    Type
REMARK                         _______ _______ _______ _____ _____    ______ ____
ROOT
ATOM      1  O   UNL     1     106.566 125.163 145.870  0.00  0.00    +0.000 OA
ATOM      2  O   UNL     1     106.009 127.573 145.785  0.00  0.00    +0.000 OA
ATOM      3  C   UNL     1     106.701 125.642 146.529  0.00  0.00    +0.000 A 
ATOM      4  C   UNL     1     106.060 126.292 145.155  0.00  0.00    +0.000 A 
ATOM      5  C   UNL     1     106.245 125.489 145.183  0.00  0.00    +0.000 A 
ATOM      6  C   UNL     1     106.516 126.445 146.500  0.00  0.00    +0.000 A 
ATOM      7  C   UNL     1     106.195 126.770 145.813  0.00  0.00    +0.000 A 
ATOM      8  C   UNL     1     106.109 124.981 144.503  0.00  0.00    +0.000 A 
ATOM      9  C   UNL     1     105.725 126.643 144.445  0.00  0.00    +0.000 A 
ATOM     10  C   UNL     1     105.776 125.314 143.785  0.00  0.00    +0.000 A 
ATOM     11  C   UNL     1     105.582 126.150 143.756  0.00  0.00    +0.000 A 
ENDROOT
BRANCH   3  14
ATOM     12  O   UNL     1     106.509 124.226 149.085  0.00  0.00    +0.000 OA
ATOM     13  O   UNL     1     107.816 124.297 149.307  0.00  0.00    +0.000 OA
ATOM     14  C   UNL     1     107.022 125.316 147.215  0.00  0.00    +0.000 A 
ATOM     15  C   UNL     1     106.851 124.620 148.451  0.00  0.00    +0.000 A 
ATOM     16  C   UNL     1     106.530 124.946 147.765  0.00  0.00    +0.000 A 
ATOM     17  C   UNL     1     107.663 124.664 148.589  0.00  0.00    +0.000 A 
ATOM     18  C   UNL     1     107.834 125.360 147.353  0.00  0.00    +0.000 A 
ATOM     19  C   UNL     1     108.154 125.034 148.040  0.00  0.00    +0.000 A 
ATOM     20  C   UNL     1     107.105 124.027 149.612  0.00  0.00    +0.000 C 
ENDBRANCH   3  14
BRANCH   6  21
ATOM     21  O   UNL     1     106.651 126.923 147.159  0.00  0.00    +0.000 OA
ATOM     22  C   UNL     1     106.352 127.692 147.178  0.00  0.00    +0.000 C 
ENDBRANCH   6  21
BRANCH  10  23
ATOM     23  O   UNL     1     105.642 124.832 143.128  0.00  0.00    +0.000 OA
ATOM     24  C   UNL     1     106.048 124.974 142.424  0.00  0.00    +0.000 C 
ENDBRANCH  10  23
TORSDOF 3
ENDMDL
MODEL 8
REMARK VINA RESULT:      -7.6     11.300     13.212
REMARK  Name = 10381709
REMARK  3 active torsions:
REMARK  status: ('A' for Active; 'I' for Inactive)
REMARK    1  A    between atoms: O_4  and  C_11
REMARK    2  A    between atoms: O_5  and  C_20
REMARK    3  A    between atoms: C_7  and  C_8
REMARK                            x       y       z     vdW  Elec       q    Type
REMARK                         _______ _______ _______ _____ _____    ______ ____
ROOT
ATOM      1  O   UNL     1     112.140 126.963 136.162  0.00  0.00    +0.000 OA
ATOM      2  O   UNL     1     110.258 127.389 134.612  0.00  0.00    +0.000 OA
ATOM      3  C   UNL     1     111.535 126.407 136.085  0.00  0.00    +0.000 A 
ATOM      4  C   UNL     1     111.490 127.802 135.206  0.00  0.00    +0.000 A 
ATOM      5  C   UNL     1     112.117 127.660 135.722  0.00  0.00    +0.000 A 
ATOM      6  C   UNL     1     110.907 126.549 135.568  0.00  0.00    +0.000 A 
ATOM      7  C   UNL     1     110.886 127.247 135.129  0.00  0.00    +0.000 A 
ATOM      8  C   UNL     1     112.753 128.232 135.811  0.00  0.00    +0.000 A 
ATOM      9  C   UNL     1     111.455 128.526 134.742  0.00  0.00    +0.000 A 
ATOM     10  C   UNL     1     112.735 128.960 135.356  0.00  0.00    +0.000 A 
ATOM     11  C   UNL     1     112.082 129.108 134.818  0.00  0.00    +0.000 A 
ENDROOT
BRANCH   3  14
ATOM     12  O   UNL     1     112.284 123.607 136.505  0.00  0.00    +0.000 OA
ATOM     13  O   UNL     1     111.715 123.558 137.704  0.00  0.00    +0.000 OA
ATOM     14  C   UNL     1     111.558 125.709 136.525  0.00  0.00    +0.000 A 
ATOM     15  C   UNL     1     111.957 124.344 136.659  0.00  0.00    +0.000 A 
ATOM     16  C   UNL     1     111.934 125.041 136.219  0.00  0.00    +0.000 A 
ATOM     17  C   UNL     1     111.604 124.314 137.404  0.00  0.00    +0.000 A 
ATOM     18  C   UNL     1     111.205 125.679 137.270  0.00  0.00    +0.000 A 
ATOM     19  C   UNL     1     111.228 124.981 137.709  0.00  0.00    +0.000 A 
ATOM     20  C   UNL     1     112.134 123.123 137.149  0.00  0.00    +0.000 C 
ENDBRANCH   3  14
BRANCH   6  21
ATOM     21  O   UNL     1     110.303 125.993 135.492  0.00  0.00    +0.000 OA
ATOM     22  C   UNL     1     109.720 126.096 134.917  0.00  0.00    +0.000 C 
ENDBRANCH   6  21
BRANCH  10  23
ATOM     23  O   UNL     1     113.342 129.514 135.436  0.00  0.00    +0.000 OA
ATOM     24  C   UNL     1     114.000 129.479 134.938  0.00  0.00    +0.000 C 
ENDBRANCH  10  23
TORSDOF 3
ENDMDL
MODEL 9
REMARK VINA RESULT:      -7.6     10.760     12.591
REMARK  Name = 10381709
REMARK  3 active torsions:
REMARK  status: ('A' for Active; 'I' for Inactive)
REMARK    1  A    between atoms: O_4  and  C_11
REMARK    2  A    between atoms: O_5  and  C_20
REMARK    3  A    between atoms: C_7  and  C_8
REMARK                            x       y       z     vdW  Elec       q    Type
REMARK                         _______ _______ _______ _____ _____    ______ ____
ROOT
ATOM      1  O   UNL     1     111.657 126.582 136.782  0.00  0.00    +0.000 OA
ATOM      2  O   UNL     1     111.199 124.252 136.084  0.00  0.00    +0.000 OA
ATOM      3  C   UNL     1     111.991 125.953 137.199  0.00  0.00    +0.000 A 
ATOM      4  C   UNL     1     111.018 125.657 135.900  0.00  0.00    +0.000 A 
ATOM      5  C   UNL     1     111.171 126.433 136.132  0.00  0.00    +0.000 A 
ATOM      6  C   UNL     1     111.838 125.176 136.967  0.00  0.00    +0.000 A 
ATOM      7  C   UNL     1     111.352 125.029 136.317  0.00  0.00    +0.000 A 
ATOM      8  C   UNL     1     110.829 127.097 135.705  0.00  0.00    +0.000 A 
ATOM      9  C   UNL     1     110.513 125.490 135.224  0.00  0.00    +0.000 A 
ATOM     10  C   UNL     1     110.322 126.949 135.028  0.00  0.00    +0.000 A 
ATOM     11  C   UNL     1     110.163 126.140 134.786  0.00  0.00    +0.000 A 
ENDROOT
BRANCH   3  14
ATOM     12  O   UNL     1     112.460 126.595 140.018  0.00  0.00    +0.000 OA
ATOM     13  O   UNL     1     113.780 126.566 139.881  0.00  0.00    +0.000 OA
ATOM     14  C   UNL     1     112.477 126.102 137.849  0.00  0.00    +0.000 A 
ATOM     15  C   UNL     1     112.628 126.417 139.235  0.00  0.00    +0.000 A 
ATOM     16  C   UNL     1     112.142 126.268 138.585  0.00  0.00    +0.000 A 
ATOM     17  C   UNL     1     113.448 126.399 139.149  0.00  0.00    +0.000 A 
ATOM     18  C   UNL     1     113.297 126.084 137.764  0.00  0.00    +0.000 A 
ATOM     19  C   UNL     1     113.783 126.233 138.414  0.00  0.00    +0.000 A 
ATOM     20  C   UNL     1     113.171 126.687 140.416  0.00  0.00    +0.000 C 
ENDBRANCH   3  14
BRANCH   6  21
ATOM     21  O   UNL     1     112.172 124.548 137.384  0.00  0.00    +0.000 OA
ATOM     22  C   UNL     1     111.997 123.771 137.169  0.00  0.00    +0.000 C 
ENDBRANCH   6  21
BRANCH  10  23
ATOM     23  O   UNL     1     109.990 127.580 134.613  0.00  0.00    +0.000 OA
ATOM     24  C   UNL     1     109.611 128.188 135.022  0.00  0.00    +0.000 C 
ENDBRANCH  10  23
TORSDOF 3
ENDMDL
MODEL 10
REMARK VINA RESULT:      -7.5     12.058     12.909
REMARK  Name = 10381709
REMARK  3 active torsions:
REMARK  status: ('A' for Active; 'I' for Inactive)
REMARK    1  A    between atoms: O_4  and  C_11
REMARK    2  A    between atoms: O_5  and  C_20
REMARK    3  A    between atoms: C_7  and  C_8
REMARK                            x       y       z     vdW  Elec       q    Type
REMARK                         _______ _______ _______ _____ _____    ______ ____
ROOT
ATOM      1  O   UNL     1     111.137 126.229 135.935  0.00  0.00    +0.000 OA
ATOM      2  O   UNL     1     113.420 127.015 136.476  0.00  0.00    +0.000 OA
ATOM      3  C   UNL     1     111.321 127.032 135.880  0.00  0.00    +0.000 A 
ATOM      4  C   UNL     1     112.475 125.951 136.350  0.00  0.00    +0.000 A 
ATOM      5  C   UNL     1     111.714 125.689 136.170  0.00  0.00    +0.000 A 
ATOM      6  C   UNL     1     112.082 127.294 136.060  0.00  0.00    +0.000 A 
ATOM      7  C   UNL     1     112.659 126.753 136.295  0.00  0.00    +0.000 A 
ATOM      8  C   UNL     1     111.510 124.856 136.224  0.00  0.00    +0.000 A 
ATOM      9  C   UNL     1     113.085 125.398 136.597  0.00  0.00    +0.000 A 
ATOM     10  C   UNL     1     112.107 124.289 136.468  0.00  0.00    +0.000 A 
ATOM     11  C   UNL     1     112.900 124.561 136.656  0.00  0.00    +0.000 A 
ENDROOT
BRANCH   3  14
ATOM     12  O   UNL     1     109.107 128.879 136.394  0.00  0.00    +0.000 OA
ATOM     13  O   UNL     1     108.975 129.194 135.111  0.00  0.00    +0.000 OA
ATOM     14  C   UNL     1     110.743 127.572 135.644  0.00  0.00    +0.000 A 
ATOM     15  C   UNL     1     109.669 128.456 135.972  0.00  0.00    +0.000 A 
ATOM     16  C   UNL     1     110.247 127.916 136.207  0.00  0.00    +0.000 A 
ATOM     17  C   UNL     1     109.587 128.652 135.174  0.00  0.00    +0.000 A 
ATOM     18  C   UNL     1     110.661 127.768 134.847  0.00  0.00    +0.000 A 
ATOM     19  C   UNL     1     110.083 128.308 134.613  0.00  0.00    +0.000 A 
ATOM     20  C   UNL     1     108.680 129.334 135.863  0.00  0.00    +0.000 C 
ENDBRANCH   3  14
BRANCH   6  21
ATOM     21  O   UNL     1     112.266 128.096 136.005  0.00  0.00    +0.000 OA
ATOM     22  C   UNL     1     113.019 128.362 136.212  0.00  0.00    +0.000 C 
ENDBRANCH   6  21
BRANCH  10  23
ATOM     23  O   UNL     1     111.920 123.487 136.522  0.00  0.00    +0.000 OA
ATOM     24  C   UNL     1     111.954 123.104 137.253  0.00  0.00    +0.000 C 
ENDBRANCH  10  23
TORSDOF 3
ENDMDL
