MODEL 1
REMARK VINA RESULT:      -7.7      0.000      0.000
REMARK  Name = 75072285
REMARK  4 active torsions:
REMARK  status: ('A' for Active; 'I' for Inactive)
REMARK    1  A    between atoms: O_3  and  C_17
REMARK    2  A    between atoms: O_4  and  C_19
REMARK    3  A    between atoms: O_5  and  C_21
REMARK    4  A    between atoms: C_7  and  C_11
REMARK                            x       y       z     vdW  Elec       q    Type
REMARK                         _______ _______ _______ _____ _____    ______ ____
ROOT
ATOM      1  O   UNL     1     102.653 132.084 141.441  0.00  0.00    +0.000 OA
ATOM      2  O   UNL     1     103.455 133.480 140.976  0.00  0.00    +0.000 OA
ATOM      3  C   UNL     1     102.266 131.391 141.668  0.00  0.00    +0.000 C 
ATOM      4  C   UNL     1     101.490 131.425 141.946  0.00  0.00    +0.000 C 
ATOM      5  C   UNL     1     101.101 132.151 141.998  0.00  0.00    +0.000 C 
ATOM      6  C   UNL     1     101.489 132.843 141.771  0.00  0.00    +0.000 A 
ATOM      7  C   UNL     1     102.265 132.809 141.492  0.00  0.00    +0.000 A 
ATOM      8  C   UNL     1     101.074 133.594 141.829  0.00  0.00    +0.000 A 
ATOM      9  C   UNL     1     102.679 133.524 141.253  0.00  0.00    +0.000 A 
ATOM     10  C   UNL     1     102.280 134.282 141.305  0.00  0.00    +0.000 A 
ATOM     11  C   UNL     1     101.471 134.318 141.595  0.00  0.00    +0.000 A 
ENDROOT
BRANCH   3  13
ATOM     12  O   UNL     1     103.878 129.356 142.863  0.00  0.00    +0.000 OA
ATOM     13  C   UNL     1     102.654 130.666 141.616  0.00  0.00    +0.000 A 
ATOM     14  C   UNL     1     102.625 130.230 140.916  0.00  0.00    +0.000 A 
ATOM     15  C   UNL     1     103.072 130.374 142.265  0.00  0.00    +0.000 A 
ATOM     16  C   UNL     1     103.013 129.505 140.864  0.00  0.00    +0.000 A 
ATOM     17  C   UNL     1     103.460 129.648 142.214  0.00  0.00    +0.000 A 
ATOM     18  C   UNL     1     103.431 129.213 141.513  0.00  0.00    +0.000 A 
BRANCH  16  19
ATOM     19  O   UNL     1     102.985 129.069 140.164  0.00  0.00    +0.000 OA
ATOM     20  C   UNL     1     102.358 129.176 139.638  0.00  0.00    +0.000 C 
ENDBRANCH  16  19
BRANCH  18  21
ATOM     21  O   UNL     1     103.820 128.487 141.462  0.00  0.00    +0.000 OA
ATOM     22  C   UNL     1     104.632 128.444 141.597  0.00  0.00    +0.000 C 
ENDBRANCH  18  21
ENDBRANCH   3  13
BRANCH  10  23
ATOM     23  O   UNL     1     102.670 134.973 141.077  0.00  0.00    +0.000 OA
ATOM     24  C   UNL     1     102.306 135.706 141.184  0.00  0.00    +0.000 C 
ENDBRANCH  10  23
TORSDOF 4
ENDMDL
MODEL 2
REMARK VINA RESULT:      -7.5      8.045      9.497
REMARK  Name = 75072285
REMARK  4 active torsions:
REMARK  status: ('A' for Active; 'I' for Inactive)
REMARK    1  A    between atoms: O_3  and  C_17
REMARK    2  A    between atoms: O_4  and  C_19
REMARK    3  A    between atoms: O_5  and  C_21
REMARK    4  A    between atoms: C_7  and  C_11
REMARK                            x       y       z     vdW  Elec       q    Type
REMARK                         _______ _______ _______ _____ _____    ______ ____
ROOT
ATOM      1  O   UNL     1     103.880 124.133 146.392  0.00  0.00    +0.000 OA
ATOM      2  O   UNL     1     103.186 123.002 145.368  0.00  0.00    +0.000 OA
ATOM      3  C   UNL     1     104.230 124.687 146.892  0.00  0.00    +0.000 C 
ATOM      4  C   UNL     1     103.765 125.120 147.418  0.00  0.00    +0.000 C 
ATOM      5  C   UNL     1     102.948 124.998 147.443  0.00  0.00    +0.000 C 
ATOM      6  C   UNL     1     102.599 124.444 146.942  0.00  0.00    +0.000 A 
ATOM      7  C   UNL     1     103.065 124.011 146.417  0.00  0.00    +0.000 A 
ATOM      8  C   UNL     1     101.748 124.326 146.978  0.00  0.00    +0.000 A 
ATOM      9  C   UNL     1     102.712 123.430 145.890  0.00  0.00    +0.000 A 
ATOM     10  C   UNL     1     101.863 123.299 145.912  0.00  0.00    +0.000 A 
ATOM     11  C   UNL     1     101.378 123.750 146.460  0.00  0.00    +0.000 A 
ENDROOT
BRANCH   3  13
ATOM     12  O   UNL     1     106.812 124.412 148.087  0.00  0.00    +0.000 OA
ATOM     13  C   UNL     1     105.045 124.809 146.867  0.00  0.00    +0.000 A 
ATOM     14  C   UNL     1     105.387 125.191 146.220  0.00  0.00    +0.000 A 
ATOM     15  C   UNL     1     105.520 124.549 147.490  0.00  0.00    +0.000 A 
ATOM     16  C   UNL     1     106.201 125.313 146.195  0.00  0.00    +0.000 A 
ATOM     17  C   UNL     1     106.337 124.671 147.465  0.00  0.00    +0.000 A 
ATOM     18  C   UNL     1     106.677 125.053 146.817  0.00  0.00    +0.000 A 
BRANCH  16  19
ATOM     19  O   UNL     1     106.543 125.694 145.548  0.00  0.00    +0.000 OA
ATOM     20  C   UNL     1     106.105 125.805 144.857  0.00  0.00    +0.000 C 
ENDBRANCH  16  19
BRANCH  18  21
ATOM     21  O   UNL     1     107.493 125.175 146.793  0.00  0.00    +0.000 OA
ATOM     22  C   UNL     1     107.884 125.478 147.453  0.00  0.00    +0.000 C 
ENDBRANCH  18  21
ENDBRANCH   3  13
BRANCH  10  23
ATOM     23  O   UNL     1     101.516 122.743 145.410  0.00  0.00    +0.000 OA
ATOM     24  C   UNL     1     100.712 122.793 145.233  0.00  0.00    +0.000 C 
ENDBRANCH  10  23
TORSDOF 4
ENDMDL
MODEL 3
REMARK VINA RESULT:      -7.5      8.936     10.017
REMARK  Name = 75072285
REMARK  4 active torsions:
REMARK  status: ('A' for Active; 'I' for Inactive)
REMARK    1  A    between atoms: O_3  and  C_17
REMARK    2  A    between atoms: O_4  and  C_19
REMARK    3  A    between atoms: O_5  and  C_21
REMARK    4  A    between atoms: C_7  and  C_11
REMARK                            x       y       z     vdW  Elec       q    Type
REMARK                         _______ _______ _______ _____ _____    ______ ____
ROOT
ATOM      1  O   UNL     1     104.934 124.431 147.473  0.00  0.00    +0.000 OA
ATOM      2  O   UNL     1     105.771 124.158 148.899  0.00  0.00    +0.000 OA
ATOM      3  C   UNL     1     104.514 124.562 146.775  0.00  0.00    +0.000 C 
ATOM      4  C   UNL     1     104.881 124.933 146.137  0.00  0.00    +0.000 C 
ATOM      5  C   UNL     1     105.668 125.175 146.196  0.00  0.00    +0.000 C 
ATOM      6  C   UNL     1     106.087 125.044 146.895  0.00  0.00    +0.000 A 
ATOM      7  C   UNL     1     105.720 124.672 147.533  0.00  0.00    +0.000 A 
ATOM      8  C   UNL     1     106.907 125.299 146.945  0.00  0.00    +0.000 A 
ATOM      9  C   UNL     1     106.147 124.530 148.266  0.00  0.00    +0.000 A 
ATOM     10  C   UNL     1     106.966 124.779 148.334  0.00  0.00    +0.000 A 
ATOM     11  C   UNL     1     107.349 125.166 147.668  0.00  0.00    +0.000 A 
ENDROOT
BRANCH   3  13
ATOM     12  O   UNL     1     102.553 122.740 145.773  0.00  0.00    +0.000 OA
ATOM     13  C   UNL     1     103.728 124.321 146.715  0.00  0.00    +0.000 A 
ATOM     14  C   UNL     1     103.134 124.749 147.096  0.00  0.00    +0.000 A 
ATOM     15  C   UNL     1     103.534 123.651 146.274  0.00  0.00    +0.000 A 
ATOM     16  C   UNL     1     102.348 124.509 147.036  0.00  0.00    +0.000 A 
ATOM     17  C   UNL     1     102.747 123.410 146.214  0.00  0.00    +0.000 A 
ATOM     18  C   UNL     1     102.154 123.839 146.595  0.00  0.00    +0.000 A 
BRANCH  16  19
ATOM     19  O   UNL     1     101.754 124.937 147.417  0.00  0.00    +0.000 OA
ATOM     20  C   UNL     1     101.931 125.375 148.093  0.00  0.00    +0.000 C 
ENDBRANCH  16  19
BRANCH  18  21
ATOM     21  O   UNL     1     101.367 123.597 146.535  0.00  0.00    +0.000 OA
ATOM     22  C   UNL     1     101.001 123.565 145.796  0.00  0.00    +0.000 C 
ENDBRANCH  18  21
ENDBRANCH   3  13
BRANCH  10  23
ATOM     23  O   UNL     1     107.383 124.647 149.033  0.00  0.00    +0.000 OA
ATOM     24  C   UNL     1     108.207 124.602 149.020  0.00  0.00    +0.000 C 
ENDBRANCH  10  23
TORSDOF 4
ENDMDL
MODEL 4
REMARK VINA RESULT:      -7.4     11.556     13.029
REMARK  Name = 75072285
REMARK  4 active torsions:
REMARK  status: ('A' for Active; 'I' for Inactive)
REMARK    1  A    between atoms: O_3  and  C_17
REMARK    2  A    between atoms: O_4  and  C_19
REMARK    3  A    between atoms: O_5  and  C_21
REMARK    4  A    between atoms: C_7  and  C_11
REMARK                            x       y       z     vdW  Elec       q    Type
REMARK                         _______ _______ _______ _____ _____    ______ ____
ROOT
ATOM      1  O   UNL     1     112.705 126.494 136.808  0.00  0.00    +0.000 OA
ATOM      2  O   UNL     1     111.447 125.429 137.110  0.00  0.00    +0.000 OA
ATOM      3  C   UNL     1     113.319 127.026 136.660  0.00  0.00    +0.000 C 
ATOM      4  C   UNL     1     114.080 126.745 136.512  0.00  0.00    +0.000 C 
ATOM      5  C   UNL     1     114.228 125.933 136.511  0.00  0.00    +0.000 C 
ATOM      6  C   UNL     1     113.614 125.402 136.659  0.00  0.00    +0.000 A 
ATOM      7  C   UNL     1     112.853 125.683 136.807  0.00  0.00    +0.000 A 
ATOM      8  C   UNL     1     113.781 124.559 136.655  0.00  0.00    +0.000 A 
ATOM      9  C   UNL     1     112.205 125.139 136.962  0.00  0.00    +0.000 A 
ATOM     10  C   UNL     1     112.353 124.293 136.963  0.00  0.00    +0.000 A 
ATOM     11  C   UNL     1     113.147 124.000 136.808  0.00  0.00    +0.000 A 
ENDROOT
BRANCH   3  13
ATOM     12  O   UNL     1     113.109 129.501 138.073  0.00  0.00    +0.000 OA
ATOM     13  C   UNL     1     113.171 127.837 136.661  0.00  0.00    +0.000 A 
ATOM     14  C   UNL     1     112.981 128.223 135.957  0.00  0.00    +0.000 A 
ATOM     15  C   UNL     1     113.214 128.263 137.366  0.00  0.00    +0.000 A 
ATOM     16  C   UNL     1     112.833 129.034 135.958  0.00  0.00    +0.000 A 
ATOM     17  C   UNL     1     113.066 129.075 137.367  0.00  0.00    +0.000 A 
ATOM     18  C   UNL     1     112.876 129.460 136.663  0.00  0.00    +0.000 A 
BRANCH  16  19
ATOM     19  O   UNL     1     112.643 129.420 135.254  0.00  0.00    +0.000 OA
ATOM     20  C   UNL     1     112.224 129.021 134.666  0.00  0.00    +0.000 C 
ENDBRANCH  16  19
BRANCH  18  21
ATOM     21  O   UNL     1     112.728 130.272 136.664  0.00  0.00    +0.000 OA
ATOM     22  C   UNL     1     113.335 130.801 136.845  0.00  0.00    +0.000 C 
ENDBRANCH  18  21
ENDBRANCH   3  13
BRANCH  10  23
ATOM     23  O   UNL     1     111.737 123.764 137.111  0.00  0.00    +0.000 OA
ATOM     24  C   UNL     1     111.899 122.962 137.218  0.00  0.00    +0.000 C 
ENDBRANCH  10  23
TORSDOF 4
ENDMDL
MODEL 5
REMARK VINA RESULT:      -7.4     11.954     12.862
REMARK  Name = 75072285
REMARK  4 active torsions:
REMARK  status: ('A' for Active; 'I' for Inactive)
REMARK    1  A    between atoms: O_3  and  C_17
REMARK    2  A    between atoms: O_4  and  C_19
REMARK    3  A    between atoms: O_5  and  C_21
REMARK    4  A    between atoms: C_7  and  C_11
REMARK                            x       y       z     vdW  Elec       q    Type
REMARK                         _______ _______ _______ _____ _____    ______ ____
ROOT
ATOM      1  O   UNL     1     113.697 127.746 136.126  0.00  0.00    +0.000 OA
ATOM      2  O   UNL     1     114.697 128.464 134.989  0.00  0.00    +0.000 OA
ATOM      3  C   UNL     1     113.206 127.384 136.681  0.00  0.00    +0.000 C 
ATOM      4  C   UNL     1     112.867 127.832 137.285  0.00  0.00    +0.000 C 
ATOM      5  C   UNL     1     113.019 128.642 137.334  0.00  0.00    +0.000 C 
ATOM      6  C   UNL     1     113.510 129.003 136.779  0.00  0.00    +0.000 A 
ATOM      7  C   UNL     1     113.849 128.555 136.174  0.00  0.00    +0.000 A 
ATOM      8  C   UNL     1     113.662 129.847 136.840  0.00  0.00    +0.000 A 
ATOM      9  C   UNL     1     114.363 128.920 135.590  0.00  0.00    +0.000 A 
ATOM     10  C   UNL     1     114.525 129.762 135.635  0.00  0.00    +0.000 A 
ATOM     11  C   UNL     1     114.172 130.229 136.265  0.00  0.00    +0.000 A 
ENDROOT
BRANCH   3  13
ATOM     12  O   UNL     1     111.527 125.228 135.843  0.00  0.00    +0.000 OA
ATOM     13  C   UNL     1     113.053 126.575 136.632  0.00  0.00    +0.000 A 
ATOM     14  C   UNL     1     113.587 126.034 136.954  0.00  0.00    +0.000 A 
ATOM     15  C   UNL     1     112.367 126.306 136.262  0.00  0.00    +0.000 A 
ATOM     16  C   UNL     1     113.435 125.225 136.905  0.00  0.00    +0.000 A 
ATOM     17  C   UNL     1     112.214 125.496 136.213  0.00  0.00    +0.000 A 
ATOM     18  C   UNL     1     112.748 124.956 136.535  0.00  0.00    +0.000 A 
BRANCH  16  19
ATOM     19  O   UNL     1     113.968 124.684 137.226  0.00  0.00    +0.000 OA
ATOM     20  C   UNL     1     114.763 124.888 137.308  0.00  0.00    +0.000 C 
ENDBRANCH  16  19
BRANCH  18  21
ATOM     21  O   UNL     1     112.595 124.147 136.486  0.00  0.00    +0.000 OA
ATOM     22  C   UNL     1     111.977 123.817 136.921  0.00  0.00    +0.000 C 
ENDBRANCH  18  21
ENDBRANCH   3  13
BRANCH  10  23
ATOM     23  O   UNL     1     115.017 130.121 135.079  0.00  0.00    +0.000 OA
ATOM     24  C   UNL     1     115.269 130.899 135.192  0.00  0.00    +0.000 C 
ENDBRANCH  10  23
TORSDOF 4
ENDMDL
MODEL 6
REMARK VINA RESULT:      -7.3      8.626     11.175
REMARK  Name = 75072285
REMARK  4 active torsions:
REMARK  status: ('A' for Active; 'I' for Inactive)
REMARK    1  A    between atoms: O_3  and  C_17
REMARK    2  A    between atoms: O_4  and  C_19
REMARK    3  A    between atoms: O_5  and  C_21
REMARK    4  A    between atoms: C_7  and  C_11
REMARK                            x       y       z     vdW  Elec       q    Type
REMARK                         _______ _______ _______ _____ _____    ______ ____
ROOT
ATOM      1  O   UNL     1     110.317 127.101 136.211  0.00  0.00    +0.000 OA
ATOM      2  O   UNL     1     110.825 126.220 137.543  0.00  0.00    +0.000 OA
ATOM      3  C   UNL     1     110.064 127.543 135.561  0.00  0.00    +0.000 C 
ATOM      4  C   UNL     1     110.090 127.214 134.805  0.00  0.00    +0.000 C 
ATOM      5  C   UNL     1     110.367 126.444 134.699  0.00  0.00    +0.000 C 
ATOM      6  C   UNL     1     110.619 126.003 135.349  0.00  0.00    +0.000 A 
ATOM      7  C   UNL     1     110.594 126.332 136.105  0.00  0.00    +0.000 A 
ATOM      8  C   UNL     1     110.906 125.202 135.226  0.00  0.00    +0.000 A 
ATOM      9  C   UNL     1     110.854 125.883 136.790  0.00  0.00    +0.000 A 
ATOM     10  C   UNL     1     111.144 125.081 136.686  0.00  0.00    +0.000 A 
ATOM     11  C   UNL     1     111.170 124.738 135.898  0.00  0.00    +0.000 A 
ENDROOT
BRANCH   3  13
ATOM     12  O   UNL     1     107.887 129.367 135.880  0.00  0.00    +0.000 OA
ATOM     13  C   UNL     1     109.787 128.312 135.667  0.00  0.00    +0.000 A 
ATOM     14  C   UNL     1     110.320 128.940 135.719  0.00  0.00    +0.000 A 
ATOM     15  C   UNL     1     108.976 128.454 135.721  0.00  0.00    +0.000 A 
ATOM     16  C   UNL     1     110.043 129.709 135.825  0.00  0.00    +0.000 A 
ATOM     17  C   UNL     1     108.698 129.224 135.827  0.00  0.00    +0.000 A 
ATOM     18  C   UNL     1     109.232 129.851 135.879  0.00  0.00    +0.000 A 
BRANCH  16  19
ATOM     19  O   UNL     1     110.576 130.337 135.877  0.00  0.00    +0.000 OA
ATOM     20  C   UNL     1     111.332 130.211 136.181  0.00  0.00    +0.000 C 
ENDBRANCH  16  19
BRANCH  18  21
ATOM     21  O   UNL     1     108.954 130.621 135.985  0.00  0.00    +0.000 OA
ATOM     22  C   UNL     1     108.603 131.023 135.355  0.00  0.00    +0.000 C 
ENDBRANCH  18  21
ENDBRANCH   3  13
BRANCH  10  23
ATOM     23  O   UNL     1     111.395 124.642 137.338  0.00  0.00    +0.000 OA
ATOM     24  C   UNL     1     111.795 123.929 137.226  0.00  0.00    +0.000 C 
ENDBRANCH  10  23
TORSDOF 4
ENDMDL
MODEL 7
REMARK VINA RESULT:      -7.2      7.230      9.385
REMARK  Name = 75072285
REMARK  4 active torsions:
REMARK  status: ('A' for Active; 'I' for Inactive)
REMARK    1  A    between atoms: O_3  and  C_17
REMARK    2  A    between atoms: O_4  and  C_19
REMARK    3  A    between atoms: O_5  and  C_21
REMARK    4  A    between atoms: C_7  and  C_11
REMARK                            x       y       z     vdW  Elec       q    Type
REMARK                         _______ _______ _______ _____ _____    ______ ____
ROOT
ATOM      1  O   UNL     1     106.408 125.261 145.877  0.00  0.00    +0.000 OA
ATOM      2  O   UNL     1     105.996 124.198 144.648  0.00  0.00    +0.000 OA
ATOM      3  C   UNL     1     106.611 125.777 146.488  0.00  0.00    +0.000 C 
ATOM      4  C   UNL     1     106.664 126.587 146.342  0.00  0.00    +0.000 C 
ATOM      5  C   UNL     1     106.512 126.882 145.586  0.00  0.00    +0.000 C 
ATOM      6  C   UNL     1     106.309 126.365 144.976  0.00  0.00    +0.000 A 
ATOM      7  C   UNL     1     106.257 125.554 145.121  0.00  0.00    +0.000 A 
ATOM      8  C   UNL     1     106.154 126.683 144.192  0.00  0.00    +0.000 A 
ATOM      9  C   UNL     1     106.046 125.006 144.493  0.00  0.00    +0.000 A 
ATOM     10  C   UNL     1     105.887 125.307 143.704  0.00  0.00    +0.000 A 
ATOM     11  C   UNL     1     105.942 126.151 143.553  0.00  0.00    +0.000 A 
ENDROOT
BRANCH   3  13
ATOM     12  O   UNL     1     108.446 124.749 148.422  0.00  0.00    +0.000 OA
ATOM     13  C   UNL     1     106.762 125.483 147.243  0.00  0.00    +0.000 A 
ATOM     14  C   UNL     1     106.147 125.409 147.788  0.00  0.00    +0.000 A 
ATOM     15  C   UNL     1     107.528 125.263 147.454  0.00  0.00    +0.000 A 
ATOM     16  C   UNL     1     106.298 125.116 148.544  0.00  0.00    +0.000 A 
ATOM     17  C   UNL     1     107.680 124.969 148.211  0.00  0.00    +0.000 A 
ATOM     18  C   UNL     1     107.064 124.896 148.755  0.00  0.00    +0.000 A 
BRANCH  16  19
ATOM     19  O   UNL     1     105.683 125.042 149.089  0.00  0.00    +0.000 OA
ATOM     20  C   UNL     1     104.912 125.241 148.870  0.00  0.00    +0.000 C 
ENDBRANCH  16  19
BRANCH  18  21
ATOM     21  O   UNL     1     107.216 124.602 149.512  0.00  0.00    +0.000 OA
ATOM     22  C   UNL     1     107.421 123.809 149.612  0.00  0.00    +0.000 C 
ENDBRANCH  18  21
ENDBRANCH   3  13
BRANCH  10  23
ATOM     23  O   UNL     1     105.684 124.788 143.096  0.00  0.00    +0.000 OA
ATOM     24  C   UNL     1     105.848 124.987 142.312  0.00  0.00    +0.000 C 
ENDBRANCH  10  23
TORSDOF 4
ENDMDL
MODEL 8
REMARK VINA RESULT:      -7.2      6.001      9.138
REMARK  Name = 75072285
REMARK  4 active torsions:
REMARK  status: ('A' for Active; 'I' for Inactive)
REMARK    1  A    between atoms: O_3  and  C_17
REMARK    2  A    between atoms: O_4  and  C_19
REMARK    3  A    between atoms: O_5  and  C_21
REMARK    4  A    between atoms: C_7  and  C_11
REMARK                            x       y       z     vdW  Elec       q    Type
REMARK                         _______ _______ _______ _____ _____    ______ ____
ROOT
ATOM      1  O   UNL     1     106.585 125.312 146.241  0.00  0.00    +0.000 OA
ATOM      2  O   UNL     1     107.999 125.266 147.139  0.00  0.00    +0.000 OA
ATOM      3  C   UNL     1     105.894 125.337 145.791  0.00  0.00    +0.000 C 
ATOM      4  C   UNL     1     105.174 125.114 146.127  0.00  0.00    +0.000 C 
ATOM      5  C   UNL     1     105.146 124.864 146.913  0.00  0.00    +0.000 C 
ATOM      6  C   UNL     1     105.838 124.839 147.362  0.00  0.00    +0.000 A 
ATOM      7  C   UNL     1     106.557 125.063 147.026  0.00  0.00    +0.000 A 
ATOM      8  C   UNL     1     105.796 124.577 148.180  0.00  0.00    +0.000 A 
ATOM      9  C   UNL     1     107.284 125.040 147.484  0.00  0.00    +0.000 A 
ATOM     10  C   UNL     1     107.261 124.781 148.303  0.00  0.00    +0.000 A 
ATOM     11  C   UNL     1     106.511 124.548 148.654  0.00  0.00    +0.000 A 
ENDROOT
BRANCH   3  13
ATOM     12  O   UNL     1     106.166 124.733 143.011  0.00  0.00    +0.000 OA
ATOM     13  C   UNL     1     105.922 125.587 145.005  0.00  0.00    +0.000 A 
ATOM     14  C   UNL     1     105.841 126.387 144.823  0.00  0.00    +0.000 A 
ATOM     15  C   UNL     1     106.030 125.035 144.401  0.00  0.00    +0.000 A 
ATOM     16  C   UNL     1     105.869 126.636 144.037  0.00  0.00    +0.000 A 
ATOM     17  C   UNL     1     106.058 125.284 143.615  0.00  0.00    +0.000 A 
ATOM     18  C   UNL     1     105.977 126.085 143.433  0.00  0.00    +0.000 A 
BRANCH  16  19
ATOM     19  O   UNL     1     105.789 127.437 143.855  0.00  0.00    +0.000 OA
ATOM     20  C   UNL     1     105.471 127.957 144.411  0.00  0.00    +0.000 C 
ENDBRANCH  16  19
BRANCH  18  21
ATOM     21  O   UNL     1     106.005 126.334 142.647  0.00  0.00    +0.000 OA
ATOM     22  C   UNL     1     106.712 126.287 142.225  0.00  0.00    +0.000 C 
ENDBRANCH  18  21
ENDBRANCH   3  13
BRANCH  10  23
ATOM     23  O   UNL     1     107.954 124.757 148.750  0.00  0.00    +0.000 OA
ATOM     24  C   UNL     1     107.940 124.449 149.516  0.00  0.00    +0.000 C 
ENDBRANCH  10  23
TORSDOF 4
ENDMDL
MODEL 9
REMARK VINA RESULT:      -7.1     10.402     11.966
REMARK  Name = 75072285
REMARK  4 active torsions:
REMARK  status: ('A' for Active; 'I' for Inactive)
REMARK    1  A    between atoms: O_3  and  C_17
REMARK    2  A    between atoms: O_4  and  C_19
REMARK    3  A    between atoms: O_5  and  C_21
REMARK    4  A    between atoms: C_7  and  C_11
REMARK                            x       y       z     vdW  Elec       q    Type
REMARK                         _______ _______ _______ _____ _____    ______ ____
ROOT
ATOM      1  O   UNL     1     112.521 127.353 137.126  0.00  0.00    +0.000 OA
ATOM      2  O   UNL     1     111.727 128.367 138.198  0.00  0.00    +0.000 OA
ATOM      3  C   UNL     1     112.906 126.845 136.601  0.00  0.00    +0.000 C 
ATOM      4  C   UNL     1     113.503 127.136 136.111  0.00  0.00    +0.000 C 
ATOM      5  C   UNL     1     113.715 127.933 136.146  0.00  0.00    +0.000 C 
ATOM      6  C   UNL     1     113.329 128.439 136.670  0.00  0.00    +0.000 A 
ATOM      7  C   UNL     1     112.732 128.149 137.161  0.00  0.00    +0.000 A 
ATOM      8  C   UNL     1     113.558 129.267 136.697  0.00  0.00    +0.000 A 
ATOM      9  C   UNL     1     112.323 128.667 137.712  0.00  0.00    +0.000 A 
ATOM     10  C   UNL     1     112.538 129.497 137.752  0.00  0.00    +0.000 A 
ATOM     11  C   UNL     1     113.160 129.800 137.241  0.00  0.00    +0.000 A 
ENDROOT
BRANCH   3  13
ATOM     12  O   UNL     1     113.505 124.101 137.130  0.00  0.00    +0.000 OA
ATOM     13  C   UNL     1     112.695 126.049 136.567  0.00  0.00    +0.000 A 
ATOM     14  C   UNL     1     111.974 125.827 136.233  0.00  0.00    +0.000 A 
ATOM     15  C   UNL     1     113.206 125.474 136.866  0.00  0.00    +0.000 A 
ATOM     16  C   UNL     1     111.763 125.031 136.198  0.00  0.00    +0.000 A 
ATOM     17  C   UNL     1     112.995 124.677 136.831  0.00  0.00    +0.000 A 
ATOM     18  C   UNL     1     112.274 124.455 136.497  0.00  0.00    +0.000 A 
BRANCH  16  19
ATOM     19  O   UNL     1     111.042 124.808 135.865  0.00  0.00    +0.000 OA
ATOM     20  C   UNL     1     110.599 125.358 135.438  0.00  0.00    +0.000 C 
ENDBRANCH  16  19
BRANCH  18  21
ATOM     21  O   UNL     1     112.063 123.658 136.463  0.00  0.00    +0.000 OA
ATOM     22  C   UNL     1     111.908 123.242 137.158  0.00  0.00    +0.000 C 
ENDBRANCH  18  21
ENDBRANCH   3  13
BRANCH  10  23
ATOM     23  O   UNL     1     112.151 130.002 138.278  0.00  0.00    +0.000 OA
ATOM     24  C   UNL     1     112.258 130.818 138.221  0.00  0.00    +0.000 C 
ENDBRANCH  10  23
TORSDOF 4
ENDMDL
MODEL 10
REMARK VINA RESULT:      -7.1     10.416     11.836
REMARK  Name = 75072285
REMARK  4 active torsions:
REMARK  status: ('A' for Active; 'I' for Inactive)
REMARK    1  A    between atoms: O_3  and  C_17
REMARK    2  A    between atoms: O_4  and  C_19
REMARK    3  A    between atoms: O_5  and  C_21
REMARK    4  A    between atoms: C_7  and  C_11
REMARK                            x       y       z     vdW  Elec       q    Type
REMARK                         _______ _______ _______ _____ _____    ______ ____
ROOT
ATOM      1  O   UNL     1     112.177 126.361 138.899  0.00  0.00    +0.000 OA
ATOM      2  O   UNL     1     111.219 126.830 140.192  0.00  0.00    +0.000 OA
ATOM      3  C   UNL     1     112.641 126.129 138.258  0.00  0.00    +0.000 C 
ATOM      4  C   UNL     1     113.464 126.154 138.314  0.00  0.00    +0.000 C 
ATOM      5  C   UNL     1     113.823 126.411 139.011  0.00  0.00    +0.000 C 
ATOM      6  C   UNL     1     113.358 126.644 139.652  0.00  0.00    +0.000 A 
ATOM      7  C   UNL     1     112.535 126.619 139.596  0.00  0.00    +0.000 A 
ATOM      8  C   UNL     1     113.743 126.910 140.373  0.00  0.00    +0.000 A 
ATOM      9  C   UNL     1     112.041 126.859 140.257  0.00  0.00    +0.000 A 
ATOM     10  C   UNL     1     112.409 127.128 140.985  0.00  0.00    +0.000 A 
ATOM     11  C   UNL     1     113.266 127.154 141.044  0.00  0.00    +0.000 A 
ENDROOT
BRANCH   3  13
ATOM     12  O   UNL     1     111.580 126.695 135.665  0.00  0.00    +0.000 OA
ATOM     13  C   UNL     1     112.283 125.871 137.561  0.00  0.00    +0.000 A 
ATOM     14  C   UNL     1     112.097 125.073 137.463  0.00  0.00    +0.000 A 
ATOM     15  C   UNL     1     112.111 126.412 136.962  0.00  0.00    +0.000 A 
ATOM     16  C   UNL     1     111.739 124.816 136.766  0.00  0.00    +0.000 A 
ATOM     17  C   UNL     1     111.752 126.154 136.264  0.00  0.00    +0.000 A 
ATOM     18  C   UNL     1     111.567 125.356 136.167  0.00  0.00    +0.000 A 
BRANCH  16  19
ATOM     19  O   UNL     1     111.553 124.018 136.667  0.00  0.00    +0.000 OA
ATOM     20  C   UNL     1     111.970 123.443 137.086  0.00  0.00    +0.000 C 
ENDBRANCH  16  19
BRANCH  18  21
ATOM     21  O   UNL     1     111.208 125.099 135.469  0.00  0.00    +0.000 OA
ATOM     22  C   UNL     1     110.453 125.365 135.272  0.00  0.00    +0.000 C 
ENDBRANCH  18  21
ENDBRANCH   3  13
BRANCH  10  23
ATOM     23  O   UNL     1     111.942 127.360 141.625  0.00  0.00    +0.000 OA
ATOM     24  C   UNL     1     112.193 127.972 142.118  0.00  0.00    +0.000 C 
ENDBRANCH  10  23
TORSDOF 4
ENDMDL
