MODEL 1
REMARK VINA RESULT:      -8.8      0.000      0.000
REMARK  Name = 21159153
REMARK  9 active torsions:
REMARK  status: ('A' for Active; 'I' for Inactive)
REMARK    1  A    between atoms: O_1  and  C_12
REMARK    2  A    between atoms: O_1  and  C_16
REMARK    3  A    between atoms: O_5  and  C_19
REMARK    4  A    between atoms: O_6  and  C_20
REMARK    5  A    between atoms: O_7  and  C_25
REMARK    6  A    between atoms: C_12  and  C_13
REMARK    7  A    between atoms: C_12  and  C_15
REMARK    8  A    between atoms: C_13  and  C_14
REMARK    9  A    between atoms: C_21  and  C_24
REMARK                            x       y       z     vdW  Elec       q    Type
REMARK                         _______ _______ _______ _____ _____    ______ ____
ROOT
ATOM      1  C   UNL     1     110.499 128.586 136.472  0.00  0.00    +0.000 A 
ATOM      2  C   UNL     1     110.485 128.142 137.167  0.00  0.00    +0.000 A 
ATOM      3  C   UNL     1     110.939 128.326 135.825  0.00  0.00    +0.000 A 
ATOM      4  C   UNL     1     111.351 127.177 136.567  0.00  0.00    +0.000 A 
ATOM      5  C   UNL     1     110.911 127.437 137.215  0.00  0.00    +0.000 A 
ATOM      6  C   UNL     1     111.366 127.621 135.872  0.00  0.00    +0.000 A 
ENDROOT
BRANCH   4  11
ATOM      7  O   UNL     1     112.549 126.476 136.910  0.00  0.00    +0.000 OA
ATOM      8  O   UNL     1     111.517 124.351 136.172  0.00  0.00    +0.000 OA
ATOM      9  O   UNL     1     112.713 123.619 136.509  0.00  0.00    +0.000 OA
ATOM     10  O   UNL     1     114.997 125.065 137.615  0.00  0.00    +0.000 OA
ATOM     11  C   UNL     1     111.777 126.472 136.615  0.00  0.00    +0.000 A 
ATOM     12  C   UNL     1     112.631 125.063 136.712  0.00  0.00    +0.000 A 
ATOM     13  C   UNL     1     112.975 125.771 136.958  0.00  0.00    +0.000 A 
ATOM     14  C   UNL     1     111.433 125.764 136.369  0.00  0.00    +0.000 A 
ATOM     15  C   UNL     1     111.861 125.059 136.418  0.00  0.00    +0.000 A 
ATOM     16  C   UNL     1     113.065 124.322 136.758  0.00  0.00    +0.000 A 
ATOM     17  C   UNL     1     113.777 125.788 137.267  0.00  0.00    +0.000 A 
ATOM     18  C   UNL     1     114.226 125.058 137.320  0.00  0.00    +0.000 A 
ATOM     19  C   UNL     1     113.868 124.320 137.063  0.00  0.00    +0.000 A 
ENDBRANCH   4  11
BRANCH   2  20
ATOM     20  O   UNL     1     110.044 128.402 137.814  0.00  0.00    +0.000 OA
ATOM     21  C   UNL     1     110.282 128.209 138.580  0.00  0.00    +0.000 C 
ENDBRANCH   2  20
BRANCH   3  22
ATOM     22  O   UNL     1     110.953 128.770 135.130  0.00  0.00    +0.000 OA
ATOM     23  C   UNL     1     111.633 128.783 134.662  0.00  0.00    +0.000 C 
ENDBRANCH   3  22
BRANCH   1  24
ATOM     24  O   UNL     1     110.072 129.291 136.425  0.00  0.00    +0.000 OA
BRANCH  24  25
ATOM     25  C   UNL     1     109.285 129.282 136.179  0.00  0.00    +0.000 C 
BRANCH  25  27
ATOM     26  O   UNL     1     108.153 129.794 136.884  0.00  0.00    +0.000 OA
ATOM     27  C   UNL     1     108.786 129.911 136.368  0.00  0.00    +0.000 C 
BRANCH  27  29
ATOM     28  O   UNL     1     109.318 132.894 135.062  0.00  0.00    +0.000 OA
ATOM     29  C   UNL     1     108.919 130.656 136.042  0.00  0.00    +0.000 A 
ATOM     30  C   UNL     1     109.263 131.252 136.498  0.00  0.00    +0.000 A 
ATOM     31  C   UNL     1     108.708 130.807 135.259  0.00  0.00    +0.000 A 
ATOM     32  C   UNL     1     109.396 131.997 136.172  0.00  0.00    +0.000 A 
ATOM     33  C   UNL     1     108.841 131.553 134.932  0.00  0.00    +0.000 A 
ATOM     34  C   UNL     1     109.185 132.148 135.389  0.00  0.00    +0.000 A 
BRANCH  32  35
ATOM     35  O   UNL     1     109.739 132.593 136.628  0.00  0.00    +0.000 OA
ATOM     36  C   UNL     1     109.693 132.560 137.451  0.00  0.00    +0.000 C 
ENDBRANCH  32  35
ENDBRANCH  27  29
ENDBRANCH  25  27
BRANCH  25  38
ATOM     37  O   UNL     1     108.188 128.478 135.740  0.00  0.00    +0.000 OA
ATOM     38  C   UNL     1     108.997 128.643 135.744  0.00  0.00    +0.000 C 
ENDBRANCH  25  38
ENDBRANCH  24  25
ENDBRANCH   1  24
TORSDOF 9
ENDMDL
MODEL 2
REMARK VINA RESULT:      -8.7      0.044      1.252
REMARK  Name = 21159153
REMARK  9 active torsions:
REMARK  status: ('A' for Active; 'I' for Inactive)
REMARK    1  A    between atoms: O_1  and  C_12
REMARK    2  A    between atoms: O_1  and  C_16
REMARK    3  A    between atoms: O_5  and  C_19
REMARK    4  A    between atoms: O_6  and  C_20
REMARK    5  A    between atoms: O_7  and  C_25
REMARK    6  A    between atoms: C_12  and  C_13
REMARK    7  A    between atoms: C_12  and  C_15
REMARK    8  A    between atoms: C_13  and  C_14
REMARK    9  A    between atoms: C_21  and  C_24
REMARK                            x       y       z     vdW  Elec       q    Type
REMARK                         _______ _______ _______ _____ _____    ______ ____
ROOT
ATOM      1  C   UNL     1     110.488 128.604 136.476  0.00  0.00    +0.000 A 
ATOM      2  C   UNL     1     110.931 128.348 135.829  0.00  0.00    +0.000 A 
ATOM      3  C   UNL     1     110.471 128.154 137.167  0.00  0.00    +0.000 A 
ATOM      4  C   UNL     1     111.339 127.193 136.565  0.00  0.00    +0.000 A 
ATOM      5  C   UNL     1     111.357 127.643 135.873  0.00  0.00    +0.000 A 
ATOM      6  C   UNL     1     110.896 127.449 137.212  0.00  0.00    +0.000 A 
ENDROOT
BRANCH   4  11
ATOM      7  O   UNL     1     112.535 126.489 136.906  0.00  0.00    +0.000 OA
ATOM      8  O   UNL     1     111.506 124.371 136.146  0.00  0.00    +0.000 OA
ATOM      9  O   UNL     1     112.701 123.636 136.482  0.00  0.00    +0.000 OA
ATOM     10  O   UNL     1     114.981 125.073 137.608  0.00  0.00    +0.000 OA
ATOM     11  C   UNL     1     111.765 126.488 136.609  0.00  0.00    +0.000 A 
ATOM     12  C   UNL     1     112.618 125.078 136.697  0.00  0.00    +0.000 A 
ATOM     13  C   UNL     1     112.961 125.784 136.950  0.00  0.00    +0.000 A 
ATOM     14  C   UNL     1     111.422 125.782 136.355  0.00  0.00    +0.000 A 
ATOM     15  C   UNL     1     111.849 125.077 136.400  0.00  0.00    +0.000 A 
ATOM     16  C   UNL     1     113.052 124.337 136.737  0.00  0.00    +0.000 A 
ATOM     17  C   UNL     1     113.762 125.798 137.262  0.00  0.00    +0.000 A 
ATOM     18  C   UNL     1     114.211 125.068 137.310  0.00  0.00    +0.000 A 
ATOM     19  C   UNL     1     113.854 124.332 137.046  0.00  0.00    +0.000 A 
ENDBRANCH   4  11
BRANCH   2  20
ATOM     20  O   UNL     1     110.949 128.798 135.137  0.00  0.00    +0.000 OA
ATOM     21  C   UNL     1     111.631 128.815 134.673  0.00  0.00    +0.000 C 
ENDBRANCH   2  20
BRANCH   3  22
ATOM     22  O   UNL     1     110.027 128.410 137.814  0.00  0.00    +0.000 OA
ATOM     23  C   UNL     1     110.257 128.203 138.580  0.00  0.00    +0.000 C 
ENDBRANCH   3  22
BRANCH   1  24
ATOM     24  O   UNL     1     110.062 129.309 136.431  0.00  0.00    +0.000 OA
BRANCH  24  25
ATOM     25  C   UNL     1     109.276 129.302 136.186  0.00  0.00    +0.000 C 
BRANCH  25  27
ATOM     26  O   UNL     1     108.131 129.806 136.876  0.00  0.00    +0.000 OA
ATOM     27  C   UNL     1     108.777 129.931 136.378  0.00  0.00    +0.000 C 
BRANCH  27  29
ATOM     28  O   UNL     1     109.361 132.939 135.153  0.00  0.00    +0.000 OA
ATOM     29  C   UNL     1     108.923 130.682 136.072  0.00  0.00    +0.000 A 
ATOM     30  C   UNL     1     109.259 131.265 136.550  0.00  0.00    +0.000 A 
ATOM     31  C   UNL     1     108.732 130.852 135.287  0.00  0.00    +0.000 A 
ATOM     32  C   UNL     1     109.405 132.016 136.244  0.00  0.00    +0.000 A 
ATOM     33  C   UNL     1     108.878 131.605 134.981  0.00  0.00    +0.000 A 
ATOM     34  C   UNL     1     109.215 132.186 135.460  0.00  0.00    +0.000 A 
BRANCH  32  35
ATOM     35  O   UNL     1     109.741 132.599 136.722  0.00  0.00    +0.000 OA
ATOM     36  C   UNL     1     109.672 132.549 137.543  0.00  0.00    +0.000 C 
ENDBRANCH  32  35
ENDBRANCH  27  29
ENDBRANCH  25  27
BRANCH  25  38
ATOM     37  O   UNL     1     108.176 128.508 135.733  0.00  0.00    +0.000 OA
ATOM     38  C   UNL     1     108.987 128.666 135.747  0.00  0.00    +0.000 C 
ENDBRANCH  25  38
ENDBRANCH  24  25
ENDBRANCH   1  24
TORSDOF 9
ENDMDL
MODEL 3
REMARK VINA RESULT:      -8.6      0.997      1.400
REMARK  Name = 21159153
REMARK  9 active torsions:
REMARK  status: ('A' for Active; 'I' for Inactive)
REMARK    1  A    between atoms: O_1  and  C_12
REMARK    2  A    between atoms: O_1  and  C_16
REMARK    3  A    between atoms: O_5  and  C_19
REMARK    4  A    between atoms: O_6  and  C_20
REMARK    5  A    between atoms: O_7  and  C_25
REMARK    6  A    between atoms: C_12  and  C_13
REMARK    7  A    between atoms: C_12  and  C_15
REMARK    8  A    between atoms: C_13  and  C_14
REMARK    9  A    between atoms: C_21  and  C_24
REMARK                            x       y       z     vdW  Elec       q    Type
REMARK                         _______ _______ _______ _____ _____    ______ ____
ROOT
ATOM      1  C   UNL     1     111.333 129.099 136.581  0.00  0.00    +0.000 A 
ATOM      2  C   UNL     1     111.227 128.631 137.252  0.00  0.00    +0.000 A 
ATOM      3  C   UNL     1     111.699 128.784 135.913  0.00  0.00    +0.000 A 
ATOM      4  C   UNL     1     111.855 127.533 136.586  0.00  0.00    +0.000 A 
ATOM      5  C   UNL     1     111.488 127.848 137.255  0.00  0.00    +0.000 A 
ATOM      6  C   UNL     1     111.961 128.001 135.915  0.00  0.00    +0.000 A 
ENDROOT
BRANCH   4  11
ATOM      7  O   UNL     1     112.874 126.570 136.861  0.00  0.00    +0.000 OA
ATOM      8  O   UNL     1     111.384 124.765 136.056  0.00  0.00    +0.000 OA
ATOM      9  O   UNL     1     112.394 123.771 136.325  0.00  0.00    +0.000 OA
ATOM     10  O   UNL     1     114.962 124.621 137.428  0.00  0.00    +0.000 OA
ATOM     11  C   UNL     1     112.115 126.751 136.589  0.00  0.00    +0.000 A 
ATOM     12  C   UNL     1     112.637 125.186 136.596  0.00  0.00    +0.000 A 
ATOM     13  C   UNL     1     113.134 125.787 136.864  0.00  0.00    +0.000 A 
ATOM     14  C   UNL     1     111.618 126.149 136.321  0.00  0.00    +0.000 A 
ATOM     15  C   UNL     1     111.880 125.367 136.325  0.00  0.00    +0.000 A 
ATOM     16  C   UNL     1     112.898 124.366 136.595  0.00  0.00    +0.000 A 
ATOM     17  C   UNL     1     113.926 125.611 137.149  0.00  0.00    +0.000 A 
ATOM     18  C   UNL     1     114.203 124.798 137.155  0.00  0.00    +0.000 A 
ATOM     19  C   UNL     1     113.686 124.172 136.876  0.00  0.00    +0.000 A 
ENDBRANCH   4  11
BRANCH   2  20
ATOM     20  O   UNL     1     110.861 128.946 137.921  0.00  0.00    +0.000 OA
ATOM     21  C   UNL     1     111.052 128.659 138.670  0.00  0.00    +0.000 C 
ENDBRANCH   2  20
BRANCH   3  22
ATOM     22  O   UNL     1     111.805 129.252 135.241  0.00  0.00    +0.000 OA
ATOM     23  C   UNL     1     112.442 129.110 134.735  0.00  0.00    +0.000 C 
ENDBRANCH   3  22
BRANCH   1  24
ATOM     24  O   UNL     1     111.072 129.882 136.579  0.00  0.00    +0.000 OA
BRANCH  24  25
ATOM     25  C   UNL     1     110.310 130.062 136.323  0.00  0.00    +0.000 C 
BRANCH  25  27
ATOM     26  O   UNL     1     109.908 131.009 135.331  0.00  0.00    +0.000 OA
ATOM     27  C   UNL     1     110.117 130.836 136.110  0.00  0.00    +0.000 C 
BRANCH  27  29
ATOM     28  O   UNL     1     110.188 133.239 138.371  0.00  0.00    +0.000 OA
ATOM     29  C   UNL     1     110.135 131.436 136.675  0.00  0.00    +0.000 A 
ATOM     30  C   UNL     1     109.503 131.531 137.196  0.00  0.00    +0.000 A 
ATOM     31  C   UNL     1     110.785 131.942 136.718  0.00  0.00    +0.000 A 
ATOM     32  C   UNL     1     109.520 132.131 137.761  0.00  0.00    +0.000 A 
ATOM     33  C   UNL     1     110.803 132.544 137.284  0.00  0.00    +0.000 A 
ATOM     34  C   UNL     1     110.170 132.638 137.805  0.00  0.00    +0.000 A 
BRANCH  32  35
ATOM     35  O   UNL     1     108.888 132.226 138.283  0.00  0.00    +0.000 OA
ATOM     36  C   UNL     1     108.117 132.088 138.025  0.00  0.00    +0.000 C 
ENDBRANCH  32  35
ENDBRANCH  27  29
ENDBRANCH  25  27
BRANCH  25  38
ATOM     37  O   UNL     1     109.079 129.566 135.791  0.00  0.00    +0.000 OA
ATOM     38  C   UNL     1     109.738 129.469 136.279  0.00  0.00    +0.000 C 
ENDBRANCH  25  38
ENDBRANCH  24  25
ENDBRANCH   1  24
TORSDOF 9
ENDMDL
MODEL 4
REMARK VINA RESULT:      -8.6      0.995      1.876
REMARK  Name = 21159153
REMARK  9 active torsions:
REMARK  status: ('A' for Active; 'I' for Inactive)
REMARK    1  A    between atoms: O_1  and  C_12
REMARK    2  A    between atoms: O_1  and  C_16
REMARK    3  A    between atoms: O_5  and  C_19
REMARK    4  A    between atoms: O_6  and  C_20
REMARK    5  A    between atoms: O_7  and  C_25
REMARK    6  A    between atoms: C_12  and  C_13
REMARK    7  A    between atoms: C_12  and  C_15
REMARK    8  A    between atoms: C_13  and  C_14
REMARK    9  A    between atoms: C_21  and  C_24
REMARK                            x       y       z     vdW  Elec       q    Type
REMARK                         _______ _______ _______ _____ _____    ______ ____
ROOT
ATOM      1  C   UNL     1     111.330 129.094 136.586  0.00  0.00    +0.000 A 
ATOM      2  C   UNL     1     111.705 128.782 135.921  0.00  0.00    +0.000 A 
ATOM      3  C   UNL     1     111.217 128.624 137.254  0.00  0.00    +0.000 A 
ATOM      4  C   UNL     1     111.855 127.529 136.593  0.00  0.00    +0.000 A 
ATOM      5  C   UNL     1     111.968 128.000 135.923  0.00  0.00    +0.000 A 
ATOM      6  C   UNL     1     111.479 127.841 137.258  0.00  0.00    +0.000 A 
ENDROOT
BRANCH   4  11
ATOM      7  O   UNL     1     112.874 126.568 136.873  0.00  0.00    +0.000 OA
ATOM      8  O   UNL     1     111.396 124.761 136.048  0.00  0.00    +0.000 OA
ATOM      9  O   UNL     1     112.407 123.770 136.322  0.00  0.00    +0.000 OA
ATOM     10  O   UNL     1     114.962 124.623 137.452  0.00  0.00    +0.000 OA
ATOM     11  C   UNL     1     112.117 126.747 136.595  0.00  0.00    +0.000 A 
ATOM     12  C   UNL     1     112.644 125.184 136.601  0.00  0.00    +0.000 A 
ATOM     13  C   UNL     1     113.136 125.786 136.876  0.00  0.00    +0.000 A 
ATOM     14  C   UNL     1     111.625 126.145 136.320  0.00  0.00    +0.000 A 
ATOM     15  C   UNL     1     111.889 125.363 136.323  0.00  0.00    +0.000 A 
ATOM     16  C   UNL     1     112.907 124.365 136.599  0.00  0.00    +0.000 A 
ATOM     17  C   UNL     1     113.926 125.611 137.168  0.00  0.00    +0.000 A 
ATOM     18  C   UNL     1     114.206 124.799 137.173  0.00  0.00    +0.000 A 
ATOM     19  C   UNL     1     113.693 124.172 136.887  0.00  0.00    +0.000 A 
ENDBRANCH   4  11
BRANCH   2  20
ATOM     20  O   UNL     1     111.818 129.252 135.252  0.00  0.00    +0.000 OA
ATOM     21  C   UNL     1     112.455 129.107 134.748  0.00  0.00    +0.000 C 
ENDBRANCH   2  20
BRANCH   3  22
ATOM     22  O   UNL     1     110.842 128.935 137.919  0.00  0.00    +0.000 OA
ATOM     23  C   UNL     1     111.029 128.650 138.671  0.00  0.00    +0.000 C 
ENDBRANCH   3  22
BRANCH   1  24
ATOM     24  O   UNL     1     111.067 129.876 136.582  0.00  0.00    +0.000 OA
BRANCH  24  25
ATOM     25  C   UNL     1     110.308 130.056 136.317  0.00  0.00    +0.000 C 
BRANCH  25  27
ATOM     26  O   UNL     1     109.908 131.003 135.325  0.00  0.00    +0.000 OA
ATOM     27  C   UNL     1     110.117 130.830 136.104  0.00  0.00    +0.000 C 
BRANCH  27  29
ATOM     28  O   UNL     1     110.186 133.232 138.366  0.00  0.00    +0.000 OA
ATOM     29  C   UNL     1     110.134 131.430 136.669  0.00  0.00    +0.000 A 
ATOM     30  C   UNL     1     109.504 131.521 137.193  0.00  0.00    +0.000 A 
ATOM     31  C   UNL     1     110.782 131.939 136.710  0.00  0.00    +0.000 A 
ATOM     32  C   UNL     1     109.521 132.121 137.759  0.00  0.00    +0.000 A 
ATOM     33  C   UNL     1     110.799 132.540 137.276  0.00  0.00    +0.000 A 
ATOM     34  C   UNL     1     110.169 132.631 137.800  0.00  0.00    +0.000 A 
BRANCH  32  35
ATOM     35  O   UNL     1     108.891 132.213 138.283  0.00  0.00    +0.000 OA
ATOM     36  C   UNL     1     108.118 132.085 138.025  0.00  0.00    +0.000 C 
ENDBRANCH  32  35
ENDBRANCH  27  29
ENDBRANCH  25  27
BRANCH  25  38
ATOM     37  O   UNL     1     109.080 129.562 135.775  0.00  0.00    +0.000 OA
ATOM     38  C   UNL     1     109.738 129.461 136.264  0.00  0.00    +0.000 C 
ENDBRANCH  25  38
ENDBRANCH  24  25
ENDBRANCH   1  24
TORSDOF 9
ENDMDL
MODEL 5
REMARK VINA RESULT:      -8.3      1.105      6.367
REMARK  Name = 21159153
REMARK  9 active torsions:
REMARK  status: ('A' for Active; 'I' for Inactive)
REMARK    1  A    between atoms: O_1  and  C_12
REMARK    2  A    between atoms: O_1  and  C_16
REMARK    3  A    between atoms: O_5  and  C_19
REMARK    4  A    between atoms: O_6  and  C_20
REMARK    5  A    between atoms: O_7  and  C_25
REMARK    6  A    between atoms: C_12  and  C_13
REMARK    7  A    between atoms: C_12  and  C_15
REMARK    8  A    between atoms: C_13  and  C_14
REMARK    9  A    between atoms: C_21  and  C_24
REMARK                            x       y       z     vdW  Elec       q    Type
REMARK                         _______ _______ _______ _____ _____    ______ ____
ROOT
ATOM      1  C   UNL     1     111.358 127.831 137.454  0.00  0.00    +0.000 A 
ATOM      2  C   UNL     1     111.229 127.908 136.643  0.00  0.00    +0.000 A 
ATOM      3  C   UNL     1     110.973 128.334 137.982  0.00  0.00    +0.000 A 
ATOM      4  C   UNL     1     110.327 128.989 136.889  0.00  0.00    +0.000 A 
ATOM      5  C   UNL     1     110.713 128.486 136.360  0.00  0.00    +0.000 A 
ATOM      6  C   UNL     1     110.457 128.913 137.700  0.00  0.00    +0.000 A 
ENDROOT
BRANCH   4  11
ATOM      7  O   UNL     1     110.084 130.337 136.481  0.00  0.00    +0.000 OA
ATOM      8  O   UNL     1     107.724 129.767 136.003  0.00  0.00    +0.000 OA
ATOM      9  O   UNL     1     107.451 131.120 135.587  0.00  0.00    +0.000 OA
ATOM     10  O   UNL     1     109.608 133.088 135.655  0.00  0.00    +0.000 OA
ATOM     11  C   UNL     1     109.812 129.567 136.605  0.00  0.00    +0.000 A 
ATOM     12  C   UNL     1     108.782 130.725 136.039  0.00  0.00    +0.000 A 
ATOM     13  C   UNL     1     109.569 130.915 136.198  0.00  0.00    +0.000 A 
ATOM     14  C   UNL     1     109.025 129.377 136.446  0.00  0.00    +0.000 A 
ATOM     15  C   UNL     1     108.510 129.957 136.163  0.00  0.00    +0.000 A 
ATOM     16  C   UNL     1     108.236 131.320 135.743  0.00  0.00    +0.000 A 
ATOM     17  C   UNL     1     109.864 131.713 136.073  0.00  0.00    +0.000 A 
ATOM     18  C   UNL     1     109.332 132.320 135.778  0.00  0.00    +0.000 A 
ATOM     19  C   UNL     1     108.513 132.122 135.612  0.00  0.00    +0.000 A 
ENDBRANCH   4  11
BRANCH   2  20
ATOM     20  O   UNL     1     111.615 127.405 136.114  0.00  0.00    +0.000 OA
ATOM     21  C   UNL     1     111.789 127.664 135.351  0.00  0.00    +0.000 C 
ENDBRANCH   2  20
BRANCH   3  22
ATOM     22  O   UNL     1     111.102 128.258 138.793  0.00  0.00    +0.000 OA
ATOM     23  C   UNL     1     111.045 128.919 139.285  0.00  0.00    +0.000 C 
ENDBRANCH   3  22
BRANCH   1  24
ATOM     24  O   UNL     1     111.874 127.252 137.736  0.00  0.00    +0.000 OA
BRANCH  24  25
ATOM     25  C   UNL     1     111.588 126.505 137.932  0.00  0.00    +0.000 C 
BRANCH  25  27
ATOM     26  O   UNL     1     111.767 125.786 139.154  0.00  0.00    +0.000 OA
ATOM     27  C   UNL     1     112.039 126.000 138.405  0.00  0.00    +0.000 C 
BRANCH  27  29
ATOM     28  O   UNL     1     114.926 124.842 137.304  0.00  0.00    +0.000 OA
ATOM     29  C   UNL     1     112.760 125.711 138.130  0.00  0.00    +0.000 A 
ATOM     30  C   UNL     1     112.776 125.099 137.576  0.00  0.00    +0.000 A 
ATOM     31  C   UNL     1     113.467 126.033 138.409  0.00  0.00    +0.000 A 
ATOM     32  C   UNL     1     113.497 124.810 137.301  0.00  0.00    +0.000 A 
ATOM     33  C   UNL     1     114.189 125.743 138.133  0.00  0.00    +0.000 A 
ATOM     34  C   UNL     1     114.204 125.132 137.580  0.00  0.00    +0.000 A 
BRANCH  32  35
ATOM     35  O   UNL     1     113.513 124.198 136.747  0.00  0.00    +0.000 OA
ATOM     36  C   UNL     1     112.935 123.610 136.767  0.00  0.00    +0.000 C 
ENDBRANCH  32  35
ENDBRANCH  27  29
ENDBRANCH  25  27
BRANCH  25  38
ATOM     37  O   UNL     1     110.437 125.666 138.052  0.00  0.00    +0.000 OA
ATOM     38  C   UNL     1     110.851 126.260 137.655  0.00  0.00    +0.000 C 
ENDBRANCH  25  38
ENDBRANCH  24  25
ENDBRANCH   1  24
TORSDOF 9
ENDMDL
