MODEL 1
REMARK VINA RESULT:      -9.3      0.000      0.000
REMARK  Name = 131750825
REMARK  4 active torsions:
REMARK  status: ('A' for Active; 'I' for Inactive)
REMARK    1  A    between atoms: O_5  and  C_24
REMARK    2  A    between atoms: O_6  and  C_25
REMARK    3  A    between atoms: C_14  and  C_17
REMARK    4  A    between atoms: C_16  and  C_21
REMARK                            x       y       z     vdW  Elec       q    Type
REMARK                         _______ _______ _______ _____ _____    ______ ____
ROOT
ATOM      1  O   UNL     1     112.022 129.495 136.491  0.00  0.00    +0.000 OA
ATOM      2  O   UNL     1     113.955 127.387 136.222  0.00  0.00    +0.000 OA
ATOM      3  O   UNL     1     111.357 127.750 137.620  0.00  0.00    +0.000 OA
ATOM      4  O   UNL     1     114.405 129.946 134.880  0.00  0.00    +0.000 OA
ATOM      5  C   UNL     1     112.989 128.451 136.352  0.00  0.00    +0.000 A 
ATOM      6  C   UNL     1     112.529 127.962 136.832  0.00  0.00    +0.000 A 
ATOM      7  C   UNL     1     112.735 129.218 136.182  0.00  0.00    +0.000 A 
ATOM      8  C   UNL     1     113.729 128.151 136.037  0.00  0.00    +0.000 A 
ATOM      9  C   UNL     1     111.816 128.239 137.141  0.00  0.00    +0.000 A 
ATOM     10  C   UNL     1     111.562 129.004 136.970  0.00  0.00    +0.000 A 
ATOM     11  C   UNL     1     112.779 127.202 137.002  0.00  0.00    +0.000 A 
ATOM     12  C   UNL     1     113.485 126.918 136.700  0.00  0.00    +0.000 A 
ATOM     13  C   UNL     1     113.204 129.737 135.683  0.00  0.00    +0.000 A 
ATOM     14  C   UNL     1     114.212 128.656 135.536  0.00  0.00    +0.000 A 
ATOM     15  C   UNL     1     113.948 129.454 135.359  0.00  0.00    +0.000 A 
ENDROOT
BRANCH  10  17
ATOM     16  O   UNL     1     108.710 130.112 138.206  0.00  0.00    +0.000 OA
ATOM     17  C   UNL     1     110.849 129.281 137.279  0.00  0.00    +0.000 A 
ATOM     18  C   UNL     1     110.837 129.664 138.011  0.00  0.00    +0.000 A 
ATOM     19  C   UNL     1     110.148 129.177 136.857  0.00  0.00    +0.000 A 
ATOM     20  C   UNL     1     109.435 129.454 137.166  0.00  0.00    +0.000 A 
ATOM     21  C   UNL     1     110.124 129.941 138.320  0.00  0.00    +0.000 A 
ATOM     22  C   UNL     1     109.423 129.835 137.897  0.00  0.00    +0.000 A 
BRANCH  20  23
ATOM     23  O   UNL     1     108.735 129.348 136.744  0.00  0.00    +0.000 OA
ATOM     24  C   UNL     1     108.723 129.469 135.928  0.00  0.00    +0.000 C 
ENDBRANCH  20  23
BRANCH  21  25
ATOM     25  O   UNL     1     110.112 130.322 139.050  0.00  0.00    +0.000 OA
ATOM     26  C   UNL     1     110.713 130.851 139.251  0.00  0.00    +0.000 C 
ENDBRANCH  21  25
ENDBRANCH  10  17
BRANCH  12  28
ATOM     27  O   UNL     1     114.447 123.844 137.419  0.00  0.00    +0.000 OA
ATOM     28  C   UNL     1     113.725 126.148 136.880  0.00  0.00    +0.000 A 
ATOM     29  C   UNL     1     114.211 126.011 137.532  0.00  0.00    +0.000 A 
ATOM     30  C   UNL     1     113.481 125.519 136.407  0.00  0.00    +0.000 A 
ATOM     31  C   UNL     1     114.451 125.242 137.711  0.00  0.00    +0.000 A 
ATOM     32  C   UNL     1     113.721 124.751 136.586  0.00  0.00    +0.000 A 
ATOM     33  C   UNL     1     114.207 124.612 137.240  0.00  0.00    +0.000 A 
ENDBRANCH  12  28
TORSDOF 4
ENDMDL
MODEL 2
REMARK VINA RESULT:      -9.2      3.241      4.061
REMARK  Name = 131750825
REMARK  4 active torsions:
REMARK  status: ('A' for Active; 'I' for Inactive)
REMARK    1  A    between atoms: O_5  and  C_24
REMARK    2  A    between atoms: O_6  and  C_25
REMARK    3  A    between atoms: C_14  and  C_17
REMARK    4  A    between atoms: C_16  and  C_21
REMARK                            x       y       z     vdW  Elec       q    Type
REMARK                         _______ _______ _______ _____ _____    ______ ____
ROOT
ATOM      1  O   UNL     1     109.317 126.484 138.450  0.00  0.00    +0.000 OA
ATOM      2  O   UNL     1     111.552 125.776 136.790  0.00  0.00    +0.000 OA
ATOM      3  O   UNL     1     110.958 125.778 139.703  0.00  0.00    +0.000 OA
ATOM      4  O   UNL     1     109.097 126.784 135.561  0.00  0.00    +0.000 OA
ATOM      5  C   UNL     1     110.425 126.134 137.617  0.00  0.00    +0.000 A 
ATOM      6  C   UNL     1     110.859 125.921 138.285  0.00  0.00    +0.000 A 
ATOM      7  C   UNL     1     109.653 126.415 137.699  0.00  0.00    +0.000 A 
ATOM      8  C   UNL     1     110.786 126.058 136.841  0.00  0.00    +0.000 A 
ATOM      9  C   UNL     1     110.523 125.990 139.035  0.00  0.00    +0.000 A 
ATOM     10  C   UNL     1     109.753 126.272 139.117  0.00  0.00    +0.000 A 
ATOM     11  C   UNL     1     111.624 125.642 138.205  0.00  0.00    +0.000 A 
ATOM     12  C   UNL     1     111.966 125.570 137.465  0.00  0.00    +0.000 A 
ATOM     13  C   UNL     1     109.189 126.640 137.011  0.00  0.00    +0.000 A 
ATOM     14  C   UNL     1     110.337 126.277 136.142  0.00  0.00    +0.000 A 
ATOM     15  C   UNL     1     109.535 126.570 136.227  0.00  0.00    +0.000 A 
ENDROOT
BRANCH  10  17
ATOM     16  O   UNL     1     108.408 126.547 142.118  0.00  0.00    +0.000 OA
ATOM     17  C   UNL     1     109.416 126.340 139.868  0.00  0.00    +0.000 A 
ATOM     18  C   UNL     1     108.995 125.708 140.191  0.00  0.00    +0.000 A 
ATOM     19  C   UNL     1     109.501 127.041 140.295  0.00  0.00    +0.000 A 
ATOM     20  C   UNL     1     109.165 127.109 141.046  0.00  0.00    +0.000 A 
ATOM     21  C   UNL     1     108.659 125.777 140.941  0.00  0.00    +0.000 A 
ATOM     22  C   UNL     1     108.744 126.478 141.368  0.00  0.00    +0.000 A 
BRANCH  20  23
ATOM     23  O   UNL     1     109.250 127.809 141.473  0.00  0.00    +0.000 OA
ATOM     24  C   UNL     1     109.150 128.537 141.096  0.00  0.00    +0.000 C 
ENDBRANCH  20  23
BRANCH  21  25
ATOM     25  O   UNL     1     108.238 125.146 141.264  0.00  0.00    +0.000 OA
ATOM     26  C   UNL     1     107.605 124.817 140.850  0.00  0.00    +0.000 C 
ENDBRANCH  21  25
ENDBRANCH  10  17
BRANCH  12  28
ATOM     27  O   UNL     1     115.055 124.439 137.200  0.00  0.00    +0.000 OA
ATOM     28  C   UNL     1     112.739 125.287 137.399  0.00  0.00    +0.000 A 
ATOM     29  C   UNL     1     113.376 125.788 137.554  0.00  0.00    +0.000 A 
ATOM     30  C   UNL     1     112.874 124.505 137.177  0.00  0.00    +0.000 A 
ATOM     31  C   UNL     1     114.148 125.504 137.488  0.00  0.00    +0.000 A 
ATOM     32  C   UNL     1     113.646 124.221 137.110  0.00  0.00    +0.000 A 
ATOM     33  C   UNL     1     114.284 124.722 137.266  0.00  0.00    +0.000 A 
ENDBRANCH  12  28
TORSDOF 4
ENDMDL
MODEL 3
REMARK VINA RESULT:      -9.2      2.031      4.407
REMARK  Name = 131750825
REMARK  4 active torsions:
REMARK  status: ('A' for Active; 'I' for Inactive)
REMARK    1  A    between atoms: O_5  and  C_24
REMARK    2  A    between atoms: O_6  and  C_25
REMARK    3  A    between atoms: C_14  and  C_17
REMARK    4  A    between atoms: C_16  and  C_21
REMARK                            x       y       z     vdW  Elec       q    Type
REMARK                         _______ _______ _______ _____ _____    ______ ____
ROOT
ATOM      1  O   UNL     1     113.107 127.348 136.045  0.00  0.00    +0.000 OA
ATOM      2  O   UNL     1     113.367 129.644 137.752  0.00  0.00    +0.000 OA
ATOM      3  O   UNL     1     112.161 126.936 137.968  0.00  0.00    +0.000 OA
ATOM      4  O   UNL     1     114.486 129.712 135.051  0.00  0.00    +0.000 OA
ATOM      5  C   UNL     1     113.241 128.495 136.888  0.00  0.00    +0.000 A 
ATOM      6  C   UNL     1     112.835 128.100 137.488  0.00  0.00    +0.000 A 
ATOM      7  C   UNL     1     113.376 128.118 136.166  0.00  0.00    +0.000 A 
ATOM      8  C   UNL     1     113.516 129.296 137.027  0.00  0.00    +0.000 A 
ATOM      9  C   UNL     1     112.566 127.330 137.367  0.00  0.00    +0.000 A 
ATOM     10  C   UNL     1     112.701 126.954 136.646  0.00  0.00    +0.000 A 
ATOM     11  C   UNL     1     112.700 128.472 138.204  0.00  0.00    +0.000 A 
ATOM     12  C   UNL     1     112.963 129.235 138.335  0.00  0.00    +0.000 A 
ATOM     13  C   UNL     1     113.798 128.518 135.533  0.00  0.00    +0.000 A 
ATOM     14  C   UNL     1     113.939 129.712 136.405  0.00  0.00    +0.000 A 
ATOM     15  C   UNL     1     114.081 129.321 135.653  0.00  0.00    +0.000 A 
ENDROOT
BRANCH  10  17
ATOM     16  O   UNL     1     111.623 123.873 136.162  0.00  0.00    +0.000 OA
ATOM     17  C   UNL     1     112.432 126.184 136.525  0.00  0.00    +0.000 A 
ATOM     18  C   UNL     1     112.904 125.542 136.742  0.00  0.00    +0.000 A 
ATOM     19  C   UNL     1     111.691 126.054 136.187  0.00  0.00    +0.000 A 
ATOM     20  C   UNL     1     111.421 125.284 136.066  0.00  0.00    +0.000 A 
ATOM     21  C   UNL     1     112.634 124.772 136.621  0.00  0.00    +0.000 A 
ATOM     22  C   UNL     1     111.893 124.643 136.283  0.00  0.00    +0.000 A 
BRANCH  20  23
ATOM     23  O   UNL     1     110.680 125.155 135.728  0.00  0.00    +0.000 OA
ATOM     24  C   UNL     1     110.402 125.661 135.140  0.00  0.00    +0.000 C 
ENDBRANCH  20  23
BRANCH  21  25
ATOM     25  O   UNL     1     113.106 124.131 136.838  0.00  0.00    +0.000 OA
ATOM     26  C   UNL     1     113.912 124.240 136.978  0.00  0.00    +0.000 C 
ENDBRANCH  21  25
ENDBRANCH  10  17
BRANCH  12  28
ATOM     27  O   UNL     1     112.390 130.686 141.243  0.00  0.00    +0.000 OA
ATOM     28  C   UNL     1     112.820 129.598 139.062  0.00  0.00    +0.000 A 
ATOM     29  C   UNL     1     113.398 129.585 139.651  0.00  0.00    +0.000 A 
ATOM     30  C   UNL     1     112.099 129.974 139.200  0.00  0.00    +0.000 A 
ATOM     31  C   UNL     1     113.254 129.947 140.377  0.00  0.00    +0.000 A 
ATOM     32  C   UNL     1     111.955 130.337 139.927  0.00  0.00    +0.000 A 
ATOM     33  C   UNL     1     112.534 130.324 140.516  0.00  0.00    +0.000 A 
ENDBRANCH  12  28
TORSDOF 4
ENDMDL
MODEL 4
REMARK VINA RESULT:      -9.1      1.856      3.671
REMARK  Name = 131750825
REMARK  4 active torsions:
REMARK  status: ('A' for Active; 'I' for Inactive)
REMARK    1  A    between atoms: O_5  and  C_24
REMARK    2  A    between atoms: O_6  and  C_25
REMARK    3  A    between atoms: C_14  and  C_17
REMARK    4  A    between atoms: C_16  and  C_21
REMARK                            x       y       z     vdW  Elec       q    Type
REMARK                         _______ _______ _______ _____ _____    ______ ____
ROOT
ATOM      1  O   UNL     1     112.165 126.298 136.531  0.00  0.00    +0.000 OA
ATOM      2  O   UNL     1     114.526 127.832 135.962  0.00  0.00    +0.000 OA
ATOM      3  O   UNL     1     111.599 128.346 136.030  0.00  0.00    +0.000 OA
ATOM      4  O   UNL     1     114.772 125.010 136.688  0.00  0.00    +0.000 OA
ATOM      5  C   UNL     1     113.345 127.055 136.249  0.00  0.00    +0.000 A 
ATOM      6  C   UNL     1     112.882 127.722 136.105  0.00  0.00    +0.000 A 
ATOM      7  C   UNL     1     112.986 126.342 136.462  0.00  0.00    +0.000 A 
ATOM      8  C   UNL     1     114.199 127.113 136.174  0.00  0.00    +0.000 A 
ATOM      9  C   UNL     1     112.061 127.678 136.174  0.00  0.00    +0.000 A 
ATOM     10  C   UNL     1     111.703 126.967 136.387  0.00  0.00    +0.000 A 
ATOM     11  C   UNL     1     113.236 128.429 135.894  0.00  0.00    +0.000 A 
ATOM     12  C   UNL     1     114.049 128.483 135.823  0.00  0.00    +0.000 A 
ATOM     13  C   UNL     1     113.456 125.640 136.614  0.00  0.00    +0.000 A 
ATOM     14  C   UNL     1     114.685 126.421 136.322  0.00  0.00    +0.000 A 
ATOM     15  C   UNL     1     114.313 125.680 136.544  0.00  0.00    +0.000 A 
ENDROOT
BRANCH  10  17
ATOM     16  O   UNL     1     108.419 126.790 136.662  0.00  0.00    +0.000 OA
ATOM     17  C   UNL     1     110.882 126.923 136.456  0.00  0.00    +0.000 A 
ATOM     18  C   UNL     1     110.517 127.111 137.172  0.00  0.00    +0.000 A 
ATOM     19  C   UNL     1     110.425 126.690 135.809  0.00  0.00    +0.000 A 
ATOM     20  C   UNL     1     109.604 126.646 135.878  0.00  0.00    +0.000 A 
ATOM     21  C   UNL     1     109.696 127.067 137.241  0.00  0.00    +0.000 A 
ATOM     22  C   UNL     1     109.240 126.834 136.593  0.00  0.00    +0.000 A 
BRANCH  20  23
ATOM     23  O   UNL     1     109.148 126.414 135.232  0.00  0.00    +0.000 OA
ATOM     24  C   UNL     1     109.449 125.871 134.688  0.00  0.00    +0.000 C 
ENDBRANCH  20  23
BRANCH  21  25
ATOM     25  O   UNL     1     109.332 127.255 137.956  0.00  0.00    +0.000 OA
ATOM     26  C   UNL     1     109.709 127.082 138.670  0.00  0.00    +0.000 C 
ENDBRANCH  21  25
ENDBRANCH  10  17
BRANCH  12  28
ATOM     27  O   UNL     1     115.426 131.358 134.968  0.00  0.00    +0.000 OA
ATOM     28  C   UNL     1     114.394 129.203 135.609  0.00  0.00    +0.000 A 
ATOM     29  C   UNL     1     114.610 129.339 134.825  0.00  0.00    +0.000 A 
ATOM     30  C   UNL     1     114.521 129.784 136.180  0.00  0.00    +0.000 A 
ATOM     31  C   UNL     1     114.954 130.058 134.612  0.00  0.00    +0.000 A 
ATOM     32  C   UNL     1     114.865 130.503 135.967  0.00  0.00    +0.000 A 
ATOM     33  C   UNL     1     115.082 130.640 135.181  0.00  0.00    +0.000 A 
ENDBRANCH  12  28
TORSDOF 4
ENDMDL
MODEL 5
REMARK VINA RESULT:      -9.1      2.097      2.635
REMARK  Name = 131750825
REMARK  4 active torsions:
REMARK  status: ('A' for Active; 'I' for Inactive)
REMARK    1  A    between atoms: O_5  and  C_24
REMARK    2  A    between atoms: O_6  and  C_25
REMARK    3  A    between atoms: C_14  and  C_17
REMARK    4  A    between atoms: C_16  and  C_21
REMARK                            x       y       z     vdW  Elec       q    Type
REMARK                         _______ _______ _______ _____ _____    ______ ____
ROOT
ATOM      1  O   UNL     1     112.440 130.697 136.888  0.00  0.00    +0.000 OA
ATOM      2  O   UNL     1     112.505 128.135 135.591  0.00  0.00    +0.000 OA
ATOM      3  O   UNL     1     110.459 129.786 136.978  0.00  0.00    +0.000 OA
ATOM      4  O   UNL     1     114.938 129.751 135.729  0.00  0.00    +0.000 OA
ATOM      5  C   UNL     1     112.481 129.423 136.241  0.00  0.00    +0.000 A 
ATOM      6  C   UNL     1     111.680 129.314 136.406  0.00  0.00    +0.000 A 
ATOM      7  C   UNL     1     112.861 130.115 136.482  0.00  0.00    +0.000 A 
ATOM      8  C   UNL     1     112.908 128.810 135.817  0.00  0.00    +0.000 A 
ATOM      9  C   UNL     1     111.259 129.896 136.813  0.00  0.00    +0.000 A 
ATOM     10  C   UNL     1     111.639 130.586 137.053  0.00  0.00    +0.000 A 
ATOM     11  C   UNL     1     111.302 128.628 136.168  0.00  0.00    +0.000 A 
ATOM     12  C   UNL     1     111.710 128.045 135.765  0.00  0.00    +0.000 A 
ATOM     13  C   UNL     1     113.695 130.241 136.315  0.00  0.00    +0.000 A 
ATOM     14  C   UNL     1     113.742 128.918 135.642  0.00  0.00    +0.000 A 
ATOM     15  C   UNL     1     114.138 129.638 135.892  0.00  0.00    +0.000 A 
ENDROOT
BRANCH  10  17
ATOM     16  O   UNL     1     109.956 132.914 138.678  0.00  0.00    +0.000 OA
ATOM     17  C   UNL     1     111.218 131.168 137.459  0.00  0.00    +0.000 A 
ATOM     18  C   UNL     1     111.154 131.133 138.282  0.00  0.00    +0.000 A 
ATOM     19  C   UNL     1     110.862 131.786 137.045  0.00  0.00    +0.000 A 
ATOM     20  C   UNL     1     110.441 132.368 137.451  0.00  0.00    +0.000 A 
ATOM     21  C   UNL     1     110.733 131.715 138.688  0.00  0.00    +0.000 A 
ATOM     22  C   UNL     1     110.377 132.332 138.272  0.00  0.00    +0.000 A 
BRANCH  20  23
ATOM     23  O   UNL     1     110.085 132.984 137.035  0.00  0.00    +0.000 OA
ATOM     24  C   UNL     1     110.466 133.316 136.383  0.00  0.00    +0.000 C 
ENDBRANCH  20  23
BRANCH  21  25
ATOM     25  O   UNL     1     110.669 131.679 139.509  0.00  0.00    +0.000 OA
ATOM     26  C   UNL     1     110.501 130.962 139.880  0.00  0.00    +0.000 C 
ENDBRANCH  21  25
ENDBRANCH  10  17
BRANCH  12  28
ATOM     27  O   UNL     1     110.136 125.300 134.828  0.00  0.00    +0.000 OA
ATOM     28  C   UNL     1     111.316 127.359 135.530  0.00  0.00    +0.000 A 
ATOM     29  C   UNL     1     111.385 126.670 135.980  0.00  0.00    +0.000 A 
ATOM     30  C   UNL     1     110.855 127.361 134.847  0.00  0.00    +0.000 A 
ATOM     31  C   UNL     1     110.992 125.984 135.745  0.00  0.00    +0.000 A 
ATOM     32  C   UNL     1     110.461 126.675 134.612  0.00  0.00    +0.000 A 
ATOM     33  C   UNL     1     110.530 125.986 135.062  0.00  0.00    +0.000 A 
ENDBRANCH  12  28
TORSDOF 4
ENDMDL
MODEL 6
REMARK VINA RESULT:      -9.1      2.208      4.351
REMARK  Name = 131750825
REMARK  4 active torsions:
REMARK  status: ('A' for Active; 'I' for Inactive)
REMARK    1  A    between atoms: O_5  and  C_24
REMARK    2  A    between atoms: O_6  and  C_25
REMARK    3  A    between atoms: C_14  and  C_17
REMARK    4  A    between atoms: C_16  and  C_21
REMARK                            x       y       z     vdW  Elec       q    Type
REMARK                         _______ _______ _______ _____ _____    ______ ____
ROOT
ATOM      1  O   UNL     1     110.779 127.137 136.093  0.00  0.00    +0.000 OA
ATOM      2  O   UNL     1     112.213 129.482 135.260  0.00  0.00    +0.000 OA
ATOM      3  O   UNL     1     112.856 126.989 136.744  0.00  0.00    +0.000 OA
ATOM      4  O   UNL     1     109.373 129.216 134.615  0.00  0.00    +0.000 OA
ATOM      5  C   UNL     1     111.486 128.307 135.675  0.00  0.00    +0.000 A 
ATOM      6  C   UNL     1     112.175 128.013 136.019  0.00  0.00    +0.000 A 
ATOM      7  C   UNL     1     110.787 127.869 135.712  0.00  0.00    +0.000 A 
ATOM      8  C   UNL     1     111.507 129.070 135.281  0.00  0.00    +0.000 A 
ATOM      9  C   UNL     1     112.167 127.282 136.400  0.00  0.00    +0.000 A 
ATOM     10  C   UNL     1     111.469 126.844 136.437  0.00  0.00    +0.000 A 
ATOM     11  C   UNL     1     112.868 128.447 135.983  0.00  0.00    +0.000 A 
ATOM     12  C   UNL     1     112.887 129.173 135.608  0.00  0.00    +0.000 A 
ATOM     13  C   UNL     1     110.062 128.163 135.357  0.00  0.00    +0.000 A 
ATOM     14  C   UNL     1     110.792 129.381 134.920  0.00  0.00    +0.000 A 
ATOM     15  C   UNL     1     110.065 128.925 134.958  0.00  0.00    +0.000 A 
ENDROOT
BRANCH  10  17
ATOM     16  O   UNL     1     111.437 123.918 137.962  0.00  0.00    +0.000 OA
ATOM     17  C   UNL     1     111.461 126.112 136.818  0.00  0.00    +0.000 A 
ATOM     18  C   UNL     1     111.303 126.070 137.627  0.00  0.00    +0.000 A 
ATOM     19  C   UNL     1     111.611 125.423 136.391  0.00  0.00    +0.000 A 
ATOM     20  C   UNL     1     111.603 124.691 136.772  0.00  0.00    +0.000 A 
ATOM     21  C   UNL     1     111.295 125.339 138.009  0.00  0.00    +0.000 A 
ATOM     22  C   UNL     1     111.445 124.649 137.580  0.00  0.00    +0.000 A 
BRANCH  20  23
ATOM     23  O   UNL     1     111.752 124.002 136.345  0.00  0.00    +0.000 OA
ATOM     24  C   UNL     1     112.469 123.911 135.948  0.00  0.00    +0.000 C 
ENDBRANCH  20  23
BRANCH  21  25
ATOM     25  O   UNL     1     111.137 125.297 138.817  0.00  0.00    +0.000 OA
ATOM     26  C   UNL     1     110.543 125.765 139.147  0.00  0.00    +0.000 C 
ENDBRANCH  21  25
ENDBRANCH  10  17
BRANCH  12  28
ATOM     27  O   UNL     1     115.709 130.881 135.493  0.00  0.00    +0.000 OA
ATOM     28  C   UNL     1     113.593 129.601 135.579  0.00  0.00    +0.000 A 
ATOM     29  C   UNL     1     113.768 130.148 136.171  0.00  0.00    +0.000 A 
ATOM     30  C   UNL     1     114.122 129.480 134.959  0.00  0.00    +0.000 A 
ATOM     31  C   UNL     1     114.473 130.574 136.142  0.00  0.00    +0.000 A 
ATOM     32  C   UNL     1     114.828 129.906 134.930  0.00  0.00    +0.000 A 
ATOM     33  C   UNL     1     115.003 130.454 135.523  0.00  0.00    +0.000 A 
ENDBRANCH  12  28
TORSDOF 4
ENDMDL
MODEL 7
REMARK VINA RESULT:      -9.1      1.881      2.773
REMARK  Name = 131750825
REMARK  4 active torsions:
REMARK  status: ('A' for Active; 'I' for Inactive)
REMARK    1  A    between atoms: O_5  and  C_24
REMARK    2  A    between atoms: O_6  and  C_25
REMARK    3  A    between atoms: C_14  and  C_17
REMARK    4  A    between atoms: C_16  and  C_21
REMARK                            x       y       z     vdW  Elec       q    Type
REMARK                         _______ _______ _______ _____ _____    ______ ____
ROOT
ATOM      1  O   UNL     1     113.354 129.632 137.726  0.00  0.00    +0.000 OA
ATOM      2  O   UNL     1     113.531 127.201 136.207  0.00  0.00    +0.000 OA
ATOM      3  O   UNL     1     112.920 127.932 139.023  0.00  0.00    +0.000 OA
ATOM      4  O   UNL     1     114.032 129.767 134.898  0.00  0.00    +0.000 OA
ATOM      5  C   UNL     1     113.444 128.427 136.963  0.00  0.00    +0.000 A 
ATOM      6  C   UNL     1     113.252 127.988 137.635  0.00  0.00    +0.000 A 
ATOM      7  C   UNL     1     113.495 129.250 137.009  0.00  0.00    +0.000 A 
ATOM      8  C   UNL     1     113.588 128.017 136.222  0.00  0.00    +0.000 A 
ATOM      9  C   UNL     1     113.112 128.371 138.352  0.00  0.00    +0.000 A 
ATOM     10  C   UNL     1     113.163 129.192 138.398  0.00  0.00    +0.000 A 
ATOM     11  C   UNL     1     113.202 127.173 137.591  0.00  0.00    +0.000 A 
ATOM     12  C   UNL     1     113.339 126.784 136.884  0.00  0.00    +0.000 A 
ATOM     13  C   UNL     1     113.694 129.719 136.317  0.00  0.00    +0.000 A 
ATOM     14  C   UNL     1     113.788 128.469 135.520  0.00  0.00    +0.000 A 
ATOM     15  C   UNL     1     113.841 129.325 135.567  0.00  0.00    +0.000 A 
ENDROOT
BRANCH  10  17
ATOM     16  O   UNL     1     112.600 130.723 141.266  0.00  0.00    +0.000 OA
ATOM     17  C   UNL     1     113.022 129.575 139.115  0.00  0.00    +0.000 A 
ATOM     18  C   UNL     1     112.257 129.816 139.311  0.00  0.00    +0.000 A 
ATOM     19  C   UNL     1     113.645 129.718 139.636  0.00  0.00    +0.000 A 
ATOM     20  C   UNL     1     113.505 130.100 140.353  0.00  0.00    +0.000 A 
ATOM     21  C   UNL     1     112.116 130.198 140.029  0.00  0.00    +0.000 A 
ATOM     22  C   UNL     1     112.741 130.341 140.549  0.00  0.00    +0.000 A 
BRANCH  20  23
ATOM     23  O   UNL     1     114.128 130.243 140.874  0.00  0.00    +0.000 OA
ATOM     24  C   UNL     1     114.833 130.568 140.594  0.00  0.00    +0.000 C 
ENDBRANCH  20  23
BRANCH  21  25
ATOM     25  O   UNL     1     111.352 130.439 140.225  0.00  0.00    +0.000 OA
ATOM     26  C   UNL     1     110.816 130.636 139.630  0.00  0.00    +0.000 C 
ENDBRANCH  21  25
ENDBRANCH  10  17
BRANCH  12  28
ATOM     27  O   UNL     1     113.120 123.493 136.763  0.00  0.00    +0.000 OA
ATOM     28  C   UNL     1     113.284 125.960 136.854  0.00  0.00    +0.000 A 
ATOM     29  C   UNL     1     112.569 125.602 136.654  0.00  0.00    +0.000 A 
ATOM     30  C   UNL     1     113.945 125.497 137.023  0.00  0.00    +0.000 A 
ATOM     31  C   UNL     1     112.514 124.780 136.624  0.00  0.00    +0.000 A 
ATOM     32  C   UNL     1     113.891 124.674 136.993  0.00  0.00    +0.000 A 
ATOM     33  C   UNL     1     113.174 124.315 136.793  0.00  0.00    +0.000 A 
ENDBRANCH  12  28
TORSDOF 4
ENDMDL
MODEL 8
REMARK VINA RESULT:      -9.1      2.084      3.164
REMARK  Name = 131750825
REMARK  4 active torsions:
REMARK  status: ('A' for Active; 'I' for Inactive)
REMARK    1  A    between atoms: O_5  and  C_24
REMARK    2  A    between atoms: O_6  and  C_25
REMARK    3  A    between atoms: C_14  and  C_17
REMARK    4  A    between atoms: C_16  and  C_21
REMARK                            x       y       z     vdW  Elec       q    Type
REMARK                         _______ _______ _______ _____ _____    ______ ____
ROOT
ATOM      1  O   UNL     1     113.174 128.855 139.013  0.00  0.00    +0.000 OA
ATOM      2  O   UNL     1     113.186 125.990 138.798  0.00  0.00    +0.000 OA
ATOM      3  O   UNL     1     112.194 128.261 137.155  0.00  0.00    +0.000 OA
ATOM      4  O   UNL     1     114.393 127.273 141.132  0.00  0.00    +0.000 OA
ATOM      5  C   UNL     1     113.184 127.429 138.913  0.00  0.00    +0.000 A 
ATOM      6  C   UNL     1     112.790 127.477 138.190  0.00  0.00    +0.000 A 
ATOM      7  C   UNL     1     113.376 128.118 139.324  0.00  0.00    +0.000 A 
ATOM      8  C   UNL     1     113.389 126.656 139.227  0.00  0.00    +0.000 A 
ATOM      9  C   UNL     1     112.588 128.214 137.878  0.00  0.00    +0.000 A 
ATOM     10  C   UNL     1     112.780 128.902 138.289  0.00  0.00    +0.000 A 
ATOM     11  C   UNL     1     112.599 126.795 137.781  0.00  0.00    +0.000 A 
ATOM     12  C   UNL     1     112.795 126.059 138.082  0.00  0.00    +0.000 A 
ATOM     13  C   UNL     1     113.786 128.082 140.079  0.00  0.00    +0.000 A 
ATOM     14  C   UNL     1     113.799 126.600 139.980  0.00  0.00    +0.000 A 
ATOM     15  C   UNL     1     114.000 127.317 140.409  0.00  0.00    +0.000 A 
ENDROOT
BRANCH  10  17
ATOM     16  O   UNL     1     111.971 131.848 137.042  0.00  0.00    +0.000 OA
ATOM     17  C   UNL     1     112.577 129.638 137.977  0.00  0.00    +0.000 A 
ATOM     18  C   UNL     1     113.086 130.017 137.448  0.00  0.00    +0.000 A 
ATOM     19  C   UNL     1     111.867 129.997 138.193  0.00  0.00    +0.000 A 
ATOM     20  C   UNL     1     111.665 130.734 137.882  0.00  0.00    +0.000 A 
ATOM     21  C   UNL     1     112.884 130.753 137.137  0.00  0.00    +0.000 A 
ATOM     22  C   UNL     1     112.173 131.111 137.354  0.00  0.00    +0.000 A 
BRANCH  20  23
ATOM     23  O   UNL     1     110.955 131.092 138.098  0.00  0.00    +0.000 OA
ATOM     24  C   UNL     1     110.682 131.032 138.874  0.00  0.00    +0.000 C 
ENDBRANCH  20  23
BRANCH  21  25
ATOM     25  O   UNL     1     113.392 131.131 136.609  0.00  0.00    +0.000 OA
ATOM     26  C   UNL     1     114.209 131.049 136.691  0.00  0.00    +0.000 C 
ENDBRANCH  21  25
ENDBRANCH  10  17
BRANCH  12  28
ATOM     27  O   UNL     1     112.001 123.339 136.390  0.00  0.00    +0.000 OA
ATOM     28  C   UNL     1     112.596 125.379 137.658  0.00  0.00    +0.000 A 
ATOM     29  C   UNL     1     113.154 125.023 137.165  0.00  0.00    +0.000 A 
ATOM     30  C   UNL     1     111.841 125.056 137.728  0.00  0.00    +0.000 A 
ATOM     31  C   UNL     1     112.955 124.343 136.743  0.00  0.00    +0.000 A 
ATOM     32  C   UNL     1     111.642 124.376 137.306  0.00  0.00    +0.000 A 
ATOM     33  C   UNL     1     112.200 124.019 136.812  0.00  0.00    +0.000 A 
ENDBRANCH  12  28
TORSDOF 4
ENDMDL
MODEL 9
REMARK VINA RESULT:      -9.0      1.340      1.674
REMARK  Name = 131750825
REMARK  4 active torsions:
REMARK  status: ('A' for Active; 'I' for Inactive)
REMARK    1  A    between atoms: O_5  and  C_24
REMARK    2  A    between atoms: O_6  and  C_25
REMARK    3  A    between atoms: C_14  and  C_17
REMARK    4  A    between atoms: C_16  and  C_21
REMARK                            x       y       z     vdW  Elec       q    Type
REMARK                         _______ _______ _______ _____ _____    ______ ____
ROOT
ATOM      1  O   UNL     1     111.443 129.528 136.307  0.00  0.00    +0.000 OA
ATOM      2  O   UNL     1     112.729 126.961 136.386  0.00  0.00    +0.000 OA
ATOM      3  O   UNL     1     109.953 127.980 136.691  0.00  0.00    +0.000 OA
ATOM      4  O   UNL     1     114.321 129.364 135.897  0.00  0.00    +0.000 OA
ATOM      5  C   UNL     1     112.090 128.254 136.345  0.00  0.00    +0.000 A 
ATOM      6  C   UNL     1     111.365 127.890 136.491  0.00  0.00    +0.000 A 
ATOM      7  C   UNL     1     112.129 129.074 136.253  0.00  0.00    +0.000 A 
ATOM      8  C   UNL     1     112.798 127.770 136.291  0.00  0.00    +0.000 A 
ATOM      9  C   UNL     1     110.678 128.344 136.545  0.00  0.00    +0.000 A 
ATOM     10  C   UNL     1     110.718 129.163 136.453  0.00  0.00    +0.000 A 
ATOM     11  C   UNL     1     111.325 127.078 136.582  0.00  0.00    +0.000 A 
ATOM     12  C   UNL     1     112.000 126.618 136.530  0.00  0.00    +0.000 A 
ATOM     13  C   UNL     1     112.879 129.465 136.101  0.00  0.00    +0.000 A 
ATOM     14  C   UNL     1     113.557 128.144 136.139  0.00  0.00    +0.000 A 
ATOM     15  C   UNL     1     113.598 128.997 136.043  0.00  0.00    +0.000 A 
ENDROOT
BRANCH  10  17
ATOM     16  O   UNL     1     107.972 130.980 136.670  0.00  0.00    +0.000 OA
ATOM     17  C   UNL     1     110.031 129.617 136.507  0.00  0.00    +0.000 A 
ATOM     18  C   UNL     1     109.738 129.836 137.248  0.00  0.00    +0.000 A 
ATOM     19  C   UNL     1     109.637 129.853 135.822  0.00  0.00    +0.000 A 
ATOM     20  C   UNL     1     108.950 130.307 135.876  0.00  0.00    +0.000 A 
ATOM     21  C   UNL     1     109.052 130.290 137.302  0.00  0.00    +0.000 A 
ATOM     22  C   UNL     1     108.658 130.526 136.616  0.00  0.00    +0.000 A 
BRANCH  20  23
ATOM     23  O   UNL     1     108.557 130.543 135.191  0.00  0.00    +0.000 OA
ATOM     24  C   UNL     1     108.957 130.975 134.614  0.00  0.00    +0.000 C 
ENDBRANCH  20  23
BRANCH  21  25
ATOM     25  O   UNL     1     108.759 130.509 138.041  0.00  0.00    +0.000 OA
ATOM     26  C   UNL     1     109.280 130.680 138.657  0.00  0.00    +0.000 C 
ENDBRANCH  21  25
ENDBRANCH  10  17
BRANCH  12  28
ATOM     27  O   UNL     1     111.780 123.347 136.906  0.00  0.00    +0.000 OA
ATOM     28  C   UNL     1     111.945 125.800 136.625  0.00  0.00    +0.000 A 
ATOM     29  C   UNL     1     111.693 125.329 135.996  0.00  0.00    +0.000 A 
ATOM     30  C   UNL     1     112.142 125.454 137.346  0.00  0.00    +0.000 A 
ATOM     31  C   UNL     1     111.638 124.511 136.090  0.00  0.00    +0.000 A 
ATOM     32  C   UNL     1     112.087 124.636 137.441  0.00  0.00    +0.000 A 
ATOM     33  C   UNL     1     111.835 124.164 136.811  0.00  0.00    +0.000 A 
ENDBRANCH  12  28
TORSDOF 4
ENDMDL
MODEL 10
REMARK VINA RESULT:      -8.9      1.955      4.655
REMARK  Name = 131750825
REMARK  4 active torsions:
REMARK  status: ('A' for Active; 'I' for Inactive)
REMARK    1  A    between atoms: O_5  and  C_24
REMARK    2  A    between atoms: O_6  and  C_25
REMARK    3  A    between atoms: C_14  and  C_17
REMARK    4  A    between atoms: C_16  and  C_21
REMARK                            x       y       z     vdW  Elec       q    Type
REMARK                         _______ _______ _______ _____ _____    ______ ____
ROOT
ATOM      1  O   UNL     1     112.685 127.386 136.513  0.00  0.00    +0.000 OA
ATOM      2  O   UNL     1     111.771 129.857 135.370  0.00  0.00    +0.000 OA
ATOM      3  O   UNL     1     110.534 127.580 136.825  0.00  0.00    +0.000 OA
ATOM      4  O   UNL     1     114.602 129.144 135.203  0.00  0.00    +0.000 OA
ATOM      5  C   UNL     1     112.237 128.618 135.941  0.00  0.00    +0.000 A 
ATOM      6  C   UNL     1     111.467 128.448 136.181  0.00  0.00    +0.000 A 
ATOM      7  C   UNL     1     112.847 128.086 136.108  0.00  0.00    +0.000 A 
ATOM      8  C   UNL     1     112.394 129.350 135.520  0.00  0.00    +0.000 A 
ATOM      9  C   UNL     1     111.304 127.748 136.586  0.00  0.00    +0.000 A 
ATOM     10  C   UNL     1     111.913 127.217 136.752  0.00  0.00    +0.000 A 
ATOM     11  C   UNL     1     110.862 128.974 136.017  0.00  0.00    +0.000 A 
ATOM     12  C   UNL     1     111.012 129.671 135.616  0.00  0.00    +0.000 A 
ATOM     13  C   UNL     1     113.655 128.250 135.864  0.00  0.00    +0.000 A 
ATOM     14  C   UNL     1     113.195 129.531 135.269  0.00  0.00    +0.000 A 
ATOM     15  C   UNL     1     113.829 128.978 135.441  0.00  0.00    +0.000 A 
ENDROOT
BRANCH  10  17
ATOM     16  O   UNL     1     111.264 124.417 138.372  0.00  0.00    +0.000 OA
ATOM     17  C   UNL     1     111.751 126.517 137.157  0.00  0.00    +0.000 A 
ATOM     18  C   UNL     1     111.772 126.503 137.982  0.00  0.00    +0.000 A 
ATOM     19  C   UNL     1     111.566 125.831 136.738  0.00  0.00    +0.000 A 
ATOM     20  C   UNL     1     111.404 125.131 137.143  0.00  0.00    +0.000 A 
ATOM     21  C   UNL     1     111.610 125.803 138.387  0.00  0.00    +0.000 A 
ATOM     22  C   UNL     1     111.426 125.117 137.967  0.00  0.00    +0.000 A 
BRANCH  20  23
ATOM     23  O   UNL     1     111.220 124.445 136.724  0.00  0.00    +0.000 OA
ATOM     24  C   UNL     1     111.710 124.194 136.110  0.00  0.00    +0.000 C 
ENDBRANCH  20  23
BRANCH  21  25
ATOM     25  O   UNL     1     111.632 125.789 139.211  0.00  0.00    +0.000 OA
ATOM     26  C   UNL     1     112.056 126.365 139.623  0.00  0.00    +0.000 C 
ENDBRANCH  21  25
ENDBRANCH  10  17
BRANCH  12  28
ATOM     27  O   UNL     1     108.535 131.758 134.982  0.00  0.00    +0.000 OA
ATOM     28  C   UNL     1     110.392 130.193 135.457  0.00  0.00    +0.000 A 
ATOM     29  C   UNL     1     110.222 130.804 135.985  0.00  0.00    +0.000 A 
ATOM     30  C   UNL     1     109.944 130.104 134.771  0.00  0.00    +0.000 A 
ATOM     31  C   UNL     1     109.603 131.325 135.826  0.00  0.00    +0.000 A 
ATOM     32  C   UNL     1     109.325 130.625 134.612  0.00  0.00    +0.000 A 
ATOM     33  C   UNL     1     109.154 131.237 135.141  0.00  0.00    +0.000 A 
ENDBRANCH  12  28
TORSDOF 4
ENDMDL
