MODEL 1
REMARK VINA RESULT:     -10.6      0.000      0.000
REMARK  Name = 
REMARK  8 active torsions:
REMARK  status: ('A' for Active; 'I' for Inactive)
REMARK    1  A    between atoms: C_5  and  O_7
REMARK    2  A    between atoms: O_7  and  C_16
REMARK    3  A    between atoms: C_13  and  C_22
REMARK    4  A    between atoms: C_17  and  O_19
REMARK    5  A    between atoms: O_19  and  C_30
REMARK    6  A    between atoms: C_23  and  O_41
REMARK    7  A    between atoms: C_31  and  C_33
REMARK    8  A    between atoms: O_41  and  C_47
REMARK                            x       y       z     vdW  Elec       q    Type
REMARK                         _______ _______ _______ _____ _____    ______ ____
ROOT
ATOM      1  C   UNL     1     112.376 131.030 141.840  0.00  0.00    +0.000 A 
ATOM      2  C   UNL     1     113.298 130.670 141.729  0.00  0.00    +0.000 A 
ATOM      3  C   UNL     1     113.514 130.096 140.935  0.00  0.00    +0.000 A 
ATOM      4  C   UNL     1     111.669 130.819 141.164  0.00  0.00    +0.000 A 
ATOM      5  C   UNL     1     111.889 130.247 140.375  0.00  0.00    +0.000 A 
ATOM      6  C   UNL     1     112.811 129.887 140.264  0.00  0.00    +0.000 A 
ATOM      7  C   UNL     1     113.032 129.316 139.477  0.00  0.00    +0.000 A 
ATOM      8  C   UNL     1     112.325 129.105 138.800  0.00  0.00    +0.000 A 
ATOM      9  C   UNL     1     111.400 129.468 138.916  0.00  0.00    +0.000 A 
ATOM     10  O   UNL     1     111.183 130.039 139.704  0.00  0.00    +0.000 OA
ATOM     11  O   UNL     1     113.954 128.954 139.362  0.00  0.00    +0.000 OA
ATOM     12  O   UNL     1     114.439 129.735 140.824  0.00  0.00    +0.000 OA
ENDROOT
BRANCH   9  13
ATOM     13  C   UNL     1     110.695 129.254 138.235  0.00  0.00    +0.000 A 
ATOM     14  C   UNL     1     110.275 128.354 138.221  0.00  0.00    +0.000 A 
ATOM     15  C   UNL     1     109.568 128.146 137.535  0.00  0.00    +0.000 A 
ATOM     16  C   UNL     1     109.293 128.842 136.875  0.00  0.00    +0.000 A 
ATOM     17  C   UNL     1     109.719 129.750 136.892  0.00  0.00    +0.000 A 
ATOM     18  C   UNL     1     110.419 129.955 137.572  0.00  0.00    +0.000 A 
ATOM     19  O   UNL     1     108.584 128.638 136.184  0.00  0.00    +0.000 OA
ENDBRANCH   9  13
BRANCH   8  20
ATOM     20  O   UNL     1     112.545 128.552 138.043  0.00  0.00    +0.000 OA
BRANCH  20  25
ATOM     21  C   UNL     1     113.871 130.245 136.529  0.00  0.00    +0.000 C 
ATOM     22  C   UNL     1     114.255 129.629 135.845  0.00  0.00    +0.000 C 
ATOM     23  C   UNL     1     114.068 128.655 135.896  0.00  0.00    +0.000 C 
ATOM     24  C   UNL     1     113.500 128.291 136.624  0.00  0.00    +0.000 C 
ATOM     25  C   UNL     1     113.115 128.907 137.309  0.00  0.00    +0.000 C 
ATOM     26  O   UNL     1     113.299 129.887 137.265  0.00  0.00    +0.000 OA
ATOM     27  O   UNL     1     114.453 128.039 135.211  0.00  0.00    +0.000 OA
ATOM     28  O   UNL     1     114.827 129.991 135.111  0.00  0.00    +0.000 OA
BRANCH  21  30
ATOM     29  O   UNL     1     113.398 131.881 136.851  0.00  0.00    +0.000 OA
ATOM     30  C   UNL     1     114.058 131.224 136.478  0.00  0.00    +0.000 C 
ENDBRANCH  21  30
BRANCH  24  31
ATOM     31  O   UNL     1     113.314 127.313 136.673  0.00  0.00    +0.000 OA
BRANCH  31  36
ATOM     32  C   UNL     1     111.667 125.359 136.058  0.00  0.00    +0.000 C 
ATOM     33  C   UNL     1     112.147 124.575 136.445  0.00  0.00    +0.000 C 
ATOM     34  C   UNL     1     113.016 124.706 136.907  0.00  0.00    +0.000 C 
ATOM     35  C   UNL     1     113.409 125.615 136.986  0.00  0.00    +0.000 C 
ATOM     36  C   UNL     1     112.928 126.399 136.599  0.00  0.00    +0.000 C 
ATOM     37  O   UNL     1     112.055 126.275 136.133  0.00  0.00    +0.000 OA
ATOM     38  O   UNL     1     114.282 125.743 137.450  0.00  0.00    +0.000 OA
ATOM     39  O   UNL     1     113.496 123.922 137.293  0.00  0.00    +0.000 OA
ATOM     40  O   UNL     1     111.755 123.660 136.367  0.00  0.00    +0.000 OA
ATOM     41  C   UNL     1     110.793 125.226 135.594  0.00  0.00    +0.000 C 
ENDBRANCH  31  36
ENDBRANCH  24  31
ENDBRANCH  20  25
ENDBRANCH   8  20
BRANCH   1  42
ATOM     42  O   UNL     1     112.156 131.608 142.638  0.00  0.00    +0.000 OA
BRANCH  42  47
ATOM     43  C   UNL     1     111.827 133.769 144.162  0.00  0.00    +0.000 C 
ATOM     44  C   UNL     1     111.499 133.351 145.022  0.00  0.00    +0.000 C 
ATOM     45  C   UNL     1     111.391 132.354 145.084  0.00  0.00    +0.000 C 
ATOM     46  C   UNL     1     111.607 131.770 144.295  0.00  0.00    +0.000 C 
ATOM     47  C   UNL     1     111.936 132.186 143.435  0.00  0.00    +0.000 C 
ATOM     48  O   UNL     1     112.047 133.189 143.364  0.00  0.00    +0.000 OA
ATOM     49  O   UNL     1     111.497 130.767 144.362  0.00  0.00    +0.000 OA
ATOM     50  O   UNL     1     111.062 131.936 145.944  0.00  0.00    +0.000 OA
ATOM     51  O   UNL     1     111.280 133.935 145.818  0.00  0.00    +0.000 OA
ATOM     52  C   UNL     1     111.936 134.772 144.099  0.00  0.00    +0.000 C 
ENDBRANCH  42  47
ENDBRANCH   1  42
TORSDOF 8
ENDMDL
MODEL 2
REMARK VINA RESULT:     -10.1      1.802      3.575
REMARK  Name = 
REMARK  8 active torsions:
REMARK  status: ('A' for Active; 'I' for Inactive)
REMARK    1  A    between atoms: C_5  and  O_7
REMARK    2  A    between atoms: O_7  and  C_16
REMARK    3  A    between atoms: C_13  and  C_22
REMARK    4  A    between atoms: C_17  and  O_19
REMARK    5  A    between atoms: O_19  and  C_30
REMARK    6  A    between atoms: C_23  and  O_41
REMARK    7  A    between atoms: C_31  and  C_33
REMARK    8  A    between atoms: O_41  and  C_47
REMARK                            x       y       z     vdW  Elec       q    Type
REMARK                         _______ _______ _______ _____ _____    ______ ____
ROOT
ATOM      1  C   UNL     1     111.366 130.615 143.246  0.00  0.00    +0.000 A 
ATOM      2  C   UNL     1     110.922 129.724 143.268  0.00  0.00    +0.000 A 
ATOM      3  C   UNL     1     110.878 129.169 142.434  0.00  0.00    +0.000 A 
ATOM      4  C   UNL     1     111.766 130.955 142.394  0.00  0.00    +0.000 A 
ATOM      5  C   UNL     1     111.720 130.399 141.565  0.00  0.00    +0.000 A 
ATOM      6  C   UNL     1     111.276 129.508 141.589  0.00  0.00    +0.000 A 
ATOM      7  C   UNL     1     111.229 128.952 140.761  0.00  0.00    +0.000 A 
ATOM      8  C   UNL     1     111.630 129.292 139.909  0.00  0.00    +0.000 A 
ATOM      9  C   UNL     1     112.075 130.188 139.890  0.00  0.00    +0.000 A 
ATOM     10  O   UNL     1     112.120 130.740 140.719  0.00  0.00    +0.000 OA
ATOM     11  O   UNL     1     110.785 128.059 140.781  0.00  0.00    +0.000 OA
ATOM     12  O   UNL     1     110.432 128.275 142.458  0.00  0.00    +0.000 OA
ENDROOT
BRANCH   9  13
ATOM     13  C   UNL     1     112.475 130.524 139.034  0.00  0.00    +0.000 A 
ATOM     14  C   UNL     1     111.892 130.929 138.339  0.00  0.00    +0.000 A 
ATOM     15  C   UNL     1     112.300 131.264 137.483  0.00  0.00    +0.000 A 
ATOM     16  C   UNL     1     113.284 131.190 137.334  0.00  0.00    +0.000 A 
ATOM     17  C   UNL     1     113.870 130.781 138.038  0.00  0.00    +0.000 A 
ATOM     18  C   UNL     1     113.465 130.449 138.887  0.00  0.00    +0.000 A 
ATOM     19  O   UNL     1     113.698 131.525 136.476  0.00  0.00    +0.000 OA
ENDBRANCH   9  13
BRANCH   8  20
ATOM     20  O   UNL     1     111.581 128.750 139.115  0.00  0.00    +0.000 OA
BRANCH  20  25
ATOM     21  C   UNL     1     113.480 126.992 139.582  0.00  0.00    +0.000 C 
ATOM     22  C   UNL     1     113.364 126.375 138.806  0.00  0.00    +0.000 C 
ATOM     23  C   UNL     1     112.654 126.553 138.134  0.00  0.00    +0.000 C 
ATOM     24  C   UNL     1     112.058 127.341 138.232  0.00  0.00    +0.000 C 
ATOM     25  C   UNL     1     112.173 127.958 139.008  0.00  0.00    +0.000 C 
ATOM     26  O   UNL     1     112.885 127.786 139.687  0.00  0.00    +0.000 OA
ATOM     27  O   UNL     1     112.539 125.936 137.358  0.00  0.00    +0.000 OA
ATOM     28  O   UNL     1     113.961 125.582 138.704  0.00  0.00    +0.000 OA
BRANCH  21  30
ATOM     29  O   UNL     1     114.384 127.488 140.973  0.00  0.00    +0.000 OA
ATOM     30  C   UNL     1     114.193 126.813 140.256  0.00  0.00    +0.000 C 
ENDBRANCH  21  30
BRANCH  24  31
ATOM     31  O   UNL     1     111.346 127.517 137.557  0.00  0.00    +0.000 OA
BRANCH  31  36
ATOM     32  C   UNL     1     110.640 128.770 135.357  0.00  0.00    +0.000 C 
ATOM     33  C   UNL     1     109.655 128.606 135.351  0.00  0.00    +0.000 C 
ATOM     34  C   UNL     1     109.238 128.079 136.081  0.00  0.00    +0.000 C 
ATOM     35  C   UNL     1     109.795 127.714 136.817  0.00  0.00    +0.000 C 
ATOM     36  C   UNL     1     110.780 127.878 136.823  0.00  0.00    +0.000 C 
ATOM     37  O   UNL     1     111.206 128.407 136.093  0.00  0.00    +0.000 OA
ATOM     38  O   UNL     1     109.372 127.185 137.549  0.00  0.00    +0.000 OA
ATOM     39  O   UNL     1     108.254 127.915 136.074  0.00  0.00    +0.000 OA
ATOM     40  O   UNL     1     109.092 128.971 134.612  0.00  0.00    +0.000 OA
ATOM     41  C   UNL     1     111.059 129.300 134.623  0.00  0.00    +0.000 C 
ENDBRANCH  31  36
ENDBRANCH  24  31
ENDBRANCH  20  25
ENDBRANCH   8  20
BRANCH   1  42
ATOM     42  O   UNL     1     111.412 131.175 144.085  0.00  0.00    +0.000 OA
BRANCH  42  47
ATOM     43  C   UNL     1     112.301 132.202 146.376  0.00  0.00    +0.000 C 
ATOM     44  C   UNL     1     111.556 132.848 146.601  0.00  0.00    +0.000 C 
ATOM     45  C   UNL     1     110.766 132.934 145.986  0.00  0.00    +0.000 C 
ATOM     46  C   UNL     1     110.713 132.381 145.148  0.00  0.00    +0.000 C 
ATOM     47  C   UNL     1     111.457 131.735 144.923  0.00  0.00    +0.000 C 
ATOM     48  O   UNL     1     112.255 131.642 145.536  0.00  0.00    +0.000 OA
ATOM     49  O   UNL     1     109.916 132.470 144.532  0.00  0.00    +0.000 OA
ATOM     50  O   UNL     1     110.022 133.580 146.210  0.00  0.00    +0.000 OA
ATOM     51  O   UNL     1     111.606 133.406 147.442  0.00  0.00    +0.000 OA
ATOM     52  C   UNL     1     113.096 132.115 146.995  0.00  0.00    +0.000 C 
ENDBRANCH  42  47
ENDBRANCH   1  42
TORSDOF 8
ENDMDL
MODEL 3
REMARK VINA RESULT:      -9.7      5.695      9.113
REMARK  Name = 
REMARK  8 active torsions:
REMARK  status: ('A' for Active; 'I' for Inactive)
REMARK    1  A    between atoms: C_5  and  O_7
REMARK    2  A    between atoms: O_7  and  C_16
REMARK    3  A    between atoms: C_13  and  C_22
REMARK    4  A    between atoms: C_17  and  O_19
REMARK    5  A    between atoms: O_19  and  C_30
REMARK    6  A    between atoms: C_23  and  O_41
REMARK    7  A    between atoms: C_31  and  C_33
REMARK    8  A    between atoms: O_41  and  C_47
REMARK                            x       y       z     vdW  Elec       q    Type
REMARK                         _______ _______ _______ _____ _____    ______ ____
ROOT
ATOM      1  C   UNL     1     110.818 126.579 139.730  0.00  0.00    +0.000 A 
ATOM      2  C   UNL     1     110.951 127.135 140.545  0.00  0.00    +0.000 A 
ATOM      3  C   UNL     1     110.241 127.157 141.253  0.00  0.00    +0.000 A 
ATOM      4  C   UNL     1     109.980 126.046 139.617  0.00  0.00    +0.000 A 
ATOM      5  C   UNL     1     109.274 126.071 140.323  0.00  0.00    +0.000 A 
ATOM      6  C   UNL     1     109.407 126.627 141.138  0.00  0.00    +0.000 A 
ATOM      7  C   UNL     1     108.703 126.653 141.845  0.00  0.00    +0.000 A 
ATOM      8  C   UNL     1     107.864 126.120 141.732  0.00  0.00    +0.000 A 
ATOM      9  C   UNL     1     107.734 125.562 140.911  0.00  0.00    +0.000 A 
ATOM     10  O   UNL     1     108.439 125.539 140.207  0.00  0.00    +0.000 OA
ATOM     11  O   UNL     1     108.834 127.209 142.663  0.00  0.00    +0.000 OA
ATOM     12  O   UNL     1     110.375 127.715 142.070  0.00  0.00    +0.000 OA
ENDROOT
BRANCH   9  13
ATOM     13  C   UNL     1     106.891 125.030 140.802  0.00  0.00    +0.000 A 
ATOM     14  C   UNL     1     106.179 125.346 140.186  0.00  0.00    +0.000 A 
ATOM     15  C   UNL     1     105.337 124.807 140.081  0.00  0.00    +0.000 A 
ATOM     16  C   UNL     1     105.218 123.959 140.595  0.00  0.00    +0.000 A 
ATOM     17  C   UNL     1     105.939 123.642 141.217  0.00  0.00    +0.000 A 
ATOM     18  C   UNL     1     106.774 124.177 141.320  0.00  0.00    +0.000 A 
ATOM     19  O   UNL     1     104.374 123.414 140.494  0.00  0.00    +0.000 OA
ENDBRANCH   9  13
BRANCH   8  20
ATOM     20  O   UNL     1     107.188 126.150 142.418  0.00  0.00    +0.000 OA
BRANCH  20  25
ATOM     21  C   UNL     1     106.201 128.566 142.097  0.00  0.00    +0.000 C 
ATOM     22  C   UNL     1     105.702 128.684 142.953  0.00  0.00    +0.000 C 
ATOM     23  C   UNL     1     105.701 127.956 143.629  0.00  0.00    +0.000 C 
ATOM     24  C   UNL     1     106.194 127.111 143.456  0.00  0.00    +0.000 C 
ATOM     25  C   UNL     1     106.692 126.993 142.600  0.00  0.00    +0.000 C 
ATOM     26  O   UNL     1     106.698 127.719 141.916  0.00  0.00    +0.000 OA
ATOM     27  O   UNL     1     105.203 128.075 144.485  0.00  0.00    +0.000 OA
ATOM     28  O   UNL     1     105.206 129.532 143.130  0.00  0.00    +0.000 OA
BRANCH  21  30
ATOM     29  O   UNL     1     107.056 129.550 140.957  0.00  0.00    +0.000 OA
ATOM     30  C   UNL     1     106.202 129.297 141.417  0.00  0.00    +0.000 C 
ENDBRANCH  21  30
BRANCH  24  31
ATOM     31  O   UNL     1     106.190 126.382 144.137  0.00  0.00    +0.000 OA
BRANCH  31  36
ATOM     32  C   UNL     1     106.830 125.540 146.543  0.00  0.00    +0.000 C 
ATOM     33  C   UNL     1     106.209 124.765 146.646  0.00  0.00    +0.000 C 
ATOM     34  C   UNL     1     105.584 124.533 145.911  0.00  0.00    +0.000 C 
ATOM     35  C   UNL     1     105.573 125.067 145.075  0.00  0.00    +0.000 C 
ATOM     36  C   UNL     1     106.194 125.842 144.971  0.00  0.00    +0.000 C 
ATOM     37  O   UNL     1     106.826 126.081 145.706  0.00  0.00    +0.000 OA
ATOM     38  O   UNL     1     104.943 124.830 144.339  0.00  0.00    +0.000 OA
ATOM     39  O   UNL     1     104.963 123.759 146.015  0.00  0.00    +0.000 OA
ATOM     40  O   UNL     1     106.217 124.226 147.486  0.00  0.00    +0.000 OA
ATOM     41  C   UNL     1     107.459 125.773 147.282  0.00  0.00    +0.000 C 
ENDBRANCH  31  36
ENDBRANCH  24  31
ENDBRANCH  20  25
ENDBRANCH   8  20
BRANCH   1  42
ATOM     42  O   UNL     1     111.533 126.554 139.016  0.00  0.00    +0.000 OA
BRANCH  42  47
ATOM     43  C   UNL     1     113.660 125.773 137.614  0.00  0.00    +0.000 C 
ATOM     44  C   UNL     1     113.677 126.472 136.884  0.00  0.00    +0.000 C 
ATOM     45  C   UNL     1     112.980 127.196 136.867  0.00  0.00    +0.000 C 
ATOM     46  C   UNL     1     112.265 127.229 137.573  0.00  0.00    +0.000 C 
ATOM     47  C   UNL     1     112.247 126.530 138.304  0.00  0.00    +0.000 C 
ATOM     48  O   UNL     1     112.944 125.799 138.328  0.00  0.00    +0.000 OA
ATOM     49  O   UNL     1     111.565 127.958 137.553  0.00  0.00    +0.000 OA
ATOM     50  O   UNL     1     112.997 127.895 136.137  0.00  0.00    +0.000 OA
ATOM     51  O   UNL     1     114.394 126.444 136.172  0.00  0.00    +0.000 OA
ATOM     52  C   UNL     1     114.361 125.045 137.631  0.00  0.00    +0.000 C 
ENDBRANCH  42  47
ENDBRANCH   1  42
TORSDOF 8
ENDMDL
MODEL 4
REMARK VINA RESULT:      -9.6      4.374      6.247
REMARK  Name = 
REMARK  8 active torsions:
REMARK  status: ('A' for Active; 'I' for Inactive)
REMARK    1  A    between atoms: C_5  and  O_7
REMARK    2  A    between atoms: O_7  and  C_16
REMARK    3  A    between atoms: C_13  and  C_22
REMARK    4  A    between atoms: C_17  and  O_19
REMARK    5  A    between atoms: O_19  and  C_30
REMARK    6  A    between atoms: C_23  and  O_41
REMARK    7  A    between atoms: C_31  and  C_33
REMARK    8  A    between atoms: O_41  and  C_47
REMARK                            x       y       z     vdW  Elec       q    Type
REMARK                         _______ _______ _______ _____ _____    ______ ____
ROOT
ATOM      1  C   UNL     1     107.621 127.030 142.655  0.00  0.00    +0.000 A 
ATOM      2  C   UNL     1     107.571 128.024 142.653  0.00  0.00    +0.000 A 
ATOM      3  C   UNL     1     108.054 128.545 141.946  0.00  0.00    +0.000 A 
ATOM      4  C   UNL     1     108.151 126.553 141.953  0.00  0.00    +0.000 A 
ATOM      5  C   UNL     1     108.631 127.075 141.250  0.00  0.00    +0.000 A 
ATOM      6  C   UNL     1     108.581 128.070 141.249  0.00  0.00    +0.000 A 
ATOM      7  C   UNL     1     109.060 128.593 140.547  0.00  0.00    +0.000 A 
ATOM      8  C   UNL     1     109.590 128.116 139.845  0.00  0.00    +0.000 A 
ATOM      9  C   UNL     1     109.638 127.116 139.850  0.00  0.00    +0.000 A 
ATOM     10  O   UNL     1     109.158 126.597 140.553  0.00  0.00    +0.000 OA
ATOM     11  O   UNL     1     109.012 129.589 140.544  0.00  0.00    +0.000 OA
ATOM     12  O   UNL     1     108.004 129.543 141.945  0.00  0.00    +0.000 OA
ENDROOT
BRANCH   9  13
ATOM     13  C   UNL     1     110.171 126.643 139.144  0.00  0.00    +0.000 A 
ATOM     14  C   UNL     1     111.086 126.315 139.349  0.00  0.00    +0.000 A 
ATOM     15  C   UNL     1     111.615 125.841 138.637  0.00  0.00    +0.000 A 
ATOM     16  C   UNL     1     111.220 125.701 137.731  0.00  0.00    +0.000 A 
ATOM     17  C   UNL     1     110.296 126.033 137.527  0.00  0.00    +0.000 A 
ATOM     18  C   UNL     1     109.772 126.503 138.234  0.00  0.00    +0.000 A 
ATOM     19  O   UNL     1     111.747 125.226 137.012  0.00  0.00    +0.000 OA
ENDBRANCH   9  13
BRANCH   8  20
ATOM     20  O   UNL     1     110.050 128.627 139.171  0.00  0.00    +0.000 OA
BRANCH  20  25
ATOM     21  C   UNL     1     112.130 129.512 140.515  0.00  0.00    +0.000 C 
ATOM     22  C   UNL     1     112.498 130.185 139.877  0.00  0.00    +0.000 C 
ATOM     23  C   UNL     1     112.048 130.336 139.004  0.00  0.00    +0.000 C 
ATOM     24  C   UNL     1     111.234 129.821 138.764  0.00  0.00    +0.000 C 
ATOM     25  C   UNL     1     110.866 129.148 139.403  0.00  0.00    +0.000 C 
ATOM     26  O   UNL     1     111.312 128.991 140.281  0.00  0.00    +0.000 OA
ATOM     27  O   UNL     1     112.416 131.009 138.366  0.00  0.00    +0.000 OA
ATOM     28  O   UNL     1     113.316 130.705 140.114  0.00  0.00    +0.000 OA
BRANCH  21  30
ATOM     29  O   UNL     1     112.056 129.015 142.173  0.00  0.00    +0.000 OA
ATOM     30  C   UNL     1     112.581 129.360 141.392  0.00  0.00    +0.000 C 
ENDBRANCH  21  30
BRANCH  24  31
ATOM     31  O   UNL     1     110.784 129.975 137.888  0.00  0.00    +0.000 OA
BRANCH  31  36
ATOM     32  C   UNL     1     108.837 131.173 136.591  0.00  0.00    +0.000 C 
ATOM     33  C   UNL     1     108.926 130.759 135.687  0.00  0.00    +0.000 C 
ATOM     34  C   UNL     1     109.635 130.085 135.520  0.00  0.00    +0.000 C 
ATOM     35  C   UNL     1     110.256 129.820 136.248  0.00  0.00    +0.000 C 
ATOM     36  C   UNL     1     110.167 130.234 137.152  0.00  0.00    +0.000 C 
ATOM     37  O   UNL     1     109.457 130.913 137.327  0.00  0.00    +0.000 OA
ATOM     38  O   UNL     1     110.967 129.142 136.077  0.00  0.00    +0.000 OA
ATOM     39  O   UNL     1     109.723 129.671 134.617  0.00  0.00    +0.000 OA
ATOM     40  O   UNL     1     108.303 131.023 134.952  0.00  0.00    +0.000 OA
ATOM     41  C   UNL     1     108.124 131.851 136.758  0.00  0.00    +0.000 C 
ENDBRANCH  31  36
ENDBRANCH  24  31
ENDBRANCH  20  25
ENDBRANCH   8  20
BRANCH   1  42
ATOM     42  O   UNL     1     107.135 126.503 143.366  0.00  0.00    +0.000 OA
BRANCH  42  47
ATOM     43  C   UNL     1     106.436 125.561 145.758  0.00  0.00    +0.000 C 
ATOM     44  C   UNL     1     105.685 124.932 145.507  0.00  0.00    +0.000 C 
ATOM     45  C   UNL     1     105.420 124.830 144.543  0.00  0.00    +0.000 C 
ATOM     46  C   UNL     1     105.898 125.349 143.827  0.00  0.00    +0.000 C 
ATOM     47  C   UNL     1     106.649 125.978 144.078  0.00  0.00    +0.000 C 
ATOM     48  O   UNL     1     106.922 126.087 145.045  0.00  0.00    +0.000 OA
ATOM     49  O   UNL     1     105.629 125.244 142.858  0.00  0.00    +0.000 OA
ATOM     50  O   UNL     1     104.670 124.202 144.291  0.00  0.00    +0.000 OA
ATOM     51  O   UNL     1     105.202 124.408 146.224  0.00  0.00    +0.000 OA
ATOM     52  C   UNL     1     106.703 125.664 146.728  0.00  0.00    +0.000 C 
ENDBRANCH  42  47
ENDBRANCH   1  42
TORSDOF 8
ENDMDL
MODEL 5
REMARK VINA RESULT:      -9.6      2.054      3.095
REMARK  Name = 
REMARK  8 active torsions:
REMARK  status: ('A' for Active; 'I' for Inactive)
REMARK    1  A    between atoms: C_5  and  O_7
REMARK    2  A    between atoms: O_7  and  C_16
REMARK    3  A    between atoms: C_13  and  C_22
REMARK    4  A    between atoms: C_17  and  O_19
REMARK    5  A    between atoms: O_19  and  C_30
REMARK    6  A    between atoms: C_23  and  O_41
REMARK    7  A    between atoms: C_31  and  C_33
REMARK    8  A    between atoms: O_41  and  C_47
REMARK                            x       y       z     vdW  Elec       q    Type
REMARK                         _______ _______ _______ _____ _____    ______ ____
ROOT
ATOM      1  C   UNL     1     111.684 130.847 143.333  0.00  0.00    +0.000 A 
ATOM      2  C   UNL     1     112.269 131.161 142.591  0.00  0.00    +0.000 A 
ATOM      3  C   UNL     1     112.290 130.653 141.726  0.00  0.00    +0.000 A 
ATOM      4  C   UNL     1     111.120 130.029 143.216  0.00  0.00    +0.000 A 
ATOM      5  C   UNL     1     111.143 129.525 142.354  0.00  0.00    +0.000 A 
ATOM      6  C   UNL     1     111.729 129.840 141.612  0.00  0.00    +0.000 A 
ATOM      7  C   UNL     1     111.753 129.339 140.749  0.00  0.00    +0.000 A 
ATOM      8  C   UNL     1     111.189 128.520 140.632  0.00  0.00    +0.000 A 
ATOM      9  C   UNL     1     110.603 128.208 141.381  0.00  0.00    +0.000 A 
ATOM     10  O   UNL     1     110.581 128.711 142.241  0.00  0.00    +0.000 OA
ATOM     11  O   UNL     1     112.338 129.651 140.004  0.00  0.00    +0.000 OA
ATOM     12  O   UNL     1     112.877 130.969 140.981  0.00  0.00    +0.000 OA
ENDROOT
BRANCH   9  13
ATOM     13  C   UNL     1     110.039 127.387 141.259  0.00  0.00    +0.000 A 
ATOM     14  C   UNL     1     110.472 126.499 141.149  0.00  0.00    +0.000 A 
ATOM     15  C   UNL     1     109.901 125.680 141.027  0.00  0.00    +0.000 A 
ATOM     16  C   UNL     1     108.906 125.761 141.017  0.00  0.00    +0.000 A 
ATOM     17  C   UNL     1     108.472 126.659 141.129  0.00  0.00    +0.000 A 
ATOM     18  C   UNL     1     109.039 127.470 141.249  0.00  0.00    +0.000 A 
ATOM     19  O   UNL     1     108.328 124.942 140.895  0.00  0.00    +0.000 OA
ENDBRANCH   9  13
BRANCH   8  20
ATOM     20  O   UNL     1     111.218 128.041 139.797  0.00  0.00    +0.000 OA
BRANCH  20  25
ATOM     21  C   UNL     1     109.728 129.558 138.250  0.00  0.00    +0.000 C 
ATOM     22  C   UNL     1     109.984 129.220 137.346  0.00  0.00    +0.000 C 
ATOM     23  C   UNL     1     110.651 128.489 137.263  0.00  0.00    +0.000 C 
ATOM     24  C   UNL     1     111.065 128.093 138.075  0.00  0.00    +0.000 C 
ATOM     25  C   UNL     1     110.809 128.432 138.978  0.00  0.00    +0.000 C 
ATOM     26  O   UNL     1     110.140 129.166 139.070  0.00  0.00    +0.000 OA
ATOM     27  O   UNL     1     110.907 128.150 136.360  0.00  0.00    +0.000 OA
ATOM     28  O   UNL     1     109.571 129.615 136.529  0.00  0.00    +0.000 OA
BRANCH  21  30
ATOM     29  O   UNL     1     108.505 130.374 139.166  0.00  0.00    +0.000 OA
ATOM     30  C   UNL     1     109.058 130.293 138.333  0.00  0.00    +0.000 C 
ENDBRANCH  21  30
BRANCH  24  31
ATOM     31  O   UNL     1     111.734 127.359 137.988  0.00  0.00    +0.000 OA
BRANCH  31  36
ATOM     32  C   UNL     1     112.170 124.843 137.367  0.00  0.00    +0.000 C 
ATOM     33  C   UNL     1     113.166 124.799 137.433  0.00  0.00    +0.000 C 
ATOM     34  C   UNL     1     113.680 125.610 137.684  0.00  0.00    +0.000 C 
ATOM     35  C   UNL     1     113.210 126.464 137.870  0.00  0.00    +0.000 C 
ATOM     36  C   UNL     1     112.214 126.508 137.804  0.00  0.00    +0.000 C 
ATOM     37  O   UNL     1     111.691 125.697 137.552  0.00  0.00    +0.000 OA
ATOM     38  O   UNL     1     113.730 127.276 138.122  0.00  0.00    +0.000 OA
ATOM     39  O   UNL     1     114.674 125.566 137.750  0.00  0.00    +0.000 OA
ATOM     40  O   UNL     1     113.642 123.942 137.247  0.00  0.00    +0.000 OA
ATOM     41  C   UNL     1     111.654 124.027 137.114  0.00  0.00    +0.000 C 
ENDBRANCH  31  36
ENDBRANCH  24  31
ENDBRANCH  20  25
ENDBRANCH   8  20
BRANCH   1  42
ATOM     42  O   UNL     1     111.661 131.356 144.205  0.00  0.00    +0.000 OA
BRANCH  42  47
ATOM     43  C   UNL     1     112.374 132.257 146.608  0.00  0.00    +0.000 C 
ATOM     44  C   UNL     1     111.603 132.877 146.819  0.00  0.00    +0.000 C 
ATOM     45  C   UNL     1     110.855 132.988 146.157  0.00  0.00    +0.000 C 
ATOM     46  C   UNL     1     110.869 132.485 145.287  0.00  0.00    +0.000 C 
ATOM     47  C   UNL     1     111.639 131.865 145.075  0.00  0.00    +0.000 C 
ATOM     48  O   UNL     1     112.395 131.748 145.735  0.00  0.00    +0.000 OA
ATOM     49  O   UNL     1     110.114 132.599 144.624  0.00  0.00    +0.000 OA
ATOM     50  O   UNL     1     110.085 133.607 146.367  0.00  0.00    +0.000 OA
ATOM     51  O   UNL     1     111.586 133.385 147.693  0.00  0.00    +0.000 OA
ATOM     52  C   UNL     1     113.127 132.146 147.274  0.00  0.00    +0.000 C 
ENDBRANCH  42  47
ENDBRANCH   1  42
TORSDOF 8
ENDMDL
MODEL 6
REMARK VINA RESULT:      -9.5      1.588      3.315
REMARK  Name = 
REMARK  8 active torsions:
REMARK  status: ('A' for Active; 'I' for Inactive)
REMARK    1  A    between atoms: C_5  and  O_7
REMARK    2  A    between atoms: O_7  and  C_16
REMARK    3  A    between atoms: C_13  and  C_22
REMARK    4  A    between atoms: C_17  and  O_19
REMARK    5  A    between atoms: O_19  and  C_30
REMARK    6  A    between atoms: C_23  and  O_41
REMARK    7  A    between atoms: C_31  and  C_33
REMARK    8  A    between atoms: O_41  and  C_47
REMARK                            x       y       z     vdW  Elec       q    Type
REMARK                         _______ _______ _______ _____ _____    ______ ____
ROOT
ATOM      1  C   UNL     1     110.450 130.951 142.537  0.00  0.00    +0.000 A 
ATOM      2  C   UNL     1     109.721 130.284 142.416  0.00  0.00    +0.000 A 
ATOM      3  C   UNL     1     109.675 129.745 141.572  0.00  0.00    +0.000 A 
ATOM      4  C   UNL     1     111.134 131.083 141.819  0.00  0.00    +0.000 A 
ATOM      5  C   UNL     1     111.085 130.545 140.978  0.00  0.00    +0.000 A 
ATOM      6  C   UNL     1     110.355 129.878 140.859  0.00  0.00    +0.000 A 
ATOM      7  C   UNL     1     110.304 129.339 140.020  0.00  0.00    +0.000 A 
ATOM      8  C   UNL     1     110.988 129.471 139.301  0.00  0.00    +0.000 A 
ATOM      9  C   UNL     1     111.719 130.142 139.426  0.00  0.00    +0.000 A 
ATOM     10  O   UNL     1     111.767 130.678 140.265  0.00  0.00    +0.000 OA
ATOM     11  O   UNL     1     109.574 128.670 139.896  0.00  0.00    +0.000 OA
ATOM     12  O   UNL     1     108.942 129.076 141.452  0.00  0.00    +0.000 OA
ENDROOT
BRANCH   9  13
ATOM     13  C   UNL     1     112.402 130.271 138.703  0.00  0.00    +0.000 A 
ATOM     14  C   UNL     1     113.153 129.627 138.608  0.00  0.00    +0.000 A 
ATOM     15  C   UNL     1     113.835 129.763 137.880  0.00  0.00    +0.000 A 
ATOM     16  C   UNL     1     113.755 130.539 137.258  0.00  0.00    +0.000 A 
ATOM     17  C   UNL     1     112.995 131.187 137.357  0.00  0.00    +0.000 A 
ATOM     18  C   UNL     1     112.320 131.053 138.078  0.00  0.00    +0.000 A 
ATOM     19  O   UNL     1     114.436 130.679 136.526  0.00  0.00    +0.000 OA
ENDBRANCH   9  13
BRANCH   8  20
ATOM     20  O   UNL     1     110.933 128.948 138.494  0.00  0.00    +0.000 OA
BRANCH  20  25
ATOM     21  C   UNL     1     109.038 130.196 137.165  0.00  0.00    +0.000 C 
ATOM     22  C   UNL     1     108.797 129.507 136.483  0.00  0.00    +0.000 C 
ATOM     23  C   UNL     1     109.270 128.634 136.475  0.00  0.00    +0.000 C 
ATOM     24  C   UNL     1     109.981 128.443 137.141  0.00  0.00    +0.000 C 
ATOM     25  C   UNL     1     110.222 129.131 137.823  0.00  0.00    +0.000 C 
ATOM     26  O   UNL     1     109.751 130.010 137.838  0.00  0.00    +0.000 OA
ATOM     27  O   UNL     1     109.030 127.946 135.793  0.00  0.00    +0.000 OA
ATOM     28  O   UNL     1     108.083 129.696 135.812  0.00  0.00    +0.000 OA
BRANCH  21  30
ATOM     29  O   UNL     1     108.333 131.509 138.048  0.00  0.00    +0.000 OA
ATOM     30  C   UNL     1     108.563 131.073 137.174  0.00  0.00    +0.000 C 
ENDBRANCH  21  30
BRANCH  24  31
ATOM     31  O   UNL     1     110.454 127.565 137.130  0.00  0.00    +0.000 OA
BRANCH  31  36
ATOM     32  C   UNL     1     112.685 126.239 136.710  0.00  0.00    +0.000 C 
ATOM     33  C   UNL     1     112.471 125.364 137.141  0.00  0.00    +0.000 C 
ATOM     34  C   UNL     1     111.585 125.226 137.567  0.00  0.00    +0.000 C 
ATOM     35  C   UNL     1     110.911 125.955 137.567  0.00  0.00    +0.000 C 
ATOM     36  C   UNL     1     111.124 126.830 137.135  0.00  0.00    +0.000 C 
ATOM     37  O   UNL     1     112.012 126.975 136.705  0.00  0.00    +0.000 OA
ATOM     38  O   UNL     1     110.022 125.813 137.996  0.00  0.00    +0.000 OA
ATOM     39  O   UNL     1     111.373 124.352 137.998  0.00  0.00    +0.000 OA
ATOM     40  O   UNL     1     113.147 124.629 137.144  0.00  0.00    +0.000 OA
ATOM     41  C   UNL     1     113.575 126.376 136.281  0.00  0.00    +0.000 C 
ENDBRANCH  31  36
ENDBRANCH  24  31
ENDBRANCH  20  25
ENDBRANCH   8  20
BRANCH   1  42
ATOM     42  O   UNL     1     110.499 131.494 143.387  0.00  0.00    +0.000 OA
BRANCH  42  47
ATOM     43  C   UNL     1     109.746 132.984 145.464  0.00  0.00    +0.000 C 
ATOM     44  C   UNL     1     110.631 133.125 145.931  0.00  0.00    +0.000 C 
ATOM     45  C   UNL     1     111.469 132.722 145.549  0.00  0.00    +0.000 C 
ATOM     46  C   UNL     1     111.431 132.179 144.704  0.00  0.00    +0.000 C 
ATOM     47  C   UNL     1     110.547 132.038 144.235  0.00  0.00    +0.000 C 
ATOM     48  O   UNL     1     109.699 132.439 144.613  0.00  0.00    +0.000 OA
ATOM     49  O   UNL     1     112.276 131.776 144.322  0.00  0.00    +0.000 OA
ATOM     50  O   UNL     1     112.354 132.863 146.016  0.00  0.00    +0.000 OA
ATOM     51  O   UNL     1     110.674 133.670 146.782  0.00  0.00    +0.000 OA
ATOM     52  C   UNL     1     108.903 133.389 145.848  0.00  0.00    +0.000 C 
ENDBRANCH  42  47
ENDBRANCH   1  42
TORSDOF 8
ENDMDL
MODEL 7
REMARK VINA RESULT:      -9.5      2.646      3.781
REMARK  Name = 
REMARK  8 active torsions:
REMARK  status: ('A' for Active; 'I' for Inactive)
REMARK    1  A    between atoms: C_5  and  O_7
REMARK    2  A    between atoms: O_7  and  C_16
REMARK    3  A    between atoms: C_13  and  C_22
REMARK    4  A    between atoms: C_17  and  O_19
REMARK    5  A    between atoms: O_19  and  C_30
REMARK    6  A    between atoms: C_23  and  O_41
REMARK    7  A    between atoms: C_31  and  C_33
REMARK    8  A    between atoms: O_41  and  C_47
REMARK                            x       y       z     vdW  Elec       q    Type
REMARK                         _______ _______ _______ _____ _____    ______ ____
ROOT
ATOM      1  C   UNL     1     108.783 130.325 141.024  0.00  0.00    +0.000 A 
ATOM      2  C   UNL     1     108.473 130.345 140.077  0.00  0.00    +0.000 A 
ATOM      3  C   UNL     1     109.039 129.931 139.360  0.00  0.00    +0.000 A 
ATOM      4  C   UNL     1     109.654 129.894 141.257  0.00  0.00    +0.000 A 
ATOM      5  C   UNL     1     110.216 129.482 140.540  0.00  0.00    +0.000 A 
ATOM      6  C   UNL     1     109.905 129.503 139.594  0.00  0.00    +0.000 A 
ATOM      7  C   UNL     1     110.464 129.092 138.877  0.00  0.00    +0.000 A 
ATOM      8  C   UNL     1     111.337 128.661 139.111  0.00  0.00    +0.000 A 
ATOM      9  C   UNL     1     111.645 128.642 140.063  0.00  0.00    +0.000 A 
ATOM     10  O   UNL     1     111.083 129.054 140.776  0.00  0.00    +0.000 OA
ATOM     11  O   UNL     1     110.156 129.111 137.928  0.00  0.00    +0.000 OA
ATOM     12  O   UNL     1     108.727 129.951 138.411  0.00  0.00    +0.000 OA
ENDROOT
BRANCH   9  13
ATOM     13  C   UNL     1     112.519 128.209 140.292  0.00  0.00    +0.000 A 
ATOM     14  C   UNL     1     113.318 128.770 140.479  0.00  0.00    +0.000 A 
ATOM     15  C   UNL     1     114.192 128.328 140.709  0.00  0.00    +0.000 A 
ATOM     16  C   UNL     1     114.255 127.333 140.748  0.00  0.00    +0.000 A 
ATOM     17  C   UNL     1     113.447 126.769 140.558  0.00  0.00    +0.000 A 
ATOM     18  C   UNL     1     112.581 127.208 140.331  0.00  0.00    +0.000 A 
ATOM     19  O   UNL     1     115.131 126.884 140.978  0.00  0.00    +0.000 OA
ENDBRANCH   9  13
BRANCH   8  20
ATOM     20  O   UNL     1     111.871 128.266 138.413  0.00  0.00    +0.000 OA
BRANCH  20  25
ATOM     21  C   UNL     1     112.831 130.406 137.223  0.00  0.00    +0.000 C 
ATOM     22  C   UNL     1     113.239 130.003 136.406  0.00  0.00    +0.000 C 
ATOM     23  C   UNL     1     113.189 129.022 136.261  0.00  0.00    +0.000 C 
ATOM     24  C   UNL     1     112.736 128.439 136.925  0.00  0.00    +0.000 C 
ATOM     25  C   UNL     1     112.328 128.842 137.742  0.00  0.00    +0.000 C 
ATOM     26  O   UNL     1     112.374 129.827 137.895  0.00  0.00    +0.000 OA
ATOM     27  O   UNL     1     113.597 128.619 135.444  0.00  0.00    +0.000 OA
ATOM     28  O   UNL     1     113.696 130.585 135.736  0.00  0.00    +0.000 OA
BRANCH  21  30
ATOM     29  O   UNL     1     112.062 131.899 137.647  0.00  0.00    +0.000 OA
ATOM     30  C   UNL     1     112.881 131.391 137.369  0.00  0.00    +0.000 C 
ENDBRANCH  21  30
BRANCH  24  31
ATOM     31  O   UNL     1     112.687 127.455 136.776  0.00  0.00    +0.000 OA
BRANCH  31  36
ATOM     32  C   UNL     1     113.824 125.114 137.149  0.00  0.00    +0.000 C 
ATOM     33  C   UNL     1     113.119 124.501 136.796  0.00  0.00    +0.000 C 
ATOM     34  C   UNL     1     112.272 124.876 136.437  0.00  0.00    +0.000 C 
ATOM     35  C   UNL     1     112.123 125.857 136.429  0.00  0.00    +0.000 C 
ATOM     36  C   UNL     1     112.828 126.470 136.781  0.00  0.00    +0.000 C 
ATOM     37  O   UNL     1     113.681 126.101 137.143  0.00  0.00    +0.000 OA
ATOM     38  O   UNL     1     111.272 126.230 136.068  0.00  0.00    +0.000 OA
ATOM     39  O   UNL     1     111.569 124.263 136.085  0.00  0.00    +0.000 OA
ATOM     40  O   UNL     1     113.265 123.514 136.803  0.00  0.00    +0.000 OA
ATOM     41  C   UNL     1     114.674 124.736 137.508  0.00  0.00    +0.000 C 
ENDBRANCH  31  36
ENDBRANCH  24  31
ENDBRANCH  20  25
ENDBRANCH   8  20
BRANCH   1  42
ATOM     42  O   UNL     1     108.215 130.741 141.747  0.00  0.00    +0.000 OA
BRANCH  42  47
ATOM     43  C   UNL     1     107.479 131.727 144.110  0.00  0.00    +0.000 C 
ATOM     44  C   UNL     1     106.521 131.989 143.921  0.00  0.00    +0.000 C 
ATOM     45  C   UNL     1     106.131 131.834 143.008  0.00  0.00    +0.000 C 
ATOM     46  C   UNL     1     106.689 131.420 142.281  0.00  0.00    +0.000 C 
ATOM     47  C   UNL     1     107.647 131.158 142.470  0.00  0.00    +0.000 C 
ATOM     48  O   UNL     1     108.047 131.310 143.386  0.00  0.00    +0.000 OA
ATOM     49  O   UNL     1     106.293 131.265 141.364  0.00  0.00    +0.000 OA
ATOM     50  O   UNL     1     105.174 132.096 142.818  0.00  0.00    +0.000 OA
ATOM     51  O   UNL     1     105.956 132.406 144.649  0.00  0.00    +0.000 OA
ATOM     52  C   UNL     1     107.871 131.883 145.029  0.00  0.00    +0.000 C 
ENDBRANCH  42  47
ENDBRANCH   1  42
TORSDOF 8
ENDMDL
MODEL 8
REMARK VINA RESULT:      -9.3      5.261      7.198
REMARK  Name = 
REMARK  8 active torsions:
REMARK  status: ('A' for Active; 'I' for Inactive)
REMARK    1  A    between atoms: C_5  and  O_7
REMARK    2  A    between atoms: O_7  and  C_16
REMARK    3  A    between atoms: C_13  and  C_22
REMARK    4  A    between atoms: C_17  and  O_19
REMARK    5  A    between atoms: O_19  and  C_30
REMARK    6  A    between atoms: C_23  and  O_41
REMARK    7  A    between atoms: C_31  and  C_33
REMARK    8  A    between atoms: O_41  and  C_47
REMARK                            x       y       z     vdW  Elec       q    Type
REMARK                         _______ _______ _______ _____ _____    ______ ____
ROOT
ATOM      1  C   UNL     1     106.181 126.809 143.571  0.00  0.00    +0.000 A 
ATOM      2  C   UNL     1     105.778 127.671 143.279  0.00  0.00    +0.000 A 
ATOM      3  C   UNL     1     106.240 128.225 142.582  0.00  0.00    +0.000 A 
ATOM      4  C   UNL     1     107.043 126.496 143.171  0.00  0.00    +0.000 A 
ATOM      5  C   UNL     1     107.500 127.051 142.477  0.00  0.00    +0.000 A 
ATOM      6  C   UNL     1     107.097 127.913 142.185  0.00  0.00    +0.000 A 
ATOM      7  C   UNL     1     107.553 128.468 141.492  0.00  0.00    +0.000 A 
ATOM      8  C   UNL     1     108.415 128.156 141.091  0.00  0.00    +0.000 A 
ATOM      9  C   UNL     1     108.817 127.288 141.387  0.00  0.00    +0.000 A 
ATOM     10  O   UNL     1     108.359 126.737 142.080  0.00  0.00    +0.000 OA
ATOM     11  O   UNL     1     107.151 129.333 141.198  0.00  0.00    +0.000 OA
ATOM     12  O   UNL     1     105.835 129.091 142.289  0.00  0.00    +0.000 OA
ENDROOT
BRANCH   9  13
ATOM     13  C   UNL     1     109.681 126.979 140.983  0.00  0.00    +0.000 A 
ATOM     14  C   UNL     1     109.688 126.568 140.079  0.00  0.00    +0.000 A 
ATOM     15  C   UNL     1     110.558 126.261 139.679  0.00  0.00    +0.000 A 
ATOM     16  C   UNL     1     111.409 126.368 140.190  0.00  0.00    +0.000 A 
ATOM     17  C   UNL     1     111.399 126.783 141.104  0.00  0.00    +0.000 A 
ATOM     18  C   UNL     1     110.536 127.088 141.499  0.00  0.00    +0.000 A 
ATOM     19  O   UNL     1     112.286 126.061 139.794  0.00  0.00    +0.000 OA
ENDBRANCH   9  13
BRANCH   8  20
ATOM     20  O   UNL     1     108.849 128.696 140.423  0.00  0.00    +0.000 OA
BRANCH  20  25
ATOM     21  C   UNL     1     109.996 130.530 141.919  0.00  0.00    +0.000 C 
ATOM     22  C   UNL     1     110.364 131.142 141.222  0.00  0.00    +0.000 C 
ATOM     23  C   UNL     1     110.225 130.937 140.260  0.00  0.00    +0.000 C 
ATOM     24  C   UNL     1     109.722 130.125 139.989  0.00  0.00    +0.000 C 
ATOM     25  C   UNL     1     109.354 129.512 140.685  0.00  0.00    +0.000 C 
ATOM     26  O   UNL     1     109.490 129.711 141.654  0.00  0.00    +0.000 OA
ATOM     27  O   UNL     1     110.592 131.550 139.563  0.00  0.00    +0.000 OA
ATOM     28  O   UNL     1     110.870 131.959 141.491  0.00  0.00    +0.000 OA
BRANCH  21  30
ATOM     29  O   UNL     1     109.787 130.109 143.586  0.00  0.00    +0.000 OA
ATOM     30  C   UNL     1     110.136 130.736 142.885  0.00  0.00    +0.000 C 
ENDBRANCH  21  30
BRANCH  24  31
ATOM     31  O   UNL     1     109.584 129.921 139.022  0.00  0.00    +0.000 OA
BRANCH  31  36
ATOM     32  C   UNL     1     110.532 128.763 136.861  0.00  0.00    +0.000 C 
ATOM     33  C   UNL     1     109.862 129.051 136.180  0.00  0.00    +0.000 C 
ATOM     34  C   UNL     1     109.100 129.629 136.450  0.00  0.00    +0.000 C 
ATOM     35  C   UNL     1     109.003 129.921 137.393  0.00  0.00    +0.000 C 
ATOM     36  C   UNL     1     109.673 129.633 138.075  0.00  0.00    +0.000 C 
ATOM     37  O   UNL     1     110.441 129.053 137.811  0.00  0.00    +0.000 OA
ATOM     38  O   UNL     1     108.237 130.501 137.660  0.00  0.00    +0.000 OA
ATOM     39  O   UNL     1     108.431 129.916 135.769  0.00  0.00    +0.000 OA
ATOM     40  O   UNL     1     109.956 128.759 135.231  0.00  0.00    +0.000 OA
ATOM     41  C   UNL     1     111.297 128.183 136.590  0.00  0.00    +0.000 C 
ENDBRANCH  31  36
ENDBRANCH  24  31
ENDBRANCH  20  25
ENDBRANCH   8  20
BRANCH   1  42
ATOM     42  O   UNL     1     105.717 126.250 144.272  0.00  0.00    +0.000 OA
BRANCH  42  47
ATOM     43  C   UNL     1     104.470 124.202 145.434  0.00  0.00    +0.000 C 
ATOM     44  C   UNL     1     104.326 124.567 146.366  0.00  0.00    +0.000 C 
ATOM     45  C   UNL     1     104.646 125.491 146.596  0.00  0.00    +0.000 C 
ATOM     46  C   UNL     1     105.109 126.055 145.905  0.00  0.00    +0.000 C 
ATOM     47  C   UNL     1     105.254 125.691 144.973  0.00  0.00    +0.000 C 
ATOM     48  O   UNL     1     104.935 124.762 144.732  0.00  0.00    +0.000 OA
ATOM     49  O   UNL     1     105.430 126.984 146.141  0.00  0.00    +0.000 OA
ATOM     50  O   UNL     1     104.502 125.856 147.528  0.00  0.00    +0.000 OA
ATOM     51  O   UNL     1     103.860 124.003 147.064  0.00  0.00    +0.000 OA
ATOM     52  C   UNL     1     104.148 123.272 145.201  0.00  0.00    +0.000 C 
ENDBRANCH  42  47
ENDBRANCH   1  42
TORSDOF 8
ENDMDL
MODEL 9
REMARK VINA RESULT:      -9.3      1.979      3.828
REMARK  Name = 
REMARK  8 active torsions:
REMARK  status: ('A' for Active; 'I' for Inactive)
REMARK    1  A    between atoms: C_5  and  O_7
REMARK    2  A    between atoms: O_7  and  C_16
REMARK    3  A    between atoms: C_13  and  C_22
REMARK    4  A    between atoms: C_17  and  O_19
REMARK    5  A    between atoms: O_19  and  C_30
REMARK    6  A    between atoms: C_23  and  O_41
REMARK    7  A    between atoms: C_31  and  C_33
REMARK    8  A    between atoms: O_41  and  C_47
REMARK                            x       y       z     vdW  Elec       q    Type
REMARK                         _______ _______ _______ _____ _____    ______ ____
ROOT
ATOM      1  C   UNL     1     111.042 130.616 141.717  0.00  0.00    +0.000 A 
ATOM      2  C   UNL     1     110.078 130.582 141.466  0.00  0.00    +0.000 A 
ATOM      3  C   UNL     1     109.818 130.444 140.507  0.00  0.00    +0.000 A 
ATOM      4  C   UNL     1     111.746 130.513 141.015  0.00  0.00    +0.000 A 
ATOM      5  C   UNL     1     111.484 130.375 140.061  0.00  0.00    +0.000 A 
ATOM      6  C   UNL     1     110.521 130.342 139.811  0.00  0.00    +0.000 A 
ATOM      7  C   UNL     1     110.257 130.205 138.858  0.00  0.00    +0.000 A 
ATOM      8  C   UNL     1     110.962 130.101 138.156  0.00  0.00    +0.000 A 
ATOM      9  C   UNL     1     111.929 130.136 138.411  0.00  0.00    +0.000 A 
ATOM     10  O   UNL     1     112.189 130.273 139.364  0.00  0.00    +0.000 OA
ATOM     11  O   UNL     1     109.293 130.170 138.604  0.00  0.00    +0.000 OA
ATOM     12  O   UNL     1     108.852 130.410 140.257  0.00  0.00    +0.000 OA
ENDROOT
BRANCH   9  13
ATOM     13  C   UNL     1     112.633 130.032 137.704  0.00  0.00    +0.000 A 
ATOM     14  C   UNL     1     112.823 129.135 137.321  0.00  0.00    +0.000 A 
ATOM     15  C   UNL     1     113.530 129.038 136.612  0.00  0.00    +0.000 A 
ATOM     16  C   UNL     1     114.035 129.839 136.296  0.00  0.00    +0.000 A 
ATOM     17  C   UNL     1     113.841 130.743 136.685  0.00  0.00    +0.000 A 
ATOM     18  C   UNL     1     113.140 130.838 137.388  0.00  0.00    +0.000 A 
ATOM     19  O   UNL     1     114.746 129.746 135.584  0.00  0.00    +0.000 OA
ENDBRANCH   9  13
BRANCH   8  20
ATOM     20  O   UNL     1     110.701 129.969 137.238  0.00  0.00    +0.000 OA
BRANCH  20  25
ATOM     21  C   UNL     1     110.067 132.405 136.477  0.00  0.00    +0.000 C 
ATOM     22  C   UNL     1     109.494 132.214 135.682  0.00  0.00    +0.000 C 
ATOM     23  C   UNL     1     109.326 131.274 135.409  0.00  0.00    +0.000 C 
ATOM     24  C   UNL     1     109.724 130.524 135.923  0.00  0.00    +0.000 C 
ATOM     25  C   UNL     1     110.297 130.715 136.717  0.00  0.00    +0.000 C 
ATOM     26  O   UNL     1     110.471 131.656 136.998  0.00  0.00    +0.000 OA
ATOM     27  O   UNL     1     108.753 131.083 134.614  0.00  0.00    +0.000 OA
ATOM     28  O   UNL     1     109.092 132.966 135.164  0.00  0.00    +0.000 OA
BRANCH  21  30
ATOM     29  O   UNL     1     110.605 133.547 137.663  0.00  0.00    +0.000 OA
ATOM     30  C   UNL     1     110.236 133.349 136.752  0.00  0.00    +0.000 C 
ENDBRANCH  21  30
BRANCH  24  31
ATOM     31  O   UNL     1     109.553 129.581 135.645  0.00  0.00    +0.000 OA
BRANCH  31  36
ATOM     32  C   UNL     1     110.409 127.177 135.016  0.00  0.00    +0.000 C 
ATOM     33  C   UNL     1     109.615 126.622 135.254  0.00  0.00    +0.000 C 
ATOM     34  C   UNL     1     108.802 127.057 135.623  0.00  0.00    +0.000 C 
ATOM     35  C   UNL     1     108.775 128.040 135.755  0.00  0.00    +0.000 C 
ATOM     36  C   UNL     1     109.570 128.595 135.516  0.00  0.00    +0.000 C 
ATOM     37  O   UNL     1     110.391 128.166 135.145  0.00  0.00    +0.000 OA
ATOM     38  O   UNL     1     107.957 128.473 136.126  0.00  0.00    +0.000 OA
ATOM     39  O   UNL     1     108.008 126.502 135.861  0.00  0.00    +0.000 OA
ATOM     40  O   UNL     1     109.637 125.633 135.123  0.00  0.00    +0.000 OA
ATOM     41  C   UNL     1     111.226 126.740 134.645  0.00  0.00    +0.000 C 
ENDBRANCH  31  36
ENDBRANCH  24  31
ENDBRANCH  20  25
ENDBRANCH   8  20
BRANCH   1  42
ATOM     42  O   UNL     1     111.305 130.755 142.681  0.00  0.00    +0.000 OA
BRANCH  42  47
ATOM     43  C   UNL     1     111.909 130.231 145.223  0.00  0.00    +0.000 C 
ATOM     44  C   UNL     1     112.094 131.161 145.574  0.00  0.00    +0.000 C 
ATOM     45  C   UNL     1     112.015 131.952 144.959  0.00  0.00    +0.000 C 
ATOM     46  C   UNL     1     111.753 131.824 143.997  0.00  0.00    +0.000 C 
ATOM     47  C   UNL     1     111.568 130.894 143.645  0.00  0.00    +0.000 C 
ATOM     48  O   UNL     1     111.645 130.093 144.257  0.00  0.00    +0.000 OA
ATOM     49  O   UNL     1     111.675 132.622 143.381  0.00  0.00    +0.000 OA
ATOM     50  O   UNL     1     112.199 132.882 145.309  0.00  0.00    +0.000 OA
ATOM     51  O   UNL     1     112.357 131.295 146.540  0.00  0.00    +0.000 OA
ATOM     52  C   UNL     1     111.988 129.435 145.841  0.00  0.00    +0.000 C 
ENDBRANCH  42  47
ENDBRANCH   1  42
TORSDOF 8
ENDMDL
MODEL 10
REMARK VINA RESULT:      -9.2      2.148      3.632
REMARK  Name = 
REMARK  8 active torsions:
REMARK  status: ('A' for Active; 'I' for Inactive)
REMARK    1  A    between atoms: C_5  and  O_7
REMARK    2  A    between atoms: O_7  and  C_16
REMARK    3  A    between atoms: C_13  and  C_22
REMARK    4  A    between atoms: C_17  and  O_19
REMARK    5  A    between atoms: O_19  and  C_30
REMARK    6  A    between atoms: C_23  and  O_41
REMARK    7  A    between atoms: C_31  and  C_33
REMARK    8  A    between atoms: O_41  and  C_47
REMARK                            x       y       z     vdW  Elec       q    Type
REMARK                         _______ _______ _______ _____ _____    ______ ____
ROOT
ATOM      1  C   UNL     1     111.817 130.947 143.341  0.00  0.00    +0.000 A 
ATOM      2  C   UNL     1     112.425 131.253 142.613  0.00  0.00    +0.000 A 
ATOM      3  C   UNL     1     112.428 130.771 141.733  0.00  0.00    +0.000 A 
ATOM      4  C   UNL     1     111.213 130.164 143.195  0.00  0.00    +0.000 A 
ATOM      5  C   UNL     1     111.218 129.687 142.317  0.00  0.00    +0.000 A 
ATOM      6  C   UNL     1     111.826 129.993 141.590  0.00  0.00    +0.000 A 
ATOM      7  C   UNL     1     111.833 129.517 140.713  0.00  0.00    +0.000 A 
ATOM      8  C   UNL     1     111.228 128.733 140.566  0.00  0.00    +0.000 A 
ATOM      9  C   UNL     1     110.619 128.429 141.300  0.00  0.00    +0.000 A 
ATOM     10  O   UNL     1     110.615 128.907 142.175  0.00  0.00    +0.000 OA
ATOM     11  O   UNL     1     112.441 129.821 139.982  0.00  0.00    +0.000 OA
ATOM     12  O   UNL     1     113.038 131.078 141.004  0.00  0.00    +0.000 OA
ENDROOT
BRANCH   9  13
ATOM     13  C   UNL     1     110.015 127.643 141.148  0.00  0.00    +0.000 A 
ATOM     14  C   UNL     1     109.123 127.776 140.731  0.00  0.00    +0.000 A 
ATOM     15  C   UNL     1     108.522 126.983 140.582  0.00  0.00    +0.000 A 
ATOM     16  C   UNL     1     108.822 126.070 140.853  0.00  0.00    +0.000 A 
ATOM     17  C   UNL     1     109.723 125.940 141.274  0.00  0.00    +0.000 A 
ATOM     18  C   UNL     1     110.318 126.726 141.421  0.00  0.00    +0.000 A 
ATOM     19  O   UNL     1     108.222 125.270 140.705  0.00  0.00    +0.000 OA
ENDBRANCH   9  13
BRANCH   8  20
ATOM     20  O   UNL     1     111.240 128.279 139.717  0.00  0.00    +0.000 OA
BRANCH  20  25
ATOM     21  C   UNL     1     113.533 127.000 139.860  0.00  0.00    +0.000 C 
ATOM     22  C   UNL     1     113.570 126.571 138.960  0.00  0.00    +0.000 C 
ATOM     23  C   UNL     1     112.828 126.714 138.314  0.00  0.00    +0.000 C 
ATOM     24  C   UNL     1     112.051 127.281 138.560  0.00  0.00    +0.000 C 
ATOM     25  C   UNL     1     112.015 127.709 139.461  0.00  0.00    +0.000 C 
ATOM     26  O   UNL     1     112.755 127.571 140.115  0.00  0.00    +0.000 OA
ATOM     27  O   UNL     1     112.865 126.285 137.413  0.00  0.00    +0.000 OA
ATOM     28  O   UNL     1     114.349 126.001 138.708  0.00  0.00    +0.000 OA
BRANCH  21  30
ATOM     29  O   UNL     1     114.117 126.982 141.491  0.00  0.00    +0.000 OA
ATOM     30  C   UNL     1     114.277 126.856 140.509  0.00  0.00    +0.000 C 
ENDBRANCH  21  30
BRANCH  24  31
ATOM     31  O   UNL     1     111.309 127.422 137.910  0.00  0.00    +0.000 OA
BRANCH  31  36
ATOM     32  C   UNL     1     110.169 129.048 136.188  0.00  0.00    +0.000 C 
ATOM     33  C   UNL     1     109.338 128.541 135.967  0.00  0.00    +0.000 C 
ATOM     34  C   UNL     1     109.167 127.661 136.395  0.00  0.00    +0.000 C 
ATOM     35  C   UNL     1     109.819 127.284 137.042  0.00  0.00    +0.000 C 
ATOM     36  C   UNL     1     110.650 127.792 137.263  0.00  0.00    +0.000 C 
ATOM     37  O   UNL     1     110.828 128.676 136.836  0.00  0.00    +0.000 OA
ATOM     38  O   UNL     1     109.644 126.401 137.470  0.00  0.00    +0.000 OA
ATOM     39  O   UNL     1     108.337 127.155 136.174  0.00  0.00    +0.000 OA
ATOM     40  O   UNL     1     108.680 128.916 135.317  0.00  0.00    +0.000 OA
ATOM     41  C   UNL     1     110.340 129.931 135.757  0.00  0.00    +0.000 C 
ENDBRANCH  31  36
ENDBRANCH  24  31
ENDBRANCH  20  25
ENDBRANCH   8  20
BRANCH   1  42
ATOM     42  O   UNL     1     111.813 131.431 144.227  0.00  0.00    +0.000 OA
BRANCH  42  47
ATOM     43  C   UNL     1     112.528 132.193 146.678  0.00  0.00    +0.000 C 
ATOM     44  C   UNL     1     111.811 132.875 146.886  0.00  0.00    +0.000 C 
ATOM     45  C   UNL     1     111.097 133.073 146.207  0.00  0.00    +0.000 C 
ATOM     46  C   UNL     1     111.093 132.596 145.321  0.00  0.00    +0.000 C 
ATOM     47  C   UNL     1     111.809 131.914 145.113  0.00  0.00    +0.000 C 
ATOM     48  O   UNL     1     112.531 131.709 145.791  0.00  0.00    +0.000 OA
ATOM     49  O   UNL     1     110.373 132.798 144.641  0.00  0.00    +0.000 OA
ATOM     50  O   UNL     1     110.380 133.754 146.414  0.00  0.00    +0.000 OA
ATOM     51  O   UNL     1     111.812 133.356 147.775  0.00  0.00    +0.000 OA
ATOM     52  C   UNL     1     113.246 131.994 147.361  0.00  0.00    +0.000 C 
ENDBRANCH  42  47
ENDBRANCH   1  42
TORSDOF 8
ENDMDL
