MODEL 1
REMARK VINA RESULT:      -8.9      0.000      0.000
REMARK  Name = 74819383
REMARK  4 active torsions:
REMARK  status: ('A' for Active; 'I' for Inactive)
REMARK    1  A    between atoms: O_2  and  C_13
REMARK    2  A    between atoms: O_2  and  C_17
REMARK    3  A    between atoms: O_9  and  C_29
REMARK    4  A    between atoms: C_15  and  C_22
REMARK                            x       y       z     vdW  Elec       q    Type
REMARK                         _______ _______ _______ _____ _____    ______ ____
ROOT
ATOM      1  O   UNL     1     112.061 126.632 137.311  0.00  0.00    +0.000 OA
ATOM      2  O   UNL     1     110.854 124.641 135.602  0.00  0.00    +0.000 OA
ATOM      3  O   UNL     1     111.597 124.260 136.777  0.00  0.00    +0.000 OA
ATOM      4  C   UNL     1     112.350 126.035 137.802  0.00  0.00    +0.000 C 
ATOM      5  C   UNL     1     112.195 125.244 137.624  0.00  0.00    +0.000 C 
ATOM      6  C   UNL     1     110.862 126.875 135.442  0.00  0.00    +0.000 A 
ATOM      7  C   UNL     1     111.619 126.439 136.643  0.00  0.00    +0.000 A 
ATOM      8  C   UNL     1     111.464 125.648 136.465  0.00  0.00    +0.000 A 
ATOM      9  C   UNL     1     111.752 125.052 136.955  0.00  0.00    +0.000 C 
ATOM     10  C   UNL     1     111.323 127.070 136.139  0.00  0.00    +0.000 A 
ATOM     11  C   UNL     1     111.003 125.434 135.771  0.00  0.00    +0.000 A 
ATOM     12  C   UNL     1     110.700 126.052 135.257  0.00  0.00    +0.000 A 
ENDROOT
BRANCH   4  13
ATOM     13  C   UNL     1     112.793 126.228 138.470  0.00  0.00    +0.000 A 
ATOM     14  C   UNL     1     113.616 126.178 138.449  0.00  0.00    +0.000 A 
ATOM     15  C   UNL     1     112.412 126.471 139.162  0.00  0.00    +0.000 A 
ATOM     16  C   UNL     1     114.059 126.371 139.117  0.00  0.00    +0.000 A 
ATOM     17  C   UNL     1     112.856 126.664 139.830  0.00  0.00    +0.000 A 
ATOM     18  C   UNL     1     113.678 126.615 139.808  0.00  0.00    +0.000 A 
BRANCH  18  19
ATOM     19  O   UNL     1     114.122 126.808 140.477  0.00  0.00    +0.000 OA
ATOM     20  C   UNL     1     114.147 127.587 140.745  0.00  0.00    +0.000 C 
ENDBRANCH  18  19
ENDBRANCH   4  13
BRANCH   6  21
ATOM     21  O   UNL     1     110.575 127.474 134.953  0.00  0.00    +0.000 OA
BRANCH  21  29
ATOM     22  O   UNL     1     109.310 127.587 135.608  0.00  0.00    +0.000 OA
ATOM     23  O   UNL     1     109.262 130.009 135.100  0.00  0.00    +0.000 OA
ATOM     24  O   UNL     1     110.543 129.089 134.614  0.00  0.00    +0.000 OA
ATOM     25  O   UNL     1     108.013 129.314 135.925  0.00  0.00    +0.000 OA
ATOM     26  C   UNL     1     109.278 129.201 135.269  0.00  0.00    +0.000 C 
ATOM     27  C   UNL     1     109.918 128.742 135.026  0.00  0.00    +0.000 C 
ATOM     28  C   UNL     1     108.654 128.854 135.682  0.00  0.00    +0.000 C 
ATOM     29  C   UNL     1     109.935 127.934 135.196  0.00  0.00    +0.000 C 
ATOM     30  C   UNL     1     108.670 128.047 135.851  0.00  0.00    +0.000 C 
ENDBRANCH  21  29
ENDBRANCH   6  21
TORSDOF 4
ENDMDL
MODEL 2
REMARK VINA RESULT:      -8.9      6.671      8.579
REMARK  Name = 74819383
REMARK  4 active torsions:
REMARK  status: ('A' for Active; 'I' for Inactive)
REMARK    1  A    between atoms: O_2  and  C_13
REMARK    2  A    between atoms: O_2  and  C_17
REMARK    3  A    between atoms: O_9  and  C_29
REMARK    4  A    between atoms: C_15  and  C_22
REMARK                            x       y       z     vdW  Elec       q    Type
REMARK                         _______ _______ _______ _____ _____    ______ ____
ROOT
ATOM      1  O   UNL     1     104.732 124.436 139.414  0.00  0.00    +0.000 OA
ATOM      2  O   UNL     1     105.446 123.542 142.066  0.00  0.00    +0.000 OA
ATOM      3  O   UNL     1     104.546 122.776 141.240  0.00  0.00    +0.000 OA
ATOM      4  C   UNL     1     104.254 123.771 139.318  0.00  0.00    +0.000 C 
ATOM      5  C   UNL     1     104.192 123.217 139.927  0.00  0.00    +0.000 C 
ATOM      6  C   UNL     1     106.078 125.368 140.935  0.00  0.00    +0.000 A 
ATOM      7  C   UNL     1     105.148 124.548 140.117  0.00  0.00    +0.000 A 
ATOM      8  C   UNL     1     105.086 123.995 140.726  0.00  0.00    +0.000 A 
ATOM      9  C   UNL     1     104.608 123.330 140.630  0.00  0.00    +0.000 C 
ATOM     10  C   UNL     1     105.643 125.246 140.204  0.00  0.00    +0.000 A 
ATOM     11  C   UNL     1     105.514 124.101 141.463  0.00  0.00    +0.000 A 
ATOM     12  C   UNL     1     106.014 124.792 141.568  0.00  0.00    +0.000 A 
ENDROOT
BRANCH   4  13
ATOM     13  C   UNL     1     103.838 123.658 138.615  0.00  0.00    +0.000 A 
ATOM     14  C   UNL     1     104.235 123.411 137.935  0.00  0.00    +0.000 A 
ATOM     15  C   UNL     1     103.024 123.794 138.591  0.00  0.00    +0.000 A 
ATOM     16  C   UNL     1     103.820 123.299 137.232  0.00  0.00    +0.000 A 
ATOM     17  C   UNL     1     102.608 123.681 137.887  0.00  0.00    +0.000 A 
ATOM     18  C   UNL     1     103.005 123.434 137.208  0.00  0.00    +0.000 A 
BRANCH  18  19
ATOM     19  O   UNL     1     102.590 123.322 136.504  0.00  0.00    +0.000 OA
ATOM     20  C   UNL     1     102.950 122.942 135.868  0.00  0.00    +0.000 C 
ENDBRANCH  18  19
ENDBRANCH   4  13
BRANCH   6  21
ATOM     21  O   UNL     1     106.555 126.035 141.027  0.00  0.00    +0.000 OA
BRANCH  21  29
ATOM     22  O   UNL     1     107.709 125.477 140.396  0.00  0.00    +0.000 OA
ATOM     23  O   UNL     1     109.169 126.742 141.943  0.00  0.00    +0.000 OA
ATOM     24  O   UNL     1     107.528 126.878 142.059  0.00  0.00    +0.000 OA
ATOM     25  O   UNL     1     109.836 125.762 140.795  0.00  0.00    +0.000 OA
ATOM     26  C   UNL     1     108.682 126.320 141.427  0.00  0.00    +0.000 C 
ATOM     27  C   UNL     1     107.862 126.388 141.485  0.00  0.00    +0.000 C 
ATOM     28  C   UNL     1     109.016 125.830 140.853  0.00  0.00    +0.000 C 
ATOM     29  C   UNL     1     107.375 125.967 140.970  0.00  0.00    +0.000 C 
ATOM     30  C   UNL     1     108.529 125.409 140.338  0.00  0.00    +0.000 C 
ENDBRANCH  21  29
ENDBRANCH   6  21
TORSDOF 4
ENDMDL
MODEL 3
REMARK VINA RESULT:      -8.9      2.404      4.360
REMARK  Name = 74819383
REMARK  4 active torsions:
REMARK  status: ('A' for Active; 'I' for Inactive)
REMARK    1  A    between atoms: O_2  and  C_13
REMARK    2  A    between atoms: O_2  and  C_17
REMARK    3  A    between atoms: O_9  and  C_29
REMARK    4  A    between atoms: C_15  and  C_22
REMARK                            x       y       z     vdW  Elec       q    Type
REMARK                         _______ _______ _______ _____ _____    ______ ____
ROOT
ATOM      1  O   UNL     1     110.265 128.028 136.206  0.00  0.00    +0.000 OA
ATOM      2  O   UNL     1     107.846 129.577 135.900  0.00  0.00    +0.000 OA
ATOM      3  O   UNL     1     107.840 128.145 135.726  0.00  0.00    +0.000 OA
ATOM      4  C   UNL     1     109.845 127.338 136.037  0.00  0.00    +0.000 C 
ATOM      5  C   UNL     1     109.036 127.377 135.877  0.00  0.00    +0.000 C 
ATOM      6  C   UNL     1     109.929 130.228 136.403  0.00  0.00    +0.000 A 
ATOM      7  C   UNL     1     109.878 128.756 136.215  0.00  0.00    +0.000 A 
ATOM      8  C   UNL     1     109.070 128.795 136.055  0.00  0.00    +0.000 A 
ATOM      9  C   UNL     1     108.649 128.106 135.886  0.00  0.00    +0.000 C 
ATOM     10  C   UNL     1     110.327 129.467 136.392  0.00  0.00    +0.000 A 
ATOM     11  C   UNL     1     108.655 129.548 136.061  0.00  0.00    +0.000 A 
ATOM     12  C   UNL     1     109.088 130.269 136.236  0.00  0.00    +0.000 A 
ENDROOT
BRANCH   4  13
ATOM     13  C   UNL     1     110.232 126.610 136.028  0.00  0.00    +0.000 A 
ATOM     14  C   UNL     1     110.435 126.259 135.310  0.00  0.00    +0.000 A 
ATOM     15  C   UNL     1     110.416 126.232 136.739  0.00  0.00    +0.000 A 
ATOM     16  C   UNL     1     110.822 125.531 135.301  0.00  0.00    +0.000 A 
ATOM     17  C   UNL     1     110.804 125.504 136.730  0.00  0.00    +0.000 A 
ATOM     18  C   UNL     1     111.006 125.153 136.012  0.00  0.00    +0.000 A 
BRANCH  18  19
ATOM     19  O   UNL     1     111.394 124.425 136.002  0.00  0.00    +0.000 OA
ATOM     20  C   UNL     1     112.045 124.297 136.491  0.00  0.00    +0.000 C 
ENDBRANCH  18  19
ENDBRANCH   4  13
BRANCH   6  21
ATOM     21  O   UNL     1     110.353 130.915 136.572  0.00  0.00    +0.000 OA
BRANCH  21  29
ATOM     22  O   UNL     1     110.162 130.804 137.983  0.00  0.00    +0.000 OA
ATOM     23  O   UNL     1     110.331 133.264 138.201  0.00  0.00    +0.000 OA
ATOM     24  O   UNL     1     110.465 132.556 136.717  0.00  0.00    +0.000 OA
ATOM     25  O   UNL     1     110.084 132.332 139.540  0.00  0.00    +0.000 OA
ATOM     26  C   UNL     1     110.274 132.444 138.129  0.00  0.00    +0.000 C 
ATOM     27  C   UNL     1     110.342 132.090 137.386  0.00  0.00    +0.000 C 
ATOM     28  C   UNL     1     110.151 131.978 138.798  0.00  0.00    +0.000 C 
ATOM     29  C   UNL     1     110.285 131.270 137.314  0.00  0.00    +0.000 C 
ATOM     30  C   UNL     1     110.095 131.158 138.725  0.00  0.00    +0.000 C 
ENDBRANCH  21  29
ENDBRANCH   6  21
TORSDOF 4
ENDMDL
MODEL 4
REMARK VINA RESULT:      -8.8      8.154     10.655
REMARK  Name = 74819383
REMARK  4 active torsions:
REMARK  status: ('A' for Active; 'I' for Inactive)
REMARK    1  A    between atoms: O_2  and  C_13
REMARK    2  A    between atoms: O_2  and  C_17
REMARK    3  A    between atoms: O_9  and  C_29
REMARK    4  A    between atoms: C_15  and  C_22
REMARK                            x       y       z     vdW  Elec       q    Type
REMARK                         _______ _______ _______ _____ _____    ______ ____
ROOT
ATOM      1  O   UNL     1     103.108 130.294 142.061  0.00  0.00    +0.000 OA
ATOM      2  O   UNL     1     103.737 128.077 140.318  0.00  0.00    +0.000 OA
ATOM      3  O   UNL     1     102.816 129.108 139.908  0.00  0.00    +0.000 OA
ATOM      4  C   UNL     1     102.601 130.601 141.487  0.00  0.00    +0.000 C 
ATOM      5  C   UNL     1     102.503 130.206 140.769  0.00  0.00    +0.000 C 
ATOM      6  C   UNL     1     104.471 128.553 142.380  0.00  0.00    +0.000 A 
ATOM      7  C   UNL     1     103.517 129.593 141.918  0.00  0.00    +0.000 A 
ATOM      8  C   UNL     1     103.420 129.198 141.200  0.00  0.00    +0.000 A 
ATOM      9  C   UNL     1     102.913 129.504 140.626  0.00  0.00    +0.000 C 
ATOM     10  C   UNL     1     104.042 129.283 142.524  0.00  0.00    +0.000 A 
ATOM     11  C   UNL     1     103.841 128.466 141.039  0.00  0.00    +0.000 A 
ATOM     12  C   UNL     1     104.370 128.142 141.633  0.00  0.00    +0.000 A 
ENDROOT
BRANCH   4  13
ATOM     13  C   UNL     1     102.192 131.302 141.630  0.00  0.00    +0.000 A 
ATOM     14  C   UNL     1     101.418 131.278 141.917  0.00  0.00    +0.000 A 
ATOM     15  C   UNL     1     102.556 132.029 141.486  0.00  0.00    +0.000 A 
ATOM     16  C   UNL     1     101.009 131.979 142.060  0.00  0.00    +0.000 A 
ATOM     17  C   UNL     1     102.146 132.731 141.630  0.00  0.00    +0.000 A 
ATOM     18  C   UNL     1     101.373 132.707 141.916  0.00  0.00    +0.000 A 
BRANCH  18  19
ATOM     19  O   UNL     1     100.963 133.408 142.060  0.00  0.00    +0.000 OA
ATOM     20  C   UNL     1     101.105 134.073 141.592  0.00  0.00    +0.000 C 
ENDBRANCH  18  19
ENDBRANCH   4  13
BRANCH   6  21
ATOM     21  O   UNL     1     104.977 128.249 142.956  0.00  0.00    +0.000 OA
BRANCH  21  29
ATOM     22  O   UNL     1     106.140 128.914 142.462  0.00  0.00    +0.000 OA
ATOM     23  O   UNL     1     107.551 127.042 143.254  0.00  0.00    +0.000 OA
ATOM     24  O   UNL     1     105.918 126.999 143.485  0.00  0.00    +0.000 OA
ATOM     25  O   UNL     1     108.244 128.332 142.495  0.00  0.00    +0.000 OA
ATOM     26  C   UNL     1     107.081 127.666 142.990  0.00  0.00    +0.000 C 
ATOM     27  C   UNL     1     106.264 127.645 143.105  0.00  0.00    +0.000 C 
ATOM     28  C   UNL     1     107.427 128.311 142.610  0.00  0.00    +0.000 C 
ATOM     29  C   UNL     1     105.794 128.269 142.841  0.00  0.00    +0.000 C 
ATOM     30  C   UNL     1     106.957 128.935 142.346  0.00  0.00    +0.000 C 
ENDBRANCH  21  29
ENDBRANCH   6  21
TORSDOF 4
ENDMDL
MODEL 5
REMARK VINA RESULT:      -8.7      9.680     11.291
REMARK  Name = 74819383
REMARK  4 active torsions:
REMARK  status: ('A' for Active; 'I' for Inactive)
REMARK    1  A    between atoms: O_2  and  C_13
REMARK    2  A    between atoms: O_2  and  C_17
REMARK    3  A    between atoms: O_9  and  C_29
REMARK    4  A    between atoms: C_15  and  C_22
REMARK                            x       y       z     vdW  Elec       q    Type
REMARK                         _______ _______ _______ _____ _____    ______ ____
ROOT
ATOM      1  O   UNL     1     105.352 126.431 144.113  0.00  0.00    +0.000 OA
ATOM      2  O   UNL     1     107.205 126.290 146.324  0.00  0.00    +0.000 OA
ATOM      3  O   UNL     1     107.234 127.396 145.399  0.00  0.00    +0.000 OA
ATOM      4  C   UNL     1     105.690 127.145 143.875  0.00  0.00    +0.000 C 
ATOM      5  C   UNL     1     106.317 127.467 144.304  0.00  0.00    +0.000 C 
ATOM      6  C   UNL     1     105.577 124.881 145.707  0.00  0.00    +0.000 A 
ATOM      7  C   UNL     1     105.641 126.038 144.778  0.00  0.00    +0.000 A 
ATOM      8  C   UNL     1     106.268 126.360 145.206  0.00  0.00    +0.000 A 
ATOM      9  C   UNL     1     106.606 127.074 144.970  0.00  0.00    +0.000 C 
ATOM     10  C   UNL     1     105.280 125.295 145.015  0.00  0.00    +0.000 A 
ATOM     11  C   UNL     1     106.578 125.960 145.902  0.00  0.00    +0.000 A 
ATOM     12  C   UNL     1     106.230 125.216 146.153  0.00  0.00    +0.000 A 
ENDROOT
BRANCH   4  13
ATOM     13  C   UNL     1     105.401 127.538 143.210  0.00  0.00    +0.000 A 
ATOM     14  C   UNL     1     105.528 127.224 142.458  0.00  0.00    +0.000 A 
ATOM     15  C   UNL     1     104.986 128.246 143.297  0.00  0.00    +0.000 A 
ATOM     16  C   UNL     1     105.239 127.616 141.793  0.00  0.00    +0.000 A 
ATOM     17  C   UNL     1     104.697 128.639 142.631  0.00  0.00    +0.000 A 
ATOM     18  C   UNL     1     104.823 128.324 141.879  0.00  0.00    +0.000 A 
BRANCH  18  19
ATOM     19  O   UNL     1     104.534 128.717 141.214  0.00  0.00    +0.000 OA
ATOM     20  C   UNL     1     103.733 128.902 141.158  0.00  0.00    +0.000 C 
ENDBRANCH  18  19
ENDBRANCH   4  13
BRANCH   6  21
ATOM     21  O   UNL     1     105.237 124.167 145.941  0.00  0.00    +0.000 OA
BRANCH  21  29
ATOM     22  O   UNL     1     104.257 124.774 146.785  0.00  0.00    +0.000 OA
ATOM     23  O   UNL     1     102.696 122.912 146.313  0.00  0.00    +0.000 OA
ATOM     24  O   UNL     1     104.196 122.925 145.626  0.00  0.00    +0.000 OA
ATOM     25  O   UNL     1     102.236 124.140 147.314  0.00  0.00    +0.000 OA
ATOM     26  C   UNL     1     103.216 123.533 146.470  0.00  0.00    +0.000 C 
ATOM     27  C   UNL     1     103.966 123.539 146.127  0.00  0.00    +0.000 C 
ATOM     28  C   UNL     1     102.986 124.147 146.971  0.00  0.00    +0.000 C 
ATOM     29  C   UNL     1     104.487 124.160 146.284  0.00  0.00    +0.000 C 
ATOM     30  C   UNL     1     103.506 124.767 147.128  0.00  0.00    +0.000 C 
ENDBRANCH  21  29
ENDBRANCH   6  21
TORSDOF 4
ENDMDL
MODEL 6
REMARK VINA RESULT:      -8.7      7.245      8.005
REMARK  Name = 74819383
REMARK  4 active torsions:
REMARK  status: ('A' for Active; 'I' for Inactive)
REMARK    1  A    between atoms: O_2  and  C_13
REMARK    2  A    between atoms: O_2  and  C_17
REMARK    3  A    between atoms: O_9  and  C_29
REMARK    4  A    between atoms: C_15  and  C_22
REMARK                            x       y       z     vdW  Elec       q    Type
REMARK                         _______ _______ _______ _____ _____    ______ ____
ROOT
ATOM      1  O   UNL     1     105.472 125.707 140.570  0.00  0.00    +0.000 OA
ATOM      2  O   UNL     1     105.811 122.845 140.760  0.00  0.00    +0.000 OA
ATOM      3  O   UNL     1     106.224 123.716 141.833  0.00  0.00    +0.000 OA
ATOM      4  C   UNL     1     105.806 125.797 141.320  0.00  0.00    +0.000 C 
ATOM      5  C   UNL     1     106.056 125.133 141.741  0.00  0.00    +0.000 C 
ATOM      6  C   UNL     1     104.949 124.096 139.114  0.00  0.00    +0.000 A 
ATOM      7  C   UNL     1     105.388 124.956 140.242  0.00  0.00    +0.000 A 
ATOM      8  C   UNL     1     105.639 124.292 140.663  0.00  0.00    +0.000 A 
ATOM      9  C   UNL     1     105.973 124.381 141.412  0.00  0.00    +0.000 C 
ATOM     10  C   UNL     1     105.039 124.876 139.461  0.00  0.00    +0.000 A 
ATOM     11  C   UNL     1     105.558 123.503 140.332  0.00  0.00    +0.000 A 
ATOM     12  C   UNL     1     105.210 123.404 139.552  0.00  0.00    +0.000 A 
ENDROOT
BRANCH   4  13
ATOM     13  C   UNL     1     105.889 126.548 141.648  0.00  0.00    +0.000 A 
ATOM     14  C   UNL     1     106.641 126.855 141.792  0.00  0.00    +0.000 A 
ATOM     15  C   UNL     1     105.219 126.994 141.833  0.00  0.00    +0.000 A 
ATOM     16  C   UNL     1     106.725 127.607 142.120  0.00  0.00    +0.000 A 
ATOM     17  C   UNL     1     105.303 127.747 142.161  0.00  0.00    +0.000 A 
ATOM     18  C   UNL     1     106.055 128.053 142.305  0.00  0.00    +0.000 A 
BRANCH  18  19
ATOM     19  O   UNL     1     106.139 128.805 142.633  0.00  0.00    +0.000 OA
ATOM     20  C   UNL     1     105.664 129.426 142.370  0.00  0.00    +0.000 C 
ENDBRANCH  18  19
ENDBRANCH   4  13
BRANCH   6  21
ATOM     21  O   UNL     1     104.615 124.010 138.365  0.00  0.00    +0.000 OA
BRANCH  21  29
ATOM     22  O   UNL     1     103.301 123.962 138.923  0.00  0.00    +0.000 OA
ATOM     23  O   UNL     1     102.426 123.066 136.789  0.00  0.00    +0.000 OA
ATOM     24  O   UNL     1     104.032 123.412 136.941  0.00  0.00    +0.000 OA
ATOM     25  O   UNL     1     101.403 123.318 138.059  0.00  0.00    +0.000 OA
ATOM     26  C   UNL     1     102.717 123.365 137.500  0.00  0.00    +0.000 C 
ATOM     27  C   UNL     1     103.521 123.538 137.576  0.00  0.00    +0.000 C 
ATOM     28  C   UNL     1     102.206 123.491 138.135  0.00  0.00    +0.000 C 
ATOM     29  C   UNL     1     103.813 123.837 138.288  0.00  0.00    +0.000 C 
ATOM     30  C   UNL     1     102.498 123.789 138.847  0.00  0.00    +0.000 C 
ENDBRANCH  21  29
ENDBRANCH   6  21
TORSDOF 4
ENDMDL
MODEL 7
REMARK VINA RESULT:      -8.6      6.997      8.775
REMARK  Name = 74819383
REMARK  4 active torsions:
REMARK  status: ('A' for Active; 'I' for Inactive)
REMARK    1  A    between atoms: O_2  and  C_13
REMARK    2  A    between atoms: O_2  and  C_17
REMARK    3  A    between atoms: O_9  and  C_29
REMARK    4  A    between atoms: C_15  and  C_22
REMARK                            x       y       z     vdW  Elec       q    Type
REMARK                         _______ _______ _______ _____ _____    ______ ____
ROOT
ATOM      1  O   UNL     1     104.802 124.121 139.183  0.00  0.00    +0.000 OA
ATOM      2  O   UNL     1     105.139 123.293 141.930  0.00  0.00    +0.000 OA
ATOM      3  O   UNL     1     104.072 122.762 141.119  0.00  0.00    +0.000 OA
ATOM      4  C   UNL     1     104.147 123.624 139.114  0.00  0.00    +0.000 C 
ATOM      5  C   UNL     1     103.904 123.171 139.759  0.00  0.00    +0.000 C 
ATOM      6  C   UNL     1     106.326 124.737 140.697  0.00  0.00    +0.000 A 
ATOM      7  C   UNL     1     105.213 124.165 139.897  0.00  0.00    +0.000 A 
ATOM      8  C   UNL     1     104.970 123.712 140.542  0.00  0.00    +0.000 A 
ATOM      9  C   UNL     1     104.315 123.216 140.473  0.00  0.00    +0.000 C 
ATOM     10  C   UNL     1     105.894 124.687 139.956  0.00  0.00    +0.000 A 
ATOM     11  C   UNL     1     105.390 123.750 141.291  0.00  0.00    +0.000 A 
ATOM     12  C   UNL     1     106.073 124.266 141.368  0.00  0.00    +0.000 A 
ENDROOT
BRANCH   4  13
ATOM     13  C   UNL     1     103.736 123.580 138.401  0.00  0.00    +0.000 A 
ATOM     14  C   UNL     1     104.096 123.248 137.737  0.00  0.00    +0.000 A 
ATOM     15  C   UNL     1     102.964 123.868 138.351  0.00  0.00    +0.000 A 
ATOM     16  C   UNL     1     103.685 123.204 137.023  0.00  0.00    +0.000 A 
ATOM     17  C   UNL     1     102.552 123.823 137.637  0.00  0.00    +0.000 A 
ATOM     18  C   UNL     1     102.912 123.492 136.974  0.00  0.00    +0.000 A 
BRANCH  18  19
ATOM     19  O   UNL     1     102.501 123.447 136.260  0.00  0.00    +0.000 OA
ATOM     20  C   UNL     1     102.861 123.116 135.596  0.00  0.00    +0.000 C 
ENDBRANCH  18  19
ENDBRANCH   4  13
BRANCH   6  21
ATOM     21  O   UNL     1     106.981 125.235 140.762  0.00  0.00    +0.000 OA
BRANCH  21  29
ATOM     22  O   UNL     1     106.239 126.350 141.258  0.00  0.00    +0.000 OA
ATOM     23  O   UNL     1     108.208 127.078 142.570  0.00  0.00    +0.000 OA
ATOM     24  O   UNL     1     108.294 125.720 141.636  0.00  0.00    +0.000 OA
ATOM     25  O   UNL     1     106.808 127.951 142.629  0.00  0.00    +0.000 OA
ATOM     26  C   UNL     1     107.551 126.835 142.133  0.00  0.00    +0.000 C 
ATOM     27  C   UNL     1     107.595 126.156 141.666  0.00  0.00    +0.000 C 
ATOM     28  C   UNL     1     106.852 127.272 142.162  0.00  0.00    +0.000 C 
ATOM     29  C   UNL     1     106.938 125.914 141.229  0.00  0.00    +0.000 C 
ATOM     30  C   UNL     1     106.196 127.029 141.725  0.00  0.00    +0.000 C 
ENDBRANCH  21  29
ENDBRANCH   6  21
TORSDOF 4
ENDMDL
MODEL 8
REMARK VINA RESULT:      -8.6      2.042      2.739
REMARK  Name = 74819383
REMARK  4 active torsions:
REMARK  status: ('A' for Active; 'I' for Inactive)
REMARK    1  A    between atoms: O_2  and  C_13
REMARK    2  A    between atoms: O_2  and  C_17
REMARK    3  A    between atoms: O_9  and  C_29
REMARK    4  A    between atoms: C_15  and  C_22
REMARK                            x       y       z     vdW  Elec       q    Type
REMARK                         _______ _______ _______ _____ _____    ______ ____
ROOT
ATOM      1  O   UNL     1     111.004 126.275 136.660  0.00  0.00    +0.000 OA
ATOM      2  O   UNL     1     108.760 126.417 134.847  0.00  0.00    +0.000 OA
ATOM      3  O   UNL     1     109.771 125.399 134.701  0.00  0.00    +0.000 OA
ATOM      4  C   UNL     1     111.293 125.619 136.251  0.00  0.00    +0.000 C 
ATOM      5  C   UNL     1     110.882 125.327 135.598  0.00  0.00    +0.000 C 
ATOM      6  C   UNL     1     109.287 127.703 136.604  0.00  0.00    +0.000 A 
ATOM      7  C   UNL     1     110.305 126.638 136.417  0.00  0.00    +0.000 A 
ATOM      8  C   UNL     1     109.894 126.346 135.764  0.00  0.00    +0.000 A 
ATOM      9  C   UNL     1     110.183 125.691 135.355  0.00  0.00    +0.000 C 
ATOM     10  C   UNL     1     110.015 127.320 136.852  0.00  0.00    +0.000 A 
ATOM     11  C   UNL     1     109.164 126.716 135.501  0.00  0.00    +0.000 A 
ATOM     12  C   UNL     1     108.859 127.399 135.924  0.00  0.00    +0.000 A 
ENDROOT
BRANCH   4  13
ATOM     13  C   UNL     1     111.992 125.256 136.494  0.00  0.00    +0.000 A 
ATOM     14  C   UNL     1     111.975 124.492 136.804  0.00  0.00    +0.000 A 
ATOM     15  C   UNL     1     112.711 125.657 136.426  0.00  0.00    +0.000 A 
ATOM     16  C   UNL     1     112.674 124.129 137.047  0.00  0.00    +0.000 A 
ATOM     17  C   UNL     1     113.411 125.293 136.669  0.00  0.00    +0.000 A 
ATOM     18  C   UNL     1     113.393 124.530 136.980  0.00  0.00    +0.000 A 
BRANCH  18  19
ATOM     19  O   UNL     1     114.092 124.166 137.223  0.00  0.00    +0.000 OA
ATOM     20  C   UNL     1     114.787 124.605 137.283  0.00  0.00    +0.000 C 
ENDBRANCH  18  19
ENDBRANCH   4  13
BRANCH   6  21
ATOM     21  O   UNL     1     109.001 128.358 137.015  0.00  0.00    +0.000 OA
BRANCH  21  29
ATOM     22  O   UNL     1     109.560 129.291 136.090  0.00  0.00    +0.000 OA
ATOM     23  O   UNL     1     109.647 131.007 137.871  0.00  0.00    +0.000 OA
ATOM     24  O   UNL     1     109.058 129.502 138.204  0.00  0.00    +0.000 OA
ATOM     25  O   UNL     1     110.178 131.368 136.351  0.00  0.00    +0.000 OA
ATOM     26  C   UNL     1     109.618 130.435 137.277  0.00  0.00    +0.000 C 
ATOM     27  C   UNL     1     109.324 129.682 137.444  0.00  0.00    +0.000 C 
ATOM     28  C   UNL     1     109.884 130.616 136.517  0.00  0.00    +0.000 C 
ATOM     29  C   UNL     1     109.295 129.110 136.850  0.00  0.00    +0.000 C 
ATOM     30  C   UNL     1     109.855 130.044 135.924  0.00  0.00    +0.000 C 
ENDBRANCH  21  29
ENDBRANCH   6  21
TORSDOF 4
ENDMDL
MODEL 9
REMARK VINA RESULT:      -8.6      1.903      5.354
REMARK  Name = 74819383
REMARK  4 active torsions:
REMARK  status: ('A' for Active; 'I' for Inactive)
REMARK    1  A    between atoms: O_2  and  C_13
REMARK    2  A    between atoms: O_2  and  C_17
REMARK    3  A    between atoms: O_9  and  C_29
REMARK    4  A    between atoms: C_15  and  C_22
REMARK                            x       y       z     vdW  Elec       q    Type
REMARK                         _______ _______ _______ _____ _____    ______ ____
ROOT
ATOM      1  O   UNL     1     111.394 128.633 136.122  0.00  0.00    +0.000 OA
ATOM      2  O   UNL     1     114.227 128.237 135.723  0.00  0.00    +0.000 OA
ATOM      3  O   UNL     1     113.517 129.283 135.029  0.00  0.00    +0.000 OA
ATOM      4  C   UNL     1     111.407 129.263 135.590  0.00  0.00    +0.000 C 
ATOM      5  C   UNL     1     112.115 129.480 135.226  0.00  0.00    +0.000 C 
ATOM      6  C   UNL     1     112.779 127.130 137.024  0.00  0.00    +0.000 A 
ATOM      7  C   UNL     1     112.087 128.219 136.290  0.00  0.00    +0.000 A 
ATOM      8  C   UNL     1     112.795 128.436 135.925  0.00  0.00    +0.000 A 
ATOM      9  C   UNL     1     112.808 129.066 135.394  0.00  0.00    +0.000 C 
ATOM     10  C   UNL     1     112.060 127.564 136.846  0.00  0.00    +0.000 A 
ATOM     11  C   UNL     1     113.524 128.013 136.092  0.00  0.00    +0.000 A 
ATOM     12  C   UNL     1     113.516 127.355 136.645  0.00  0.00    +0.000 A 
ENDROOT
BRANCH   4  13
ATOM     13  C   UNL     1     110.714 129.677 135.423  0.00  0.00    +0.000 A 
ATOM     14  C   UNL     1     110.246 129.456 134.780  0.00  0.00    +0.000 A 
ATOM     15  C   UNL     1     110.487 130.313 135.898  0.00  0.00    +0.000 A 
ATOM     16  C   UNL     1     109.552 129.869 134.612  0.00  0.00    +0.000 A 
ATOM     17  C   UNL     1     109.793 130.726 135.730  0.00  0.00    +0.000 A 
ATOM     18  C   UNL     1     109.326 130.505 135.088  0.00  0.00    +0.000 A 
BRANCH  18  19
ATOM     19  O   UNL     1     108.632 130.919 134.920  0.00  0.00    +0.000 OA
ATOM     20  C   UNL     1     108.657 131.732 134.789  0.00  0.00    +0.000 C 
ENDBRANCH  18  19
ENDBRANCH   4  13
BRANCH   6  21
ATOM     21  O   UNL     1     112.762 126.499 137.556  0.00  0.00    +0.000 OA
BRANCH  21  29
ATOM     22  O   UNL     1     112.749 125.478 136.558  0.00  0.00    +0.000 OA
ATOM     23  O   UNL     1     111.366 124.051 138.033  0.00  0.00    +0.000 OA
ATOM     24  O   UNL     1     111.840 125.548 138.541  0.00  0.00    +0.000 OA
ATOM     25  O   UNL     1     111.814 123.506 136.542  0.00  0.00    +0.000 OA
ATOM     26  C   UNL     1     111.827 124.527 137.541  0.00  0.00    +0.000 C 
ATOM     27  C   UNL     1     112.064 125.276 137.795  0.00  0.00    +0.000 C 
ATOM     28  C   UNL     1     112.051 124.254 136.796  0.00  0.00    +0.000 C 
ATOM     29  C   UNL     1     112.525 125.751 137.303  0.00  0.00    +0.000 C 
ATOM     30  C   UNL     1     112.512 124.730 136.304  0.00  0.00    +0.000 C 
ENDBRANCH  21  29
ENDBRANCH   6  21
TORSDOF 4
ENDMDL
MODEL 10
REMARK VINA RESULT:      -8.6      3.037      5.158
REMARK  Name = 74819383
REMARK  4 active torsions:
REMARK  status: ('A' for Active; 'I' for Inactive)
REMARK    1  A    between atoms: O_2  and  C_13
REMARK    2  A    between atoms: O_2  and  C_17
REMARK    3  A    between atoms: O_9  and  C_29
REMARK    4  A    between atoms: C_15  and  C_22
REMARK                            x       y       z     vdW  Elec       q    Type
REMARK                         _______ _______ _______ _____ _____    ______ ____
ROOT
ATOM      1  O   UNL     1     113.172 127.578 137.385  0.00  0.00    +0.000 OA
ATOM      2  O   UNL     1     113.748 130.063 136.030  0.00  0.00    +0.000 OA
ATOM      3  O   UNL     1     113.913 128.796 135.361  0.00  0.00    +0.000 OA
ATOM      4  C   UNL     1     113.381 127.159 136.705  0.00  0.00    +0.000 C 
ATOM      5  C   UNL     1     113.628 127.565 136.031  0.00  0.00    +0.000 C 
ATOM      6  C   UNL     1     113.026 129.684 138.116  0.00  0.00    +0.000 A 
ATOM      7  C   UNL     1     113.209 128.402 137.390  0.00  0.00    +0.000 A 
ATOM      8  C   UNL     1     113.456 128.808 136.716  0.00  0.00    +0.000 A 
ATOM      9  C   UNL     1     113.665 128.390 136.037  0.00  0.00    +0.000 C 
ATOM     10  C   UNL     1     112.989 128.826 138.104  0.00  0.00    +0.000 A 
ATOM     11  C   UNL     1     113.500 129.666 136.709  0.00  0.00    +0.000 A 
ATOM     12  C   UNL     1     113.284 130.107 137.414  0.00  0.00    +0.000 A 
ENDROOT
BRANCH   4  13
ATOM     13  C   UNL     1     113.343 126.336 136.700  0.00  0.00    +0.000 A 
ATOM     14  C   UNL     1     114.010 125.890 136.894  0.00  0.00    +0.000 A 
ATOM     15  C   UNL     1     112.637 125.956 136.500  0.00  0.00    +0.000 A 
ATOM     16  C   UNL     1     113.972 125.067 136.889  0.00  0.00    +0.000 A 
ATOM     17  C   UNL     1     112.600 125.132 136.494  0.00  0.00    +0.000 A 
ATOM     18  C   UNL     1     113.266 124.687 136.689  0.00  0.00    +0.000 A 
BRANCH  18  19
ATOM     19  O   UNL     1     113.229 123.863 136.683  0.00  0.00    +0.000 OA
ATOM     20  C   UNL     1     112.528 123.480 136.886  0.00  0.00    +0.000 C 
ENDBRANCH  18  19
ENDBRANCH   4  13
BRANCH   6  21
ATOM     21  O   UNL     1     112.817 130.100 138.797  0.00  0.00    +0.000 OA
BRANCH  21  29
ATOM     22  O   UNL     1     114.150 130.462 139.159  0.00  0.00    +0.000 OA
ATOM     23  O   UNL     1     113.544 130.304 141.553  0.00  0.00    +0.000 OA
ATOM     24  O   UNL     1     112.412 129.995 140.393  0.00  0.00    +0.000 OA
ATOM     25  O   UNL     1     115.080 130.718 141.117  0.00  0.00    +0.000 OA
ATOM     26  C   UNL     1     113.746 130.357 140.755  0.00  0.00    +0.000 C 
ATOM     27  C   UNL     1     113.180 130.202 140.175  0.00  0.00    +0.000 C 
ATOM     28  C   UNL     1     114.514 130.564 140.537  0.00  0.00    +0.000 C 
ATOM     29  C   UNL     1     113.382 130.255 139.377  0.00  0.00    +0.000 C 
ATOM     30  C   UNL     1     114.716 130.616 139.739  0.00  0.00    +0.000 C 
ENDBRANCH  21  29
ENDBRANCH   6  21
TORSDOF 4
ENDMDL
