MODEL 1
REMARK VINA RESULT:      -9.1      0.000      0.000
REMARK  Name = 44258229
REMARK  5 active torsions:
REMARK  status: ('A' for Active; 'I' for Inactive)
REMARK    1  A    between atoms: O_2  and  C_16
REMARK    2  A    between atoms: O_2  and  C_18
REMARK    3  A    between atoms: O_7  and  C_20
REMARK    4  A    between atoms: C_15  and  C_17
REMARK    5  A    between atoms: C_21  and  C_24
REMARK                            x       y       z     vdW  Elec       q    Type
REMARK                         _______ _______ _______ _____ _____    ______ ____
ROOT
ATOM      1  C   UNL     1     112.185 125.963 136.487  0.00  0.00    +0.000 A 
ATOM      2  C   UNL     1     112.342 126.772 136.519  0.00  0.00    +0.000 A 
ATOM      3  C   UNL     1     112.803 125.419 136.560  0.00  0.00    +0.000 A 
ATOM      4  C   UNL     1     113.116 127.038 136.624  0.00  0.00    +0.000 A 
ATOM      5  C   UNL     1     113.576 125.686 136.665  0.00  0.00    +0.000 A 
ATOM      6  C   UNL     1     113.732 126.496 136.696  0.00  0.00    +0.000 A 
ENDROOT
BRANCH   4  11
ATOM      7  O   UNL     1     113.140 128.266 137.356  0.00  0.00    +0.000 OA
ATOM      8  O   UNL     1     114.003 129.441 135.355  0.00  0.00    +0.000 OA
ATOM      9  O   UNL     1     114.037 130.693 136.071  0.00  0.00    +0.000 OA
ATOM     10  O   UNL     1     113.182 130.758 138.862  0.00  0.00    +0.000 OA
ATOM     11  C   UNL     1     113.272 127.848 136.656  0.00  0.00    +0.000 A 
ATOM     12  C   UNL     1     113.559 128.240 135.990  0.00  0.00    +0.000 A 
ATOM     13  C   UNL     1     113.296 129.075 137.388  0.00  0.00    +0.000 A 
ATOM     14  C   UNL     1     113.583 129.468 136.721  0.00  0.00    +0.000 A 
ATOM     15  C   UNL     1     113.715 129.049 136.021  0.00  0.00    +0.000 A 
ATOM     16  C   UNL     1     113.749 130.310 136.743  0.00  0.00    +0.000 A 
ATOM     17  C   UNL     1     113.154 129.499 138.121  0.00  0.00    +0.000 A 
ATOM     18  C   UNL     1     113.314 130.343 138.162  0.00  0.00    +0.000 A 
ATOM     19  C   UNL     1     113.614 130.751 137.467  0.00  0.00    +0.000 A 
ENDBRANCH   4  11
BRANCH   3  20
ATOM     20  O   UNL     1     112.645 124.610 136.528  0.00  0.00    +0.000 OA
ATOM     21  C   UNL     1     113.268 124.068 136.555  0.00  0.00    +0.000 C 
ENDBRANCH   3  20
BRANCH   1  22
ATOM     22  O   UNL     1     111.412 125.696 136.383  0.00  0.00    +0.000 OA
BRANCH  22  31
ATOM     23  O   UNL     1     110.914 125.870 137.711  0.00  0.00    +0.000 OA
ATOM     24  O   UNL     1     108.834 126.856 136.802  0.00  0.00    +0.000 OA
ATOM     25  O   UNL     1     109.029 126.700 138.433  0.00  0.00    +0.000 OA
ATOM     26  O   UNL     1     110.026 126.354 135.777  0.00  0.00    +0.000 OA
ATOM     27  C   UNL     1     109.527 126.527 137.105  0.00  0.00    +0.000 C 
ATOM     28  C   UNL     1     109.624 126.449 137.920  0.00  0.00    +0.000 C 
ATOM     29  C   UNL     1     110.123 126.276 136.592  0.00  0.00    +0.000 C 
ATOM     30  C   UNL     1     110.318 126.121 138.223  0.00  0.00    +0.000 C 
ATOM     31  C   UNL     1     110.816 125.947 136.895  0.00  0.00    +0.000 C 
BRANCH  30  33
ATOM     32  O   UNL     1     110.745 125.354 139.350  0.00  0.00    +0.000 OA
ATOM     33  C   UNL     1     110.415 126.043 139.039  0.00  0.00    +0.000 C 
ENDBRANCH  30  33
ENDBRANCH  22  31
ENDBRANCH   1  22
TORSDOF 5
ENDMDL
MODEL 2
REMARK VINA RESULT:      -8.9      9.502     12.583
REMARK  Name = 44258229
REMARK  5 active torsions:
REMARK  status: ('A' for Active; 'I' for Inactive)
REMARK    1  A    between atoms: O_2  and  C_16
REMARK    2  A    between atoms: O_2  and  C_18
REMARK    3  A    between atoms: O_7  and  C_20
REMARK    4  A    between atoms: C_15  and  C_17
REMARK    5  A    between atoms: C_21  and  C_24
REMARK                            x       y       z     vdW  Elec       q    Type
REMARK                         _______ _______ _______ _____ _____    ______ ____
ROOT
ATOM      1  C   UNL     1     106.388 125.299 146.088  0.00  0.00    +0.000 A 
ATOM      2  C   UNL     1     105.613 125.017 146.052  0.00  0.00    +0.000 A 
ATOM      3  C   UNL     1     106.822 125.222 146.786  0.00  0.00    +0.000 A 
ATOM      4  C   UNL     1     105.273 124.659 146.713  0.00  0.00    +0.000 A 
ATOM      5  C   UNL     1     106.482 124.864 147.447  0.00  0.00    +0.000 A 
ATOM      6  C   UNL     1     105.707 124.583 147.410  0.00  0.00    +0.000 A 
ENDROOT
BRANCH   4  11
ATOM      7  O   UNL     1     103.899 124.763 147.093  0.00  0.00    +0.000 OA
ATOM      8  O   UNL     1     103.371 122.765 145.732  0.00  0.00    +0.000 OA
ATOM      9  O   UNL     1     101.978 122.847 146.100  0.00  0.00    +0.000 OA
ATOM     10  O   UNL     1     101.104 124.991 147.879  0.00  0.00    +0.000 OA
ATOM     11  C   UNL     1     104.498 124.377 146.676  0.00  0.00    +0.000 A 
ATOM     12  C   UNL     1     104.322 123.712 146.222  0.00  0.00    +0.000 A 
ATOM     13  C   UNL     1     103.125 124.482 147.056  0.00  0.00    +0.000 A 
ATOM     14  C   UNL     1     102.948 123.816 146.603  0.00  0.00    +0.000 A 
ATOM     15  C   UNL     1     103.547 123.430 146.185  0.00  0.00    +0.000 A 
ATOM     16  C   UNL     1     102.145 123.514 146.556  0.00  0.00    +0.000 A 
ATOM     17  C   UNL     1     102.510 124.892 147.495  0.00  0.00    +0.000 A 
ATOM     18  C   UNL     1     101.700 124.604 147.461  0.00  0.00    +0.000 A 
ATOM     19  C   UNL     1     101.517 123.910 146.988  0.00  0.00    +0.000 A 
ENDBRANCH   4  11
BRANCH   3  20
ATOM     20  O   UNL     1     107.596 125.504 146.822  0.00  0.00    +0.000 OA
ATOM     21  C   UNL     1     108.049 125.380 147.502  0.00  0.00    +0.000 C 
ENDBRANCH   3  20
BRANCH   1  22
ATOM     22  O   UNL     1     106.728 125.656 145.428  0.00  0.00    +0.000 OA
BRANCH  22  31
ATOM     23  O   UNL     1     106.046 126.912 145.429  0.00  0.00    +0.000 OA
ATOM     24  O   UNL     1     105.643 126.694 142.996  0.00  0.00    +0.000 OA
ATOM     25  O   UNL     1     105.096 128.023 143.808  0.00  0.00    +0.000 OA
ATOM     26  O   UNL     1     106.459 125.510 143.807  0.00  0.00    +0.000 OA
ATOM     27  C   UNL     1     105.777 126.767 143.807  0.00  0.00    +0.000 C 
ATOM     28  C   UNL     1     105.504 127.430 144.212  0.00  0.00    +0.000 C 
ATOM     29  C   UNL     1     106.185 126.174 144.212  0.00  0.00    +0.000 C 
ATOM     30  C   UNL     1     105.639 127.503 145.023  0.00  0.00    +0.000 C 
ATOM     31  C   UNL     1     106.320 126.247 145.022  0.00  0.00    +0.000 C 
BRANCH  30  33
ATOM     32  O   UNL     1     105.839 128.524 146.003  0.00  0.00    +0.000 OA
ATOM     33  C   UNL     1     105.365 128.168 145.429  0.00  0.00    +0.000 C 
ENDBRANCH  30  33
ENDBRANCH  22  31
ENDBRANCH   1  22
TORSDOF 5
ENDMDL
MODEL 3
REMARK VINA RESULT:      -8.9      1.719      4.883
REMARK  Name = 44258229
REMARK  5 active torsions:
REMARK  status: ('A' for Active; 'I' for Inactive)
REMARK    1  A    between atoms: O_2  and  C_16
REMARK    2  A    between atoms: O_2  and  C_18
REMARK    3  A    between atoms: O_7  and  C_20
REMARK    4  A    between atoms: C_15  and  C_17
REMARK    5  A    between atoms: C_21  and  C_24
REMARK                            x       y       z     vdW  Elec       q    Type
REMARK                         _______ _______ _______ _____ _____    ______ ____
ROOT
ATOM      1  C   UNL     1     114.139 129.861 136.595  0.00  0.00    +0.000 A 
ATOM      2  C   UNL     1     113.831 129.106 136.717  0.00  0.00    +0.000 A 
ATOM      3  C   UNL     1     114.425 130.075 135.851  0.00  0.00    +0.000 A 
ATOM      4  C   UNL     1     113.807 128.564 136.095  0.00  0.00    +0.000 A 
ATOM      5  C   UNL     1     114.401 129.533 135.229  0.00  0.00    +0.000 A 
ATOM      6  C   UNL     1     114.092 128.778 135.352  0.00  0.00    +0.000 A 
ENDROOT
BRANCH   4  11
ATOM      7  O   UNL     1     113.988 127.203 136.493  0.00  0.00    +0.000 OA
ATOM      8  O   UNL     1     111.596 126.754 136.041  0.00  0.00    +0.000 OA
ATOM      9  O   UNL     1     111.751 125.375 136.436  0.00  0.00    +0.000 OA
ATOM     10  O   UNL     1     114.375 124.433 137.306  0.00  0.00    +0.000 OA
ATOM     11  C   UNL     1     113.498 127.809 136.218  0.00  0.00    +0.000 A 
ATOM     12  C   UNL     1     112.702 127.659 136.068  0.00  0.00    +0.000 A 
ATOM     13  C   UNL     1     113.680 126.448 136.616  0.00  0.00    +0.000 A 
ATOM     14  C   UNL     1     112.882 126.297 136.465  0.00  0.00    +0.000 A 
ATOM     15  C   UNL     1     112.393 126.904 136.191  0.00  0.00    +0.000 A 
ATOM     16  C   UNL     1     112.550 125.516 136.590  0.00  0.00    +0.000 A 
ATOM     17  C   UNL     1     114.199 125.826 136.901  0.00  0.00    +0.000 A 
ATOM     18  C   UNL     1     113.884 125.037 137.032  0.00  0.00    +0.000 A 
ATOM     19  C   UNL     1     113.054 124.881 136.875  0.00  0.00    +0.000 A 
ENDBRANCH   4  11
BRANCH   3  20
ATOM     20  O   UNL     1     114.733 130.830 135.729  0.00  0.00    +0.000 OA
ATOM     21  C   UNL     1     115.234 130.972 135.088  0.00  0.00    +0.000 C 
ENDBRANCH   3  20
BRANCH   1  22
ATOM     22  O   UNL     1     114.163 130.402 137.216  0.00  0.00    +0.000 OA
BRANCH  22  31
ATOM     23  O   UNL     1     112.784 130.771 137.288  0.00  0.00    +0.000 OA
ATOM     24  O   UNL     1     112.849 130.537 139.751  0.00  0.00    +0.000 OA
ATOM     25  O   UNL     1     111.449 130.984 139.002  0.00  0.00    +0.000 OA
ATOM     26  O   UNL     1     114.206 130.246 138.858  0.00  0.00    +0.000 OA
ATOM     27  C   UNL     1     112.828 130.615 138.930  0.00  0.00    +0.000 C 
ATOM     28  C   UNL     1     112.128 130.839 138.556  0.00  0.00    +0.000 C 
ATOM     29  C   UNL     1     113.506 130.469 138.484  0.00  0.00    +0.000 C 
ATOM     30  C   UNL     1     112.106 130.917 137.735  0.00  0.00    +0.000 C 
ATOM     31  C   UNL     1     113.485 130.548 137.663  0.00  0.00    +0.000 C 
BRANCH  30  33
ATOM     32  O   UNL     1     111.419 131.724 136.777  0.00  0.00    +0.000 OA
ATOM     33  C   UNL     1     111.405 131.141 137.360  0.00  0.00    +0.000 C 
ENDBRANCH  30  33
ENDBRANCH  22  31
ENDBRANCH   1  22
TORSDOF 5
ENDMDL
MODEL 4
REMARK VINA RESULT:      -8.8      1.717      4.255
REMARK  Name = 44258229
REMARK  5 active torsions:
REMARK  status: ('A' for Active; 'I' for Inactive)
REMARK    1  A    between atoms: O_2  and  C_16
REMARK    2  A    between atoms: O_2  and  C_18
REMARK    3  A    between atoms: O_7  and  C_20
REMARK    4  A    between atoms: C_15  and  C_17
REMARK    5  A    between atoms: C_21  and  C_24
REMARK                            x       y       z     vdW  Elec       q    Type
REMARK                         _______ _______ _______ _____ _____    ______ ____
ROOT
ATOM      1  C   UNL     1     112.577 128.858 136.751  0.00  0.00    +0.000 A 
ATOM      2  C   UNL     1     112.627 128.044 136.874  0.00  0.00    +0.000 A 
ATOM      3  C   UNL     1     113.142 129.240 136.286  0.00  0.00    +0.000 A 
ATOM      4  C   UNL     1     113.242 127.612 136.534  0.00  0.00    +0.000 A 
ATOM      5  C   UNL     1     113.757 128.808 135.946  0.00  0.00    +0.000 A 
ATOM      6  C   UNL     1     113.806 127.994 136.070  0.00  0.00    +0.000 A 
ENDROOT
BRANCH   4  11
ATOM      7  O   UNL     1     112.682 126.303 136.400  0.00  0.00    +0.000 OA
ATOM      8  O   UNL     1     114.654 125.342 137.545  0.00  0.00    +0.000 OA
ATOM      9  O   UNL     1     114.112 124.011 137.423  0.00  0.00    +0.000 OA
ATOM     10  O   UNL     1     111.525 123.645 136.118  0.00  0.00    +0.000 OA
ATOM     11  C   UNL     1     113.291 126.797 136.658  0.00  0.00    +0.000 A 
ATOM     12  C   UNL     1     113.948 126.477 137.039  0.00  0.00    +0.000 A 
ATOM     13  C   UNL     1     112.731 125.490 136.524  0.00  0.00    +0.000 A 
ATOM     14  C   UNL     1     113.388 125.168 136.906  0.00  0.00    +0.000 A 
ATOM     15  C   UNL     1     113.998 125.662 137.164  0.00  0.00    +0.000 A 
ATOM     16  C   UNL     1     113.450 124.323 137.040  0.00  0.00    +0.000 A 
ATOM     17  C   UNL     1     112.090 124.986 136.251  0.00  0.00    +0.000 A 
ATOM     18  C   UNL     1     112.135 124.137 136.377  0.00  0.00    +0.000 A 
ATOM     19  C   UNL     1     112.820 123.803 136.774  0.00  0.00    +0.000 A 
ENDBRANCH   4  11
BRANCH   3  20
ATOM     20  O   UNL     1     113.092 130.054 136.163  0.00  0.00    +0.000 OA
ATOM     21  C   UNL     1     113.770 130.484 135.970  0.00  0.00    +0.000 C 
ENDBRANCH   3  20
BRANCH   1  22
ATOM     22  O   UNL     1     111.963 129.289 137.091  0.00  0.00    +0.000 OA
BRANCH  22  31
ATOM     23  O   UNL     1     110.896 128.928 136.211  0.00  0.00    +0.000 OA
ATOM     24  O   UNL     1     109.400 128.606 138.156  0.00  0.00    +0.000 OA
ATOM     25  O   UNL     1     108.832 128.352 136.628  0.00  0.00    +0.000 OA
ATOM     26  O   UNL     1     110.965 129.075 138.388  0.00  0.00    +0.000 OA
ATOM     27  C   UNL     1     109.899 128.713 137.508  0.00  0.00    +0.000 C 
ATOM     28  C   UNL     1     109.615 128.586 136.745  0.00  0.00    +0.000 C 
ATOM     29  C   UNL     1     110.682 128.948 137.624  0.00  0.00    +0.000 C 
ATOM     30  C   UNL     1     110.114 128.694 136.096  0.00  0.00    +0.000 C 
ATOM     31  C   UNL     1     111.180 129.055 136.976  0.00  0.00    +0.000 C 
BRANCH  30  33
ATOM     32  O   UNL     1     110.013 129.100 134.730  0.00  0.00    +0.000 OA
ATOM     33  C   UNL     1     109.830 128.567 135.331  0.00  0.00    +0.000 C 
ENDBRANCH  30  33
ENDBRANCH  22  31
ENDBRANCH   1  22
TORSDOF 5
ENDMDL
MODEL 5
REMARK VINA RESULT:      -8.8      1.567      4.720
REMARK  Name = 44258229
REMARK  5 active torsions:
REMARK  status: ('A' for Active; 'I' for Inactive)
REMARK    1  A    between atoms: O_2  and  C_16
REMARK    2  A    between atoms: O_2  and  C_18
REMARK    3  A    between atoms: O_7  and  C_20
REMARK    4  A    between atoms: C_15  and  C_17
REMARK    5  A    between atoms: C_21  and  C_24
REMARK                            x       y       z     vdW  Elec       q    Type
REMARK                         _______ _______ _______ _____ _____    ______ ____
ROOT
ATOM      1  C   UNL     1     113.392 129.664 136.165  0.00  0.00    +0.000 A 
ATOM      2  C   UNL     1     113.053 128.933 136.341  0.00  0.00    +0.000 A 
ATOM      3  C   UNL     1     114.091 129.701 135.726  0.00  0.00    +0.000 A 
ATOM      4  C   UNL     1     113.412 128.238 136.078  0.00  0.00    +0.000 A 
ATOM      5  C   UNL     1     114.449 129.006 135.464  0.00  0.00    +0.000 A 
ATOM      6  C   UNL     1     114.110 128.275 135.640  0.00  0.00    +0.000 A 
ENDROOT
BRANCH   4  11
ATOM      7  O   UNL     1     112.390 127.263 135.858  0.00  0.00    +0.000 OA
ATOM      8  O   UNL     1     113.415 125.801 137.571  0.00  0.00    +0.000 OA
ATOM      9  O   UNL     1     112.396 124.801 137.369  0.00  0.00    +0.000 OA
ATOM     10  O   UNL     1     110.299 125.289 135.395  0.00  0.00    +0.000 OA
ATOM     11  C   UNL     1     113.073 127.507 136.254  0.00  0.00    +0.000 A 
ATOM     12  C   UNL     1     113.414 127.020 136.824  0.00  0.00    +0.000 A 
ATOM     13  C   UNL     1     112.050 126.533 136.033  0.00  0.00    +0.000 A 
ATOM     14  C   UNL     1     112.391 126.045 136.604  0.00  0.00    +0.000 A 
ATOM     15  C   UNL     1     113.074 126.288 137.000  0.00  0.00    +0.000 A 
ATOM     16  C   UNL     1     112.047 125.282 136.796  0.00  0.00    +0.000 A 
ATOM     17  C   UNL     1     111.340 126.291 135.614  0.00  0.00    +0.000 A 
ATOM     18  C   UNL     1     110.981 125.530 135.792  0.00  0.00    +0.000 A 
ATOM     19  C   UNL     1     111.337 125.023 136.387  0.00  0.00    +0.000 A 
ENDBRANCH   4  11
BRANCH   3  20
ATOM     20  O   UNL     1     114.429 130.432 135.551  0.00  0.00    +0.000 OA
ATOM     21  C   UNL     1     115.062 130.477 135.022  0.00  0.00    +0.000 C 
ENDBRANCH   3  20
BRANCH   1  22
ATOM     22  O   UNL     1     113.034 130.358 136.428  0.00  0.00    +0.000 OA
BRANCH  22  31
ATOM     23  O   UNL     1     113.403 130.320 137.808  0.00  0.00    +0.000 OA
ATOM     24  O   UNL     1     111.094 130.948 138.442  0.00  0.00    +0.000 OA
ATOM     25  O   UNL     1     112.232 130.701 139.611  0.00  0.00    +0.000 OA
ATOM     26  O   UNL     1     111.495 130.777 136.851  0.00  0.00    +0.000 OA
ATOM     27  C   UNL     1     111.864 130.739 138.231  0.00  0.00    +0.000 C 
ATOM     28  C   UNL     1     112.432 130.615 138.815  0.00  0.00    +0.000 C 
ATOM     29  C   UNL     1     112.063 130.653 137.435  0.00  0.00    +0.000 C 
ATOM     30  C   UNL     1     113.202 130.406 138.603  0.00  0.00    +0.000 C 
ATOM     31  C   UNL     1     112.833 130.444 137.223  0.00  0.00    +0.000 C 
BRANCH  30  33
ATOM     32  O   UNL     1     114.519 130.623 139.113  0.00  0.00    +0.000 OA
ATOM     33  C   UNL     1     113.771 130.282 139.188  0.00  0.00    +0.000 C 
ENDBRANCH  30  33
ENDBRANCH  22  31
ENDBRANCH   1  22
TORSDOF 5
ENDMDL
MODEL 6
REMARK VINA RESULT:      -8.7      1.703      4.716
REMARK  Name = 44258229
REMARK  5 active torsions:
REMARK  status: ('A' for Active; 'I' for Inactive)
REMARK    1  A    between atoms: O_2  and  C_16
REMARK    2  A    between atoms: O_2  and  C_18
REMARK    3  A    between atoms: O_7  and  C_20
REMARK    4  A    between atoms: C_15  and  C_17
REMARK    5  A    between atoms: C_21  and  C_24
REMARK                            x       y       z     vdW  Elec       q    Type
REMARK                         _______ _______ _______ _____ _____    ______ ____
ROOT
ATOM      1  C   UNL     1     111.173 128.615 136.256  0.00  0.00    +0.000 A 
ATOM      2  C   UNL     1     111.487 127.878 136.452  0.00  0.00    +0.000 A 
ATOM      3  C   UNL     1     110.915 128.760 135.485  0.00  0.00    +0.000 A 
ATOM      4  C   UNL     1     111.543 127.287 135.880  0.00  0.00    +0.000 A 
ATOM      5  C   UNL     1     110.971 128.169 134.912  0.00  0.00    +0.000 A 
ATOM      6  C   UNL     1     111.286 127.432 135.110  0.00  0.00    +0.000 A 
ENDROOT
BRANCH   4  11
ATOM      7  O   UNL     1     112.653 126.485 136.293  0.00  0.00    +0.000 OA
ATOM      8  O   UNL     1     111.216 124.471 136.242  0.00  0.00    +0.000 OA
ATOM      9  O   UNL     1     112.318 123.639 136.658  0.00  0.00    +0.000 OA
ATOM     10  O   UNL     1     114.924 124.868 137.135  0.00  0.00    +0.000 OA
ATOM     11  C   UNL     1     111.858 126.550 136.078  0.00  0.00    +0.000 A 
ATOM     12  C   UNL     1     111.380 125.879 136.061  0.00  0.00    +0.000 A 
ATOM     13  C   UNL     1     112.967 125.749 136.490  0.00  0.00    +0.000 A 
ATOM     14  C   UNL     1     112.489 125.077 136.474  0.00  0.00    +0.000 A 
ATOM     15  C   UNL     1     111.694 125.142 136.258  0.00  0.00    +0.000 A 
ATOM     16  C   UNL     1     112.805 124.305 136.678  0.00  0.00    +0.000 A 
ATOM     17  C   UNL     1     113.795 125.694 136.713  0.00  0.00    +0.000 A 
ATOM     18  C   UNL     1     114.130 124.930 136.920  0.00  0.00    +0.000 A 
ATOM     19  C   UNL     1     113.631 124.231 136.902  0.00  0.00    +0.000 A 
ENDBRANCH   4  11
BRANCH   3  20
ATOM     20  O   UNL     1     110.601 129.497 135.289  0.00  0.00    +0.000 OA
ATOM     21  C   UNL     1     110.118 129.575 134.623  0.00  0.00    +0.000 C 
ENDBRANCH   3  20
BRANCH   1  22
ATOM     22  O   UNL     1     111.117 129.205 136.828  0.00  0.00    +0.000 OA
BRANCH  22  31
ATOM     23  O   UNL     1     112.483 129.623 136.879  0.00  0.00    +0.000 OA
ATOM     24  O   UNL     1     112.378 129.661 139.352  0.00  0.00    +0.000 OA
ATOM     25  O   UNL     1     113.779 130.066 138.578  0.00  0.00    +0.000 OA
ATOM     26  O   UNL     1     111.048 129.231 138.476  0.00  0.00    +0.000 OA
ATOM     27  C   UNL     1     112.413 129.648 138.527  0.00  0.00    +0.000 C 
ATOM     28  C   UNL     1     113.113 129.851 138.141  0.00  0.00    +0.000 C 
ATOM     29  C   UNL     1     111.747 129.433 138.090  0.00  0.00    +0.000 C 
ATOM     30  C   UNL     1     113.148 129.838 137.317  0.00  0.00    +0.000 C 
ATOM     31  C   UNL     1     111.782 129.420 137.266  0.00  0.00    +0.000 C 
BRANCH  30  33
ATOM     32  O   UNL     1     113.828 130.551 136.283  0.00  0.00    +0.000 OA
ATOM     33  C   UNL     1     113.849 130.040 136.930  0.00  0.00    +0.000 C 
ENDBRANCH  30  33
ENDBRANCH  22  31
ENDBRANCH   1  22
TORSDOF 5
ENDMDL
MODEL 7
REMARK VINA RESULT:      -8.7      2.300      3.239
REMARK  Name = 44258229
REMARK  5 active torsions:
REMARK  status: ('A' for Active; 'I' for Inactive)
REMARK    1  A    between atoms: O_2  and  C_16
REMARK    2  A    between atoms: O_2  and  C_18
REMARK    3  A    between atoms: O_7  and  C_20
REMARK    4  A    between atoms: C_15  and  C_17
REMARK    5  A    between atoms: C_21  and  C_24
REMARK                            x       y       z     vdW  Elec       q    Type
REMARK                         _______ _______ _______ _____ _____    ______ ____
ROOT
ATOM      1  C   UNL     1     111.926 125.473 137.175  0.00  0.00    +0.000 A 
ATOM      2  C   UNL     1     111.658 126.200 136.892  0.00  0.00    +0.000 A 
ATOM      3  C   UNL     1     111.722 124.777 136.781  0.00  0.00    +0.000 A 
ATOM      4  C   UNL     1     111.186 126.232 136.216  0.00  0.00    +0.000 A 
ATOM      5  C   UNL     1     111.250 124.809 136.105  0.00  0.00    +0.000 A 
ATOM      6  C   UNL     1     110.982 125.537 135.823  0.00  0.00    +0.000 A 
ENDROOT
BRANCH   4  11
ATOM      7  O   UNL     1     110.154 127.216 136.114  0.00  0.00    +0.000 OA
ATOM      8  O   UNL     1     111.642 128.632 134.732  0.00  0.00    +0.000 OA
ATOM      9  O   UNL     1     110.617 129.641 134.613  0.00  0.00    +0.000 OA
ATOM     10  O   UNL     1     108.040 129.209 135.916  0.00  0.00    +0.000 OA
ATOM     11  C   UNL     1     110.919 126.960 135.934  0.00  0.00    +0.000 A 
ATOM     12  C   UNL     1     111.414 127.432 135.474  0.00  0.00    +0.000 A 
ATOM     13  C   UNL     1     109.887 127.943 135.833  0.00  0.00    +0.000 A 
ATOM     14  C   UNL     1     110.382 128.416 135.372  0.00  0.00    +0.000 A 
ATOM     15  C   UNL     1     111.147 128.160 135.192  0.00  0.00    +0.000 A 
ATOM     16  C   UNL     1     110.115 129.175 135.073  0.00  0.00    +0.000 A 
ATOM     17  C   UNL     1     109.090 128.199 136.026  0.00  0.00    +0.000 A 
ATOM     18  C   UNL     1     108.804 128.956 135.736  0.00  0.00    +0.000 A 
ATOM     19  C   UNL     1     109.321 129.447 135.256  0.00  0.00    +0.000 A 
ENDBRANCH   4  11
BRANCH   3  20
ATOM     20  O   UNL     1     111.990 124.050 137.064  0.00  0.00    +0.000 OA
ATOM     21  C   UNL     1     111.960 123.383 136.578  0.00  0.00    +0.000 C 
ENDBRANCH   3  20
BRANCH   1  22
ATOM     22  O   UNL     1     112.398 125.442 137.850  0.00  0.00    +0.000 OA
BRANCH  22  31
ATOM     23  O   UNL     1     111.423 125.779 138.839  0.00  0.00    +0.000 OA
ATOM     24  O   UNL     1     113.047 127.300 139.922  0.00  0.00    +0.000 OA
ATOM     25  O   UNL     1     111.531 127.130 140.550  0.00  0.00    +0.000 OA
ATOM     26  O   UNL     1     113.481 126.456 138.572  0.00  0.00    +0.000 OA
ATOM     27  C   UNL     1     112.506 126.793 139.561  0.00  0.00    +0.000 C 
ATOM     28  C   UNL     1     111.749 126.708 139.875  0.00  0.00    +0.000 C 
ATOM     29  C   UNL     1     112.723 126.371 138.886  0.00  0.00    +0.000 C 
ATOM     30  C   UNL     1     111.207 126.201 139.514  0.00  0.00    +0.000 C 
ATOM     31  C   UNL     1     112.182 125.864 138.525  0.00  0.00    +0.000 C 
BRANCH  30  33
ATOM     32  O   UNL     1     110.114 125.365 139.899  0.00  0.00    +0.000 OA
ATOM     33  C   UNL     1     110.448 126.115 139.828  0.00  0.00    +0.000 C 
ENDBRANCH  30  33
ENDBRANCH  22  31
ENDBRANCH   1  22
TORSDOF 5
ENDMDL
MODEL 8
REMARK VINA RESULT:      -8.7      2.112      4.544
REMARK  Name = 44258229
REMARK  5 active torsions:
REMARK  status: ('A' for Active; 'I' for Inactive)
REMARK    1  A    between atoms: O_2  and  C_16
REMARK    2  A    between atoms: O_2  and  C_18
REMARK    3  A    between atoms: O_7  and  C_20
REMARK    4  A    between atoms: C_15  and  C_17
REMARK    5  A    between atoms: C_21  and  C_24
REMARK                            x       y       z     vdW  Elec       q    Type
REMARK                         _______ _______ _______ _____ _____    ______ ____
ROOT
ATOM      1  C   UNL     1     112.501 128.211 139.548  0.00  0.00    +0.000 A 
ATOM      2  C   UNL     1     112.733 127.634 139.007  0.00  0.00    +0.000 A 
ATOM      3  C   UNL     1     112.389 128.011 140.341  0.00  0.00    +0.000 A 
ATOM      4  C   UNL     1     112.853 126.857 139.257  0.00  0.00    +0.000 A 
ATOM      5  C   UNL     1     112.509 127.234 140.592  0.00  0.00    +0.000 A 
ATOM      6  C   UNL     1     112.741 126.658 140.049  0.00  0.00    +0.000 A 
ENDROOT
BRANCH   4  11
ATOM      7  O   UNL     1     112.516 125.868 138.282  0.00  0.00    +0.000 OA
ATOM      8  O   UNL     1     114.919 125.376 137.950  0.00  0.00    +0.000 OA
ATOM      9  O   UNL     1     114.606 124.372 136.962  0.00  0.00    +0.000 OA
ATOM     10  O   UNL     1     111.810 123.857 136.297  0.00  0.00    +0.000 OA
ATOM     11  C   UNL     1     113.086 126.281 138.714  0.00  0.00    +0.000 A 
ATOM     12  C   UNL     1     113.886 126.117 138.604  0.00  0.00    +0.000 A 
ATOM     13  C   UNL     1     112.748 125.292 137.739  0.00  0.00    +0.000 A 
ATOM     14  C   UNL     1     113.549 125.128 137.628  0.00  0.00    +0.000 A 
ATOM     15  C   UNL     1     114.119 125.540 138.061  0.00  0.00    +0.000 A 
ATOM     16  C   UNL     1     113.803 124.530 137.066  0.00  0.00    +0.000 A 
ATOM     17  C   UNL     1     112.146 124.870 137.295  0.00  0.00    +0.000 A 
ATOM     18  C   UNL     1     112.381 124.268 136.728  0.00  0.00    +0.000 A 
ATOM     19  C   UNL     1     113.215 124.097 136.613  0.00  0.00    +0.000 A 
ENDBRANCH   4  11
BRANCH   3  20
ATOM     20  O   UNL     1     112.156 128.588 140.883  0.00  0.00    +0.000 OA
ATOM     21  C   UNL     1     112.207 128.437 141.693  0.00  0.00    +0.000 C 
ENDBRANCH   3  20
BRANCH   1  22
ATOM     22  O   UNL     1     112.380 128.987 139.298  0.00  0.00    +0.000 OA
BRANCH  22  31
ATOM     23  O   UNL     1     111.137 128.831 138.611  0.00  0.00    +0.000 OA
ATOM     24  O   UNL     1     111.993 130.218 136.749  0.00  0.00    +0.000 OA
ATOM     25  O   UNL     1     110.464 129.600 136.682  0.00  0.00    +0.000 OA
ATOM     26  O   UNL     1     112.951 129.912 138.057  0.00  0.00    +0.000 OA
ATOM     27  C   UNL     1     111.708 129.756 137.369  0.00  0.00    +0.000 C 
ATOM     28  C   UNL     1     110.944 129.447 137.336  0.00  0.00    +0.000 C 
ATOM     29  C   UNL     1     112.187 129.603 138.023  0.00  0.00    +0.000 C 
ATOM     30  C   UNL     1     110.659 128.985 137.957  0.00  0.00    +0.000 C 
ATOM     31  C   UNL     1     111.902 129.141 138.644  0.00  0.00    +0.000 C 
BRANCH  30  33
ATOM     32  O   UNL     1     109.412 128.696 138.593  0.00  0.00    +0.000 OA
ATOM     33  C   UNL     1     109.894 128.676 137.924  0.00  0.00    +0.000 C 
ENDBRANCH  30  33
ENDBRANCH  22  31
ENDBRANCH   1  22
TORSDOF 5
ENDMDL
MODEL 9
REMARK VINA RESULT:      -8.6      2.628      4.358
REMARK  Name = 44258229
REMARK  5 active torsions:
REMARK  status: ('A' for Active; 'I' for Inactive)
REMARK    1  A    between atoms: O_2  and  C_16
REMARK    2  A    between atoms: O_2  and  C_18
REMARK    3  A    between atoms: O_7  and  C_20
REMARK    4  A    between atoms: C_15  and  C_17
REMARK    5  A    between atoms: C_21  and  C_24
REMARK                            x       y       z     vdW  Elec       q    Type
REMARK                         _______ _______ _______ _____ _____    ______ ____
ROOT
ATOM      1  C   UNL     1     112.293 126.529 140.143  0.00  0.00    +0.000 A 
ATOM      2  C   UNL     1     111.971 126.238 139.441  0.00  0.00    +0.000 A 
ATOM      3  C   UNL     1     113.070 126.809 140.155  0.00  0.00    +0.000 A 
ATOM      4  C   UNL     1     112.425 126.225 138.753  0.00  0.00    +0.000 A 
ATOM      5  C   UNL     1     113.524 126.796 139.466  0.00  0.00    +0.000 A 
ATOM      6  C   UNL     1     113.201 126.504 138.765  0.00  0.00    +0.000 A 
ENDROOT
BRANCH   4  11
ATOM      7  O   UNL     1     111.728 126.447 137.524  0.00  0.00    +0.000 OA
ATOM      8  O   UNL     1     111.880 124.033 137.002  0.00  0.00    +0.000 OA
ATOM      9  O   UNL     1     111.178 124.229 135.756  0.00  0.00    +0.000 OA
ATOM     10  O   UNL     1     110.307 126.920 135.027  0.00  0.00    +0.000 OA
ATOM     11  C   UNL     1     112.102 125.933 138.052  0.00  0.00    +0.000 A 
ATOM     12  C   UNL     1     112.152 125.129 137.877  0.00  0.00    +0.000 A 
ATOM     13  C   UNL     1     111.405 126.156 136.824  0.00  0.00    +0.000 A 
ATOM     14  C   UNL     1     111.455 125.351 136.649  0.00  0.00    +0.000 A 
ATOM     15  C   UNL     1     111.829 124.837 137.176  0.00  0.00    +0.000 A 
ATOM     16  C   UNL     1     111.123 125.036 135.923  0.00  0.00    +0.000 A 
ATOM     17  C   UNL     1     111.018 126.701 136.284  0.00  0.00    +0.000 A 
ATOM     18  C   UNL     1     110.680 126.404 135.551  0.00  0.00    +0.000 A 
ATOM     19  C   UNL     1     110.732 125.565 135.370  0.00  0.00    +0.000 A 
ENDBRANCH   4  11
BRANCH   3  20
ATOM     20  O   UNL     1     113.391 127.100 140.856  0.00  0.00    +0.000 OA
ATOM     21  C   UNL     1     114.203 127.244 140.909  0.00  0.00    +0.000 C 
ENDBRANCH   3  20
BRANCH   1  22
ATOM     22  O   UNL     1     111.839 126.542 140.830  0.00  0.00    +0.000 OA
BRANCH  22  31
ATOM     23  O   UNL     1     110.912 127.574 140.487  0.00  0.00    +0.000 OA
ATOM     24  O   UNL     1     109.057 126.211 141.396  0.00  0.00    +0.000 OA
ATOM     25  O   UNL     1     108.749 127.698 140.750  0.00  0.00    +0.000 OA
ATOM     26  O   UNL     1     110.603 125.633 141.436  0.00  0.00    +0.000 OA
ATOM     27  C   UNL     1     109.676 126.665 141.093  0.00  0.00    +0.000 C 
ATOM     28  C   UNL     1     109.522 127.408 140.770  0.00  0.00    +0.000 C 
ATOM     29  C   UNL     1     110.448 126.376 141.113  0.00  0.00    +0.000 C 
ATOM     30  C   UNL     1     110.140 127.863 140.467  0.00  0.00    +0.000 C 
ATOM     31  C   UNL     1     111.067 126.830 140.811  0.00  0.00    +0.000 C 
BRANCH  30  33
ATOM     32  O   UNL     1     110.486 129.241 140.313  0.00  0.00    +0.000 OA
ATOM     33  C   UNL     1     109.986 128.607 140.144  0.00  0.00    +0.000 C 
ENDBRANCH  30  33
ENDBRANCH  22  31
ENDBRANCH   1  22
TORSDOF 5
ENDMDL
