MODEL 1
REMARK VINA RESULT:      -9.6      0.000      0.000
REMARK  Name = 44258406
REMARK  3 active torsions:
REMARK  status: ('A' for Active; 'I' for Inactive)
REMARK    1  A    between atoms: O_2  and  C_14
REMARK    2  A    between atoms: O_2  and  C_16
REMARK    3  A    between atoms: C_23  and  C_25
REMARK                            x       y       z     vdW  Elec       q    Type
REMARK                         _______ _______ _______ _____ _____    ______ ____
ROOT
ATOM      1  O   UNL     1     111.014 125.969 136.795  0.00  0.00    +0.000 OA
ATOM      2  O   UNL     1     108.381 127.862 136.017  0.00  0.00    +0.000 OA
ATOM      3  O   UNL     1     108.844 126.645 135.004  0.00  0.00    +0.000 OA
ATOM      4  O   UNL     1     109.719 125.551 134.659  0.00  0.00    +0.000 OA
ATOM      5  C   UNL     1     109.452 127.530 136.904  0.00  0.00    +0.000 A 
ATOM      6  C   UNL     1     110.103 127.060 137.093  0.00  0.00    +0.000 A 
ATOM      7  C   UNL     1     109.032 127.391 136.207  0.00  0.00    +0.000 A 
ATOM      8  C   UNL     1     110.334 126.451 136.586  0.00  0.00    +0.000 A 
ATOM      9  C   UNL     1     109.914 126.313 135.890  0.00  0.00    +0.000 A 
ATOM     10  C   UNL     1     109.263 126.783 135.700  0.00  0.00    +0.000 A 
ATOM     11  C   UNL     1     110.145 125.682 135.354  0.00  0.00    +0.000 A 
ATOM     12  C   UNL     1     111.260 125.333 136.272  0.00  0.00    +0.000 A 
ATOM     13  C   UNL     1     110.822 125.189 135.545  0.00  0.00    +0.000 A 
ENDROOT
BRANCH  12  14
ATOM     14  C   UNL     1     111.911 124.865 136.464  0.00  0.00    +0.000 A 
ATOM     15  C   UNL     1     112.675 125.156 136.356  0.00  0.00    +0.000 A 
ATOM     16  C   UNL     1     111.798 124.105 136.764  0.00  0.00    +0.000 A 
ATOM     17  C   UNL     1     113.326 124.688 136.548  0.00  0.00    +0.000 A 
ATOM     18  C   UNL     1     112.448 123.636 136.957  0.00  0.00    +0.000 A 
ATOM     19  C   UNL     1     113.213 123.927 136.849  0.00  0.00    +0.000 A 
ENDBRANCH  12  14
BRANCH   5  20
ATOM     20  O   UNL     1     109.221 128.139 137.411  0.00  0.00    +0.000 OA
BRANCH  20  29
ATOM     21  O   UNL     1     110.249 129.076 137.083  0.00  0.00    +0.000 OA
ATOM     22  O   UNL     1     110.446 129.694 139.471  0.00  0.00    +0.000 OA
ATOM     23  O   UNL     1     111.409 130.425 138.348  0.00  0.00    +0.000 OA
ATOM     24  O   UNL     1     109.352 128.551 139.003  0.00  0.00    +0.000 OA
ATOM     25  C   UNL     1     110.381 129.488 138.675  0.00  0.00    +0.000 C 
ATOM     26  C   UNL     1     110.861 129.853 138.113  0.00  0.00    +0.000 C 
ATOM     27  C   UNL     1     109.834 128.917 138.440  0.00  0.00    +0.000 C 
ATOM     28  C   UNL     1     110.796 129.647 137.317  0.00  0.00    +0.000 C 
ATOM     29  C   UNL     1     109.768 128.710 137.644  0.00  0.00    +0.000 C 
ATOM     30  C   UNL     1     111.277 130.012 136.755  0.00  0.00    +0.000 C 
ENDBRANCH  20  29
ENDBRANCH   5  20
TORSDOF 3
ENDMDL
MODEL 2
REMARK VINA RESULT:      -9.6      9.441     11.145
REMARK  Name = 44258406
REMARK  3 active torsions:
REMARK  status: ('A' for Active; 'I' for Inactive)
REMARK    1  A    between atoms: O_2  and  C_14
REMARK    2  A    between atoms: O_2  and  C_16
REMARK    3  A    between atoms: C_23  and  C_25
REMARK                            x       y       z     vdW  Elec       q    Type
REMARK                         _______ _______ _______ _____ _____    ______ ____
ROOT
ATOM      1  O   UNL     1     104.165 124.518 145.876  0.00  0.00    +0.000 OA
ATOM      2  O   UNL     1     107.297 125.597 146.254  0.00  0.00    +0.000 OA
ATOM      3  O   UNL     1     106.461 125.035 147.560  0.00  0.00    +0.000 OA
ATOM      4  O   UNL     1     105.268 124.482 148.155  0.00  0.00    +0.000 OA
ATOM      5  C   UNL     1     106.165 125.342 145.420  0.00  0.00    +0.000 A 
ATOM      6  C   UNL     1     105.390 125.075 145.330  0.00  0.00    +0.000 A 
ATOM      7  C   UNL     1     106.522 125.329 146.164  0.00  0.00    +0.000 A 
ATOM      8  C   UNL     1     104.972 124.794 145.983  0.00  0.00    +0.000 A 
ATOM      9  C   UNL     1     105.329 124.781 146.727  0.00  0.00    +0.000 A 
ATOM     10  C   UNL     1     106.104 125.048 146.817  0.00  0.00    +0.000 A 
ATOM     11  C   UNL     1     104.903 124.491 147.414  0.00  0.00    +0.000 A 
ATOM     12  C   UNL     1     103.724 124.225 146.553  0.00  0.00    +0.000 A 
ATOM     13  C   UNL     1     104.096 124.211 147.328  0.00  0.00    +0.000 A 
ENDROOT
BRANCH  12  14
ATOM     14  C   UNL     1     102.949 123.958 146.459  0.00  0.00    +0.000 A 
ATOM     15  C   UNL     1     102.319 124.415 146.734  0.00  0.00    +0.000 A 
ATOM     16  C   UNL     1     102.803 123.234 146.092  0.00  0.00    +0.000 A 
ATOM     17  C   UNL     1     101.544 124.148 146.641  0.00  0.00    +0.000 A 
ATOM     18  C   UNL     1     102.029 122.966 145.999  0.00  0.00    +0.000 A 
ATOM     19  C   UNL     1     101.399 123.424 146.273  0.00  0.00    +0.000 A 
ENDBRANCH  12  14
BRANCH   5  20
ATOM     20  O   UNL     1     106.583 125.623 144.766  0.00  0.00    +0.000 OA
BRANCH  20  29
ATOM     21  O   UNL     1     105.939 126.890 144.626  0.00  0.00    +0.000 OA
ATOM     22  O   UNL     1     105.900 126.598 142.168  0.00  0.00    +0.000 OA
ATOM     23  O   UNL     1     105.268 127.963 142.847  0.00  0.00    +0.000 OA
ATOM     24  O   UNL     1     106.558 125.428 143.128  0.00  0.00    +0.000 OA
ATOM     25  C   UNL     1     105.913 126.695 142.987  0.00  0.00    +0.000 C 
ATOM     26  C   UNL     1     105.597 127.377 143.327  0.00  0.00    +0.000 C 
ATOM     27  C   UNL     1     106.241 126.111 143.468  0.00  0.00    +0.000 C 
ATOM     28  C   UNL     1     105.610 127.475 144.146  0.00  0.00    +0.000 C 
ATOM     29  C   UNL     1     106.254 126.208 144.287  0.00  0.00    +0.000 C 
ATOM     30  C   UNL     1     105.294 128.158 144.485  0.00  0.00    +0.000 C 
ENDBRANCH  20  29
ENDBRANCH   5  20
TORSDOF 3
ENDMDL
MODEL 3
REMARK VINA RESULT:      -9.4      1.253      1.996
REMARK  Name = 44258406
REMARK  3 active torsions:
REMARK  status: ('A' for Active; 'I' for Inactive)
REMARK    1  A    between atoms: O_2  and  C_14
REMARK    2  A    between atoms: O_2  and  C_16
REMARK    3  A    between atoms: C_23  and  C_25
REMARK                            x       y       z     vdW  Elec       q    Type
REMARK                         _______ _______ _______ _____ _____    ______ ____
ROOT
ATOM      1  O   UNL     1     112.431 126.405 136.340  0.00  0.00    +0.000 OA
ATOM      2  O   UNL     1     109.502 127.104 134.909  0.00  0.00    +0.000 OA
ATOM      3  O   UNL     1     109.924 125.533 135.186  0.00  0.00    +0.000 OA
ATOM      4  O   UNL     1     110.850 124.541 135.676  0.00  0.00    +0.000 OA
ATOM      5  C   UNL     1     110.739 127.537 135.478  0.00  0.00    +0.000 A 
ATOM      6  C   UNL     1     111.463 127.360 135.831  0.00  0.00    +0.000 A 
ATOM      7  C   UNL     1     110.226 126.927 135.262  0.00  0.00    +0.000 A 
ATOM      8  C   UNL     1     111.674 126.575 135.970  0.00  0.00    +0.000 A 
ATOM      9  C   UNL     1     111.161 125.966 135.755  0.00  0.00    +0.000 A 
ATOM     10  C   UNL     1     110.437 126.142 135.401  0.00  0.00    +0.000 A 
ATOM     11  C   UNL     1     111.370 125.145 135.895  0.00  0.00    +0.000 A 
ATOM     12  C   UNL     1     112.657 125.589 136.487  0.00  0.00    +0.000 A 
ATOM     13  C   UNL     1     112.122 124.954 136.263  0.00  0.00    +0.000 A 
ENDROOT
BRANCH  12  14
ATOM     14  C   UNL     1     113.382 125.416 136.841  0.00  0.00    +0.000 A 
ATOM     15  C   UNL     1     114.000 125.112 136.388  0.00  0.00    +0.000 A 
ATOM     16  C   UNL     1     113.488 125.547 137.649  0.00  0.00    +0.000 A 
ATOM     17  C   UNL     1     114.725 124.938 136.742  0.00  0.00    +0.000 A 
ATOM     18  C   UNL     1     114.212 125.374 138.003  0.00  0.00    +0.000 A 
ATOM     19  C   UNL     1     114.831 125.070 137.550  0.00  0.00    +0.000 A 
ENDBRANCH  12  14
BRANCH   5  20
ATOM     20  O   UNL     1     110.528 128.323 135.339  0.00  0.00    +0.000 OA
BRANCH  20  29
ATOM     21  O   UNL     1     110.169 128.688 136.673  0.00  0.00    +0.000 OA
ATOM     22  O   UNL     1     111.312 130.864 136.384  0.00  0.00    +0.000 OA
ATOM     23  O   UNL     1     110.572 130.504 137.814  0.00  0.00    +0.000 OA
ATOM     24  O   UNL     1     111.291 129.773 135.147  0.00  0.00    +0.000 OA
ATOM     25  C   UNL     1     110.931 130.139 136.480  0.00  0.00    +0.000 C 
ATOM     26  C   UNL     1     110.561 129.958 137.195  0.00  0.00    +0.000 C 
ATOM     27  C   UNL     1     110.920 129.593 135.862  0.00  0.00    +0.000 C 
ATOM     28  C   UNL     1     110.179 129.233 137.291  0.00  0.00    +0.000 C 
ATOM     29  C   UNL     1     110.539 128.868 135.958  0.00  0.00    +0.000 C 
ATOM     30  C   UNL     1     109.809 129.054 138.006  0.00  0.00    +0.000 C 
ENDBRANCH  20  29
ENDBRANCH   5  20
TORSDOF 3
ENDMDL
MODEL 4
REMARK VINA RESULT:      -9.4      6.250      8.505
REMARK  Name = 44258406
REMARK  3 active torsions:
REMARK  status: ('A' for Active; 'I' for Inactive)
REMARK    1  A    between atoms: O_2  and  C_14
REMARK    2  A    between atoms: O_2  and  C_16
REMARK    3  A    between atoms: C_23  and  C_25
REMARK                            x       y       z     vdW  Elec       q    Type
REMARK                         _______ _______ _______ _____ _____    ______ ____
ROOT
ATOM      1  O   UNL     1     105.198 126.865 141.860  0.00  0.00    +0.000 OA
ATOM      2  O   UNL     1     107.559 124.533 141.540  0.00  0.00    +0.000 OA
ATOM      3  O   UNL     1     107.987 126.094 141.862  0.00  0.00    +0.000 OA
ATOM      4  O   UNL     1     107.644 127.473 142.108  0.00  0.00    +0.000 OA
ATOM      5  C   UNL     1     106.181 124.911 141.538  0.00  0.00    +0.000 A 
ATOM      6  C   UNL     1     105.600 125.491 141.618  0.00  0.00    +0.000 A 
ATOM      7  C   UNL     1     106.978 125.112 141.620  0.00  0.00    +0.000 A 
ATOM      8  C   UNL     1     105.814 126.271 141.779  0.00  0.00    +0.000 A 
ATOM      9  C   UNL     1     106.609 126.472 141.861  0.00  0.00    +0.000 A 
ATOM     10  C   UNL     1     107.192 125.893 141.781  0.00  0.00    +0.000 A 
ATOM     11  C   UNL     1     106.844 127.281 142.028  0.00  0.00    +0.000 A 
ATOM     12  C   UNL     1     105.414 127.679 142.028  0.00  0.00    +0.000 A 
ATOM     13  C   UNL     1     106.244 127.889 142.113  0.00  0.00    +0.000 A 
ENDROOT
BRANCH  12  14
ATOM     14  C   UNL     1     104.830 128.257 142.107  0.00  0.00    +0.000 A 
ATOM     15  C   UNL     1     104.348 128.447 141.464  0.00  0.00    +0.000 A 
ATOM     16  C   UNL     1     104.727 128.643 142.828  0.00  0.00    +0.000 A 
ATOM     17  C   UNL     1     103.764 129.025 141.543  0.00  0.00    +0.000 A 
ATOM     18  C   UNL     1     104.143 129.220 142.908  0.00  0.00    +0.000 A 
ATOM     19  C   UNL     1     103.662 129.411 142.266  0.00  0.00    +0.000 A 
ENDBRANCH  12  14
BRANCH   5  20
ATOM     20  O   UNL     1     105.967 124.131 141.377  0.00  0.00    +0.000 OA
BRANCH  20  29
ATOM     21  O   UNL     1     105.531 124.332 140.031  0.00  0.00    +0.000 OA
ATOM     22  O   UNL     1     103.672 122.739 140.395  0.00  0.00    +0.000 OA
ATOM     23  O   UNL     1     103.855 123.472 138.928  0.00  0.00    +0.000 OA
ATOM     24  O   UNL     1     104.728 123.069 141.620  0.00  0.00    +0.000 OA
ATOM     25  C   UNL     1     104.292 123.270 140.274  0.00  0.00    +0.000 C 
ATOM     26  C   UNL     1     104.384 123.637 139.541  0.00  0.00    +0.000 C 
ATOM     27  C   UNL     1     104.820 123.435 140.886  0.00  0.00    +0.000 C 
ATOM     28  C   UNL     1     105.003 124.168 139.420  0.00  0.00    +0.000 C 
ATOM     29  C   UNL     1     105.440 123.966 140.764  0.00  0.00    +0.000 C 
ATOM     30  C   UNL     1     105.095 124.534 138.686  0.00  0.00    +0.000 C 
ENDBRANCH  20  29
ENDBRANCH   5  20
TORSDOF 3
ENDMDL
MODEL 5
REMARK VINA RESULT:      -9.3      1.999      2.589
REMARK  Name = 44258406
REMARK  3 active torsions:
REMARK  status: ('A' for Active; 'I' for Inactive)
REMARK    1  A    between atoms: O_2  and  C_14
REMARK    2  A    between atoms: O_2  and  C_16
REMARK    3  A    between atoms: C_23  and  C_25
REMARK                            x       y       z     vdW  Elec       q    Type
REMARK                         _______ _______ _______ _____ _____    ______ ____
ROOT
ATOM      1  O   UNL     1     111.984 126.557 136.347  0.00  0.00    +0.000 OA
ATOM      2  O   UNL     1     110.600 129.314 135.082  0.00  0.00    +0.000 OA
ATOM      3  O   UNL     1     110.050 127.831 134.612  0.00  0.00    +0.000 OA
ATOM      4  O   UNL     1     110.094 126.390 134.669  0.00  0.00    +0.000 OA
ATOM      5  C   UNL     1     111.556 128.688 135.940  0.00  0.00    +0.000 A 
ATOM      6  C   UNL     1     111.896 128.003 136.251  0.00  0.00    +0.000 A 
ATOM      7  C   UNL     1     110.940 128.630 135.393  0.00  0.00    +0.000 A 
ATOM      8  C   UNL     1     111.621 127.262 136.015  0.00  0.00    +0.000 A 
ATOM      9  C   UNL     1     111.006 127.205 135.469  0.00  0.00    +0.000 A 
ATOM     10  C   UNL     1     110.665 127.888 135.158  0.00  0.00    +0.000 A 
ATOM     11  C   UNL     1     110.711 126.438 135.217  0.00  0.00    +0.000 A 
ATOM     12  C   UNL     1     111.703 125.782 136.106  0.00  0.00    +0.000 A 
ATOM     13  C   UNL     1     111.061 125.722 135.536  0.00  0.00    +0.000 A 
ENDROOT
BRANCH  12  14
ATOM     14  C   UNL     1     112.045 125.099 136.419  0.00  0.00    +0.000 A 
ATOM     15  C   UNL     1     112.828 124.911 136.240  0.00  0.00    +0.000 A 
ATOM     16  C   UNL     1     111.605 124.605 136.911  0.00  0.00    +0.000 A 
ATOM     17  C   UNL     1     113.171 124.229 136.552  0.00  0.00    +0.000 A 
ATOM     18  C   UNL     1     111.946 123.923 137.224  0.00  0.00    +0.000 A 
ATOM     19  C   UNL     1     112.729 123.735 137.045  0.00  0.00    +0.000 A 
ENDBRANCH  12  14
BRANCH   5  20
ATOM     20  O   UNL     1     111.831 129.429 136.175  0.00  0.00    +0.000 OA
BRANCH  20  29
ATOM     21  O   UNL     1     113.040 129.454 135.414  0.00  0.00    +0.000 OA
ATOM     22  O   UNL     1     114.230 130.460 137.337  0.00  0.00    +0.000 OA
ATOM     23  O   UNL     1     115.043 130.149 135.935  0.00  0.00    +0.000 OA
ATOM     24  O   UNL     1     112.624 130.100 137.457  0.00  0.00    +0.000 OA
ATOM     25  C   UNL     1     113.833 130.124 136.696  0.00  0.00    +0.000 C 
ATOM     26  C   UNL     1     114.239 129.969 135.995  0.00  0.00    +0.000 C 
ATOM     27  C   UNL     1     113.031 129.944 136.755  0.00  0.00    +0.000 C 
ATOM     28  C   UNL     1     113.843 129.634 135.354  0.00  0.00    +0.000 C 
ATOM     29  C   UNL     1     112.634 129.609 136.114  0.00  0.00    +0.000 C 
ATOM     30  C   UNL     1     114.250 129.479 134.653  0.00  0.00    +0.000 C 
ENDBRANCH  20  29
ENDBRANCH   5  20
TORSDOF 3
ENDMDL
MODEL 6
REMARK VINA RESULT:      -9.3      9.012     11.094
REMARK  Name = 44258406
REMARK  3 active torsions:
REMARK  status: ('A' for Active; 'I' for Inactive)
REMARK    1  A    between atoms: O_2  and  C_14
REMARK    2  A    between atoms: O_2  and  C_16
REMARK    3  A    between atoms: C_23  and  C_25
REMARK                            x       y       z     vdW  Elec       q    Type
REMARK                         _______ _______ _______ _____ _____    ______ ____
ROOT
ATOM      1  O   UNL     1     105.307 126.549 144.317  0.00  0.00    +0.000 OA
ATOM      2  O   UNL     1     106.652 124.785 146.807  0.00  0.00    +0.000 OA
ATOM      3  O   UNL     1     107.305 126.242 146.388  0.00  0.00    +0.000 OA
ATOM      4  O   UNL     1     107.324 127.430 145.569  0.00  0.00    +0.000 OA
ATOM      5  C   UNL     1     105.665 124.934 145.785  0.00  0.00    +0.000 A 
ATOM      6  C   UNL     1     105.334 125.373 145.170  0.00  0.00    +0.000 A 
ATOM      7  C   UNL     1     106.322 125.224 146.191  0.00  0.00    +0.000 A 
ATOM      8  C   UNL     1     105.661 126.101 144.960  0.00  0.00    +0.000 A 
ATOM      9  C   UNL     1     106.317 126.391 145.366  0.00  0.00    +0.000 A 
ATOM     10  C   UNL     1     106.649 125.952 145.982  0.00  0.00    +0.000 A 
ATOM     11  C   UNL     1     106.666 127.147 145.157  0.00  0.00    +0.000 A 
ATOM     12  C   UNL     1     105.642 127.308 144.094  0.00  0.00    +0.000 A 
ATOM     13  C   UNL     1     106.327 127.609 144.518  0.00  0.00    +0.000 A 
ENDROOT
BRANCH  12  14
ATOM     14  C   UNL     1     105.309 127.744 143.478  0.00  0.00    +0.000 A 
ATOM     15  C   UNL     1     104.903 128.444 143.641  0.00  0.00    +0.000 A 
ATOM     16  C   UNL     1     105.382 127.481 142.700  0.00  0.00    +0.000 A 
ATOM     17  C   UNL     1     104.570 128.880 143.025  0.00  0.00    +0.000 A 
ATOM     18  C   UNL     1     105.050 127.917 142.084  0.00  0.00    +0.000 A 
ATOM     19  C   UNL     1     104.644 128.616 142.246  0.00  0.00    +0.000 A 
ENDBRANCH  12  14
BRANCH   5  20
ATOM     20  O   UNL     1     105.338 124.206 145.995  0.00  0.00    +0.000 OA
BRANCH  20  29
ATOM     21  O   UNL     1     104.219 124.698 146.734  0.00  0.00    +0.000 OA
ATOM     22  O   UNL     1     102.796 122.921 145.762  0.00  0.00    +0.000 OA
ATOM     23  O   UNL     1     102.151 124.005 146.825  0.00  0.00    +0.000 OA
ATOM     24  O   UNL     1     104.390 123.022 145.346  0.00  0.00    +0.000 OA
ATOM     25  C   UNL     1     103.270 123.514 146.086  0.00  0.00    +0.000 C 
ATOM     26  C   UNL     1     102.948 124.056 146.618  0.00  0.00    +0.000 C 
ATOM     27  C   UNL     1     104.067 123.564 145.879  0.00  0.00    +0.000 C 
ATOM     28  C   UNL     1     103.422 124.648 146.942  0.00  0.00    +0.000 C 
ATOM     29  C   UNL     1     104.541 124.156 146.203  0.00  0.00    +0.000 C 
ATOM     30  C   UNL     1     103.099 125.190 147.473  0.00  0.00    +0.000 C 
ENDBRANCH  20  29
ENDBRANCH   5  20
TORSDOF 3
ENDMDL
MODEL 7
REMARK VINA RESULT:      -9.3     11.589     12.981
REMARK  Name = 44258406
REMARK  3 active torsions:
REMARK  status: ('A' for Active; 'I' for Inactive)
REMARK    1  A    between atoms: O_2  and  C_14
REMARK    2  A    between atoms: O_2  and  C_16
REMARK    3  A    between atoms: C_23  and  C_25
REMARK                            x       y       z     vdW  Elec       q    Type
REMARK                         _______ _______ _______ _____ _____    ______ ____
ROOT
ATOM      1  O   UNL     1     102.912 123.688 147.585  0.00  0.00    +0.000 OA
ATOM      2  O   UNL     1     104.790 123.681 144.830  0.00  0.00    +0.000 OA
ATOM      3  O   UNL     1     103.238 123.124 144.766  0.00  0.00    +0.000 OA
ATOM      4  O   UNL     1     101.972 122.833 145.395  0.00  0.00    +0.000 OA
ATOM      5  C   UNL     1     104.632 123.961 146.222  0.00  0.00    +0.000 A 
ATOM      6  C   UNL     1     104.164 123.961 146.902  0.00  0.00    +0.000 A 
ATOM      7  C   UNL     1     104.322 123.682 145.510  0.00  0.00    +0.000 A 
ATOM      8  C   UNL     1     103.389 123.683 146.870  0.00  0.00    +0.000 A 
ATOM      9  C   UNL     1     103.080 123.404 146.158  0.00  0.00    +0.000 A 
ATOM     10  C   UNL     1     103.547 123.403 145.478  0.00  0.00    +0.000 A 
ATOM     11  C   UNL     1     102.274 123.111 146.112  0.00  0.00    +0.000 A 
ATOM     12  C   UNL     1     102.104 123.400 147.559  0.00  0.00    +0.000 A 
ATOM     13  C   UNL     1     101.782 123.109 146.816  0.00  0.00    +0.000 A 
ENDROOT
BRANCH  12  14
ATOM     14  C   UNL     1     101.639 123.401 148.241  0.00  0.00    +0.000 A 
ATOM     15  C   UNL     1     101.187 124.065 148.430  0.00  0.00    +0.000 A 
ATOM     16  C   UNL     1     101.626 122.739 148.733  0.00  0.00    +0.000 A 
ATOM     17  C   UNL     1     100.723 124.066 149.112  0.00  0.00    +0.000 A 
ATOM     18  C   UNL     1     101.162 122.740 149.414  0.00  0.00    +0.000 A 
ATOM     19  C   UNL     1     100.710 123.404 149.604  0.00  0.00    +0.000 A 
ENDBRANCH  12  14
BRANCH   5  20
ATOM     20  O   UNL     1     105.408 124.240 146.255  0.00  0.00    +0.000 OA
BRANCH  20  29
ATOM     21  O   UNL     1     105.158 125.640 146.393  0.00  0.00    +0.000 OA
ATOM     22  O   UNL     1     106.890 125.773 148.157  0.00  0.00    +0.000 OA
ATOM     23  O   UNL     1     106.064 127.129 147.708  0.00  0.00    +0.000 OA
ATOM     24  O   UNL     1     106.562 124.328 147.430  0.00  0.00    +0.000 OA
ATOM     25  C   UNL     1     106.313 125.729 147.569  0.00  0.00    +0.000 C 
ATOM     26  C   UNL     1     105.899 126.406 147.344  0.00  0.00    +0.000 C 
ATOM     27  C   UNL     1     106.148 125.007 147.205  0.00  0.00    +0.000 C 
ATOM     28  C   UNL     1     105.322 126.362 146.756  0.00  0.00    +0.000 C 
ATOM     29  C   UNL     1     105.571 124.962 146.618  0.00  0.00    +0.000 C 
ATOM     30  C   UNL     1     104.909 127.040 146.532  0.00  0.00    +0.000 C 
ENDBRANCH  20  29
ENDBRANCH   5  20
TORSDOF 3
ENDMDL
MODEL 8
REMARK VINA RESULT:      -9.2      1.964      2.899
REMARK  Name = 44258406
REMARK  3 active torsions:
REMARK  status: ('A' for Active; 'I' for Inactive)
REMARK    1  A    between atoms: O_2  and  C_14
REMARK    2  A    between atoms: O_2  and  C_16
REMARK    3  A    between atoms: C_23  and  C_25
REMARK                            x       y       z     vdW  Elec       q    Type
REMARK                         _______ _______ _______ _____ _____    ______ ____
ROOT
ATOM      1  O   UNL     1     111.348 126.528 137.711  0.00  0.00    +0.000 OA
ATOM      2  O   UNL     1     109.883 125.434 134.923  0.00  0.00    +0.000 OA
ATOM      3  O   UNL     1     111.132 124.580 135.582  0.00  0.00    +0.000 OA
ATOM      4  O   UNL     1     112.139 124.395 136.599  0.00  0.00    +0.000 OA
ATOM      5  C   UNL     1     109.988 126.398 135.973  0.00  0.00    +0.000 A 
ATOM      6  C   UNL     1     110.353 126.665 136.663  0.00  0.00    +0.000 A 
ATOM      7  C   UNL     1     110.248 125.702 135.613  0.00  0.00    +0.000 A 
ATOM      8  C   UNL     1     110.977 126.238 136.992  0.00  0.00    +0.000 A 
ATOM      9  C   UNL     1     111.237 125.544 136.632  0.00  0.00    +0.000 A 
ATOM     10  C   UNL     1     110.872 125.275 135.942  0.00  0.00    +0.000 A 
ATOM     11  C   UNL     1     111.886 125.090 136.966  0.00  0.00    +0.000 A 
ATOM     12  C   UNL     1     111.999 126.089 138.059  0.00  0.00    +0.000 A 
ATOM     13  C   UNL     1     112.270 125.364 137.684  0.00  0.00    +0.000 A 
ENDROOT
BRANCH  12  14
ATOM     14  C   UNL     1     112.361 126.359 138.749  0.00  0.00    +0.000 A 
ATOM     15  C   UNL     1     111.948 126.350 139.463  0.00  0.00    +0.000 A 
ATOM     16  C   UNL     1     113.137 126.639 138.725  0.00  0.00    +0.000 A 
ATOM     17  C   UNL     1     112.311 126.621 140.153  0.00  0.00    +0.000 A 
ATOM     18  C   UNL     1     113.500 126.909 139.414  0.00  0.00    +0.000 A 
ATOM     19  C   UNL     1     113.087 126.900 140.128  0.00  0.00    +0.000 A 
ENDBRANCH  12  14
BRANCH   5  20
ATOM     20  O   UNL     1     109.364 126.825 135.643  0.00  0.00    +0.000 OA
BRANCH  20  29
ATOM     21  O   UNL     1     110.125 127.919 135.128  0.00  0.00    +0.000 OA
ATOM     22  O   UNL     1     108.340 129.487 135.822  0.00  0.00    +0.000 OA
ATOM     23  O   UNL     1     109.696 130.058 135.075  0.00  0.00    +0.000 OA
ATOM     24  O   UNL     1     108.174 127.870 136.106  0.00  0.00    +0.000 OA
ATOM     25  C   UNL     1     108.935 128.964 135.590  0.00  0.00    +0.000 C 
ATOM     26  C   UNL     1     109.613 129.249 135.217  0.00  0.00    +0.000 C 
ATOM     27  C   UNL     1     108.852 128.156 135.732  0.00  0.00    +0.000 C 
ATOM     28  C   UNL     1     110.208 128.727 134.986  0.00  0.00    +0.000 C 
ATOM     29  C   UNL     1     109.447 127.633 135.501  0.00  0.00    +0.000 C 
ATOM     30  C   UNL     1     110.886 129.013 134.613  0.00  0.00    +0.000 C 
ENDBRANCH  20  29
ENDBRANCH   5  20
TORSDOF 3
ENDMDL
MODEL 9
REMARK VINA RESULT:      -9.2      2.162      4.261
REMARK  Name = 44258406
REMARK  3 active torsions:
REMARK  status: ('A' for Active; 'I' for Inactive)
REMARK    1  A    between atoms: O_2  and  C_14
REMARK    2  A    between atoms: O_2  and  C_16
REMARK    3  A    between atoms: C_23  and  C_25
REMARK                            x       y       z     vdW  Elec       q    Type
REMARK                         _______ _______ _______ _____ _____    ______ ____
ROOT
ATOM      1  O   UNL     1     112.460 128.177 135.518  0.00  0.00    +0.000 OA
ATOM      2  O   UNL     1     109.448 126.844 134.995  0.00  0.00    +0.000 OA
ATOM      3  O   UNL     1     109.707 128.440 134.665  0.00  0.00    +0.000 OA
ATOM      4  O   UNL     1     110.566 129.598 134.618  0.00  0.00    +0.000 OA
ATOM      5  C   UNL     1     110.807 126.711 135.416  0.00  0.00    +0.000 A 
ATOM      6  C   UNL     1     111.551 127.044 135.545  0.00  0.00    +0.000 A 
ATOM      7  C   UNL     1     110.192 127.177 135.123  0.00  0.00    +0.000 A 
ATOM      8  C   UNL     1     111.680 127.842 135.380  0.00  0.00    +0.000 A 
ATOM      9  C   UNL     1     111.065 128.307 135.087  0.00  0.00    +0.000 A 
ATOM     10  C   UNL     1     110.321 127.975 134.958  0.00  0.00    +0.000 A 
ATOM     11  C   UNL     1     111.188 129.139 134.911  0.00  0.00    +0.000 A 
ATOM     12  C   UNL     1     112.601 129.007 135.348  0.00  0.00    +0.000 A 
ATOM     13  C   UNL     1     111.959 129.492 135.042  0.00  0.00    +0.000 A 
ENDROOT
BRANCH  12  14
ATOM     14  C   UNL     1     113.346 129.337 135.477  0.00  0.00    +0.000 A 
ATOM     15  C   UNL     1     113.927 129.284 134.894  0.00  0.00    +0.000 A 
ATOM     16  C   UNL     1     113.509 129.720 136.190  0.00  0.00    +0.000 A 
ATOM     17  C   UNL     1     114.672 129.614 135.024  0.00  0.00    +0.000 A 
ATOM     18  C   UNL     1     114.254 130.050 136.320  0.00  0.00    +0.000 A 
ATOM     19  C   UNL     1     114.835 129.997 135.737  0.00  0.00    +0.000 A 
ENDBRANCH  12  14
BRANCH   5  20
ATOM     20  O   UNL     1     110.678 125.913 135.581  0.00  0.00    +0.000 OA
BRANCH  20  29
ATOM     21  O   UNL     1     110.574 126.017 137.003  0.00  0.00    +0.000 OA
ATOM     22  O   UNL     1     111.868 123.921 137.250  0.00  0.00    +0.000 OA
ATOM     23  O   UNL     1     111.333 124.724 138.589  0.00  0.00    +0.000 OA
ATOM     24  O   UNL     1     111.541 124.516 135.746  0.00  0.00    +0.000 OA
ATOM     25  C   UNL     1     111.437 124.620 137.168  0.00  0.00    +0.000 C 
ATOM     26  C   UNL     1     111.169 125.021 137.837  0.00  0.00    +0.000 C 
ATOM     27  C   UNL     1     111.273 124.918 136.416  0.00  0.00    +0.000 C 
ATOM     28  C   UNL     1     110.738 125.720 137.754  0.00  0.00    +0.000 C 
ATOM     29  C   UNL     1     110.841 125.616 136.334  0.00  0.00    +0.000 C 
ATOM     30  C   UNL     1     110.470 126.121 138.424  0.00  0.00    +0.000 C 
ENDBRANCH  20  29
ENDBRANCH   5  20
TORSDOF 3
ENDMDL
MODEL 10
REMARK VINA RESULT:      -9.1      2.247      3.246
REMARK  Name = 44258406
REMARK  3 active torsions:
REMARK  status: ('A' for Active; 'I' for Inactive)
REMARK    1  A    between atoms: O_2  and  C_14
REMARK    2  A    between atoms: O_2  and  C_16
REMARK    3  A    between atoms: C_23  and  C_25
REMARK                            x       y       z     vdW  Elec       q    Type
REMARK                         _______ _______ _______ _____ _____    ______ ____
ROOT
ATOM      1  O   UNL     1     113.500 127.357 137.056  0.00  0.00    +0.000 OA
ATOM      2  O   UNL     1     111.544 129.996 136.486  0.00  0.00    +0.000 OA
ATOM      3  O   UNL     1     111.149 128.529 135.843  0.00  0.00    +0.000 OA
ATOM      4  O   UNL     1     111.412 127.124 135.643  0.00  0.00    +0.000 OA
ATOM      5  C   UNL     1     112.705 129.420 137.087  0.00  0.00    +0.000 A 
ATOM      6  C   UNL     1     113.187 128.765 137.225  0.00  0.00    +0.000 A 
ATOM      7  C   UNL     1     112.025 129.341 136.625  0.00  0.00    +0.000 A 
ATOM      8  C   UNL     1     112.990 128.031 136.904  0.00  0.00    +0.000 A 
ATOM      9  C   UNL     1     112.311 127.953 136.443  0.00  0.00    +0.000 A 
ATOM     10  C   UNL     1     111.828 128.607 136.304  0.00  0.00    +0.000 A 
ATOM     11  C   UNL     1     112.095 127.194 136.103  0.00  0.00    +0.000 A 
ATOM     12  C   UNL     1     113.301 126.590 136.724  0.00  0.00    +0.000 A 
ATOM     13  C   UNL     1     112.592 126.508 136.244  0.00  0.00    +0.000 A 
ENDROOT
BRANCH  12  14
ATOM     14  C   UNL     1     113.785 125.937 136.865  0.00  0.00    +0.000 A 
ATOM     15  C   UNL     1     113.632 125.441 137.506  0.00  0.00    +0.000 A 
ATOM     16  C   UNL     1     114.422 125.781 136.365  0.00  0.00    +0.000 A 
ATOM     17  C   UNL     1     114.116 124.788 137.647  0.00  0.00    +0.000 A 
ATOM     18  C   UNL     1     114.906 125.128 136.506  0.00  0.00    +0.000 A 
ATOM     19  C   UNL     1     114.753 124.632 137.147  0.00  0.00    +0.000 A 
ENDBRANCH  12  14
BRANCH   5  20
ATOM     20  O   UNL     1     112.903 130.154 137.408  0.00  0.00    +0.000 OA
BRANCH  20  29
ATOM     21  O   UNL     1     112.492 129.945 138.761  0.00  0.00    +0.000 OA
ATOM     22  O   UNL     1     114.587 130.992 139.559  0.00  0.00    +0.000 OA
ATOM     23  O   UNL     1     113.478 130.434 140.646  0.00  0.00    +0.000 OA
ATOM     24  O   UNL     1     114.300 130.852 137.941  0.00  0.00    +0.000 OA
ATOM     25  C   UNL     1     113.889 130.643 139.293  0.00  0.00    +0.000 C 
ATOM     26  C   UNL     1     113.334 130.364 139.836  0.00  0.00    +0.000 C 
ATOM     27  C   UNL     1     113.744 130.573 138.484  0.00  0.00    +0.000 C 
ATOM     28  C   UNL     1     112.635 130.015 139.569  0.00  0.00    +0.000 C 
ATOM     29  C   UNL     1     113.046 130.224 138.218  0.00  0.00    +0.000 C 
ATOM     30  C   UNL     1     112.081 129.736 140.113  0.00  0.00    +0.000 C 
ENDBRANCH  20  29
ENDBRANCH   5  20
TORSDOF 3
ENDMDL
