MODEL 1
REMARK VINA RESULT:     -10.1      0.000      0.000
REMARK  Name = 131752146
REMARK  8 active torsions:
REMARK  status: ('A' for Active; 'I' for Inactive)
REMARK    1  A    between atoms: O_2  and  C_19
REMARK    2  A    between atoms: O_2  and  C_21
REMARK    3  A    between atoms: O_6  and  C_20
REMARK    4  A    between atoms: O_6  and  C_25
REMARK    5  A    between atoms: C_17  and  C_20
REMARK    6  A    between atoms: C_22  and  C_27
REMARK    7  A    between atoms: C_25  and  C_32
REMARK    8  A    between atoms: C_38  and  C_39
REMARK                            x       y       z     vdW  Elec       q    Type
REMARK                         _______ _______ _______ _____ _____    ______ ____
ROOT
ATOM      1  O   UNL     1     113.231 126.509 138.491  0.00  0.00    +0.000 OA
ENDROOT
BRANCH   1   5
ATOM      2  O   UNL     1     112.110 128.382 138.523  0.00  0.00    +0.000 OA
ATOM      3  O   UNL     1     113.795 128.326 136.177  0.00  0.00    +0.000 OA
ATOM      4  O   UNL     1     112.083 130.638 136.681  0.00  0.00    +0.000 OA
ATOM      5  C   UNL     1     112.949 127.253 138.272  0.00  0.00    +0.000 A 
ATOM      6  C   UNL     1     112.392 127.638 138.742  0.00  0.00    +0.000 A 
ATOM      7  C   UNL     1     113.225 127.612 137.581  0.00  0.00    +0.000 A 
ATOM      8  C   UNL     1     112.943 128.356 137.362  0.00  0.00    +0.000 A 
ATOM      9  C   UNL     1     112.385 128.740 137.833  0.00  0.00    +0.000 A 
ATOM     10  C   UNL     1     113.238 128.719 136.641  0.00  0.00    +0.000 A 
ATOM     11  C   UNL     1     112.084 129.515 137.616  0.00  0.00    +0.000 A 
ATOM     12  C   UNL     1     112.948 129.493 136.408  0.00  0.00    +0.000 A 
ATOM     13  C   UNL     1     112.367 129.894 136.898  0.00  0.00    +0.000 A 
BRANCH   6  17
ATOM     14  O   UNL     1     112.690 127.076 141.528  0.00  0.00    +0.000 OA
ATOM     15  O   UNL     1     110.442 126.047 140.096  0.00  0.00    +0.000 OA
ATOM     16  O   UNL     1     111.291 126.203 141.502  0.00  0.00    +0.000 OA
ATOM     17  C   UNL     1     112.116 127.279 139.432  0.00  0.00    +0.000 A 
ATOM     18  C   UNL     1     111.416 126.842 139.419  0.00  0.00    +0.000 A 
ATOM     19  C   UNL     1     112.541 127.357 140.135  0.00  0.00    +0.000 A 
ATOM     20  C   UNL     1     112.265 126.998 140.825  0.00  0.00    +0.000 A 
ATOM     21  C   UNL     1     111.141 126.484 140.109  0.00  0.00    +0.000 A 
ATOM     22  C   UNL     1     111.565 126.561 140.811  0.00  0.00    +0.000 A 
ENDBRANCH   6  17
ENDBRANCH   1   5
BRANCH   1  31
ATOM     23  O   UNL     1     112.755 125.756 137.374  0.00  0.00    +0.000 OA
ATOM     24  O   UNL     1     113.712 124.186 136.197  0.00  0.00    +0.000 OA
ATOM     25  O   UNL     1     114.904 124.530 137.285  0.00  0.00    +0.000 OA
ATOM     26  O   UNL     1     114.664 125.692 138.432  0.00  0.00    +0.000 OA
ATOM     27  C   UNL     1     113.591 124.767 136.770  0.00  0.00    +0.000 C 
ATOM     28  C   UNL     1     114.188 124.939 137.314  0.00  0.00    +0.000 C 
ATOM     29  C   UNL     1     112.875 125.175 136.800  0.00  0.00    +0.000 C 
ATOM     30  C   UNL     1     114.067 125.520 137.887  0.00  0.00    +0.000 C 
ATOM     31  C   UNL     1     113.351 125.928 137.917  0.00  0.00    +0.000 C 
BRANCH  29  32
ATOM     32  C   UNL     1     112.280 125.003 136.256  0.00  0.00    +0.000 C 
BRANCH  32  33
ATOM     33  O   UNL     1     111.499 125.214 136.418  0.00  0.00    +0.000 OA
BRANCH  33  35
ATOM     34  O   UNL     1     110.695 124.737 135.337  0.00  0.00    +0.000 OA
ATOM     35  C   UNL     1     110.974 125.361 135.799  0.00  0.00    +0.000 C 
BRANCH  35  36
ATOM     36  C   UNL     1     110.727 126.133 135.642  0.00  0.00    +0.000 C 
ATOM     37  C   UNL     1     109.962 126.370 135.836  0.00  0.00    +0.000 C 
BRANCH  37  39
ATOM     38  O   UNL     1     108.977 129.455 135.203  0.00  0.00    +0.000 OA
ATOM     39  C   UNL     1     109.715 127.141 135.678  0.00  0.00    +0.000 A 
ATOM     40  C   UNL     1     109.988 127.531 135.004  0.00  0.00    +0.000 A 
ATOM     41  C   UNL     1     109.197 127.523 136.194  0.00  0.00    +0.000 A 
ATOM     42  C   UNL     1     109.742 128.302 134.845  0.00  0.00    +0.000 A 
ATOM     43  C   UNL     1     108.951 128.293 136.036  0.00  0.00    +0.000 A 
ATOM     44  C   UNL     1     109.224 128.683 135.362  0.00  0.00    +0.000 A 
ENDBRANCH  37  39
ENDBRANCH  35  36
ENDBRANCH  33  35
ENDBRANCH  32  33
ENDBRANCH  29  32
ENDBRANCH   1  31
TORSDOF 8
ENDMDL
MODEL 2
REMARK VINA RESULT:     -10.0      1.244      4.777
REMARK  Name = 131752146
REMARK  8 active torsions:
REMARK  status: ('A' for Active; 'I' for Inactive)
REMARK    1  A    between atoms: O_2  and  C_19
REMARK    2  A    between atoms: O_2  and  C_21
REMARK    3  A    between atoms: O_6  and  C_20
REMARK    4  A    between atoms: O_6  and  C_25
REMARK    5  A    between atoms: C_17  and  C_20
REMARK    6  A    between atoms: C_22  and  C_27
REMARK    7  A    between atoms: C_25  and  C_32
REMARK    8  A    between atoms: C_38  and  C_39
REMARK                            x       y       z     vdW  Elec       q    Type
REMARK                         _______ _______ _______ _____ _____    ______ ____
ROOT
ATOM      1  O   UNL     1     111.040 129.216 137.084  0.00  0.00    +0.000 OA
ENDROOT
BRANCH   1   5
ATOM      2  O   UNL     1     112.583 128.108 138.161  0.00  0.00    +0.000 OA
ATOM      3  O   UNL     1     109.989 127.370 139.196  0.00  0.00    +0.000 OA
ATOM      4  O   UNL     1     112.398 126.156 140.314  0.00  0.00    +0.000 OA
ATOM      5  C   UNL     1     111.401 128.700 137.617  0.00  0.00    +0.000 A 
ATOM      6  C   UNL     1     112.222 128.624 137.627  0.00  0.00    +0.000 A 
ATOM      7  C   UNL     1     110.940 128.258 138.141  0.00  0.00    +0.000 A 
ATOM      8  C   UNL     1     111.300 127.742 138.674  0.00  0.00    +0.000 A 
ATOM      9  C   UNL     1     112.122 127.668 138.683  0.00  0.00    +0.000 A 
ATOM     10  C   UNL     1     110.809 127.288 139.214  0.00  0.00    +0.000 A 
ATOM     11  C   UNL     1     112.509 127.134 139.234  0.00  0.00    +0.000 A 
ATOM     12  C   UNL     1     111.179 126.750 139.771  0.00  0.00    +0.000 A 
ATOM     13  C   UNL     1     112.035 126.671 139.782  0.00  0.00    +0.000 A 
BRANCH   6  17
ATOM     14  O   UNL     1     113.637 128.841 135.154  0.00  0.00    +0.000 OA
ATOM     15  O   UNL     1     113.571 131.054 136.961  0.00  0.00    +0.000 OA
ATOM     16  O   UNL     1     114.065 130.388 135.534  0.00  0.00    +0.000 OA
ATOM     17  C   UNL     1     112.683 129.066 137.104  0.00  0.00    +0.000 A 
ATOM     18  C   UNL     1     112.897 129.840 137.294  0.00  0.00    +0.000 A 
ATOM     19  C   UNL     1     112.930 128.733 136.391  0.00  0.00    +0.000 A 
ATOM     20  C   UNL     1     113.390 129.174 135.868  0.00  0.00    +0.000 A 
ATOM     21  C   UNL     1     113.357 130.280 136.771  0.00  0.00    +0.000 A 
ATOM     22  C   UNL     1     113.604 129.948 136.058  0.00  0.00    +0.000 A 
ENDBRANCH   6  17
ENDBRANCH   1   5
BRANCH   1  31
ATOM     23  O   UNL     1     110.210 128.297 136.370  0.00  0.00    +0.000 OA
ATOM     24  O   UNL     1     108.120 128.440 135.756  0.00  0.00    +0.000 OA
ATOM     25  O   UNL     1     108.320 129.888 136.520  0.00  0.00    +0.000 OA
ATOM     26  O   UNL     1     109.780 130.277 137.184  0.00  0.00    +0.000 OA
ATOM     27  C   UNL     1     108.850 128.633 136.088  0.00  0.00    +0.000 C 
ATOM     28  C   UNL     1     108.950 129.358 136.470  0.00  0.00    +0.000 C 
ATOM     29  C   UNL     1     109.480 128.103 136.038  0.00  0.00    +0.000 C 
ATOM     30  C   UNL     1     109.680 129.551 136.802  0.00  0.00    +0.000 C 
ATOM     31  C   UNL     1     110.310 129.021 136.751  0.00  0.00    +0.000 C 
BRANCH  29  32
ATOM     32  C   UNL     1     109.380 127.379 135.656  0.00  0.00    +0.000 C 
BRANCH  32  33
ATOM     33  O   UNL     1     110.036 126.971 135.365  0.00  0.00    +0.000 OA
BRANCH  33  35
ATOM     34  O   UNL     1     109.509 125.793 134.752  0.00  0.00    +0.000 OA
ATOM     35  C   UNL     1     110.015 126.149 135.298  0.00  0.00    +0.000 C 
BRANCH  35  36
ATOM     36  C   UNL     1     110.498 125.683 135.777  0.00  0.00    +0.000 C 
ATOM     37  C   UNL     1     111.268 125.508 135.541  0.00  0.00    +0.000 C 
BRANCH  37  39
ATOM     38  O   UNL     1     113.205 123.644 137.455  0.00  0.00    +0.000 OA
ATOM     39  C   UNL     1     111.752 125.042 136.019  0.00  0.00    +0.000 A 
ATOM     40  C   UNL     1     112.562 125.194 136.059  0.00  0.00    +0.000 A 
ATOM     41  C   UNL     1     111.427 124.424 136.458  0.00  0.00    +0.000 A 
ATOM     42  C   UNL     1     113.047 124.728 136.538  0.00  0.00    +0.000 A 
ATOM     43  C   UNL     1     111.911 123.958 136.936  0.00  0.00    +0.000 A 
ATOM     44  C   UNL     1     112.721 124.110 136.976  0.00  0.00    +0.000 A 
ENDBRANCH  37  39
ENDBRANCH  35  36
ENDBRANCH  33  35
ENDBRANCH  32  33
ENDBRANCH  29  32
ENDBRANCH   1  31
TORSDOF 8
ENDMDL
MODEL 3
REMARK VINA RESULT:     -10.0      1.570      4.913
REMARK  Name = 131752146
REMARK  8 active torsions:
REMARK  status: ('A' for Active; 'I' for Inactive)
REMARK    1  A    between atoms: O_2  and  C_19
REMARK    2  A    between atoms: O_2  and  C_21
REMARK    3  A    between atoms: O_6  and  C_20
REMARK    4  A    between atoms: O_6  and  C_25
REMARK    5  A    between atoms: C_17  and  C_20
REMARK    6  A    between atoms: C_22  and  C_27
REMARK    7  A    between atoms: C_25  and  C_32
REMARK    8  A    between atoms: C_38  and  C_39
REMARK                            x       y       z     vdW  Elec       q    Type
REMARK                         _______ _______ _______ _____ _____    ______ ____
ROOT
ATOM      1  O   UNL     1     111.103 129.892 137.494  0.00  0.00    +0.000 OA
ENDROOT
BRANCH   1   5
ATOM      2  O   UNL     1     111.941 129.147 135.621  0.00  0.00    +0.000 OA
ATOM      3  O   UNL     1     114.068 130.237 137.243  0.00  0.00    +0.000 OA
ATOM      4  O   UNL     1     114.675 129.106 134.620  0.00  0.00    +0.000 OA
ATOM      5  C   UNL     1     111.648 129.701 136.905  0.00  0.00    +0.000 A 
ATOM      6  C   UNL     1     111.395 129.337 136.209  0.00  0.00    +0.000 A 
ATOM      7  C   UNL     1     112.448 129.876 137.011  0.00  0.00    +0.000 A 
ATOM      8  C   UNL     1     112.994 129.686 136.422  0.00  0.00    +0.000 A 
ATOM      9  C   UNL     1     112.739 129.321 135.727  0.00  0.00    +0.000 A 
ATOM     10  C   UNL     1     113.824 129.873 136.545  0.00  0.00    +0.000 A 
ATOM     11  C   UNL     1     113.298 129.118 135.106  0.00  0.00    +0.000 A 
ATOM     12  C   UNL     1     114.396 129.677 135.935  0.00  0.00    +0.000 A 
ATOM     13  C   UNL     1     114.132 129.297 135.211  0.00  0.00    +0.000 A 
BRANCH   6  17
ATOM     14  O   UNL     1     109.217 127.496 136.399  0.00  0.00    +0.000 OA
ATOM     15  O   UNL     1     108.777 130.130 135.384  0.00  0.00    +0.000 OA
ATOM     16  O   UNL     1     108.198 128.638 135.786  0.00  0.00    +0.000 OA
ATOM     17  C   UNL     1     110.595 129.162 136.103  0.00  0.00    +0.000 A 
ATOM     18  C   UNL     1     110.085 129.734 135.796  0.00  0.00    +0.000 A 
ATOM     19  C   UNL     1     110.306 128.416 136.304  0.00  0.00    +0.000 A 
ATOM     20  C   UNL     1     109.507 128.242 136.198  0.00  0.00    +0.000 A 
ATOM     21  C   UNL     1     109.287 129.559 135.691  0.00  0.00    +0.000 A 
ATOM     22  C   UNL     1     108.997 128.814 135.891  0.00  0.00    +0.000 A 
ENDBRANCH   6  17
ENDBRANCH   1   5
BRANCH   1  31
ATOM     23  O   UNL     1     111.595 129.096 138.573  0.00  0.00    +0.000 OA
ATOM     24  O   UNL     1     111.935 129.588 140.673  0.00  0.00    +0.000 OA
ATOM     25  O   UNL     1     111.366 131.028 140.103  0.00  0.00    +0.000 OA
ATOM     26  O   UNL     1     110.950 131.180 138.513  0.00  0.00    +0.000 OA
ATOM     27  C   UNL     1     111.727 129.663 139.878  0.00  0.00    +0.000 C 
ATOM     28  C   UNL     1     111.442 130.384 139.593  0.00  0.00    +0.000 C 
ATOM     29  C   UNL     1     111.804 129.019 139.368  0.00  0.00    +0.000 C 
ATOM     30  C   UNL     1     111.235 130.459 138.798  0.00  0.00    +0.000 C 
ATOM     31  C   UNL     1     111.311 129.815 138.288  0.00  0.00    +0.000 C 
BRANCH  29  32
ATOM     32  C   UNL     1     112.088 128.300 139.653  0.00  0.00    +0.000 C 
BRANCH  32  33
ATOM     33  O   UNL     1     112.005 127.614 139.201  0.00  0.00    +0.000 OA
BRANCH  33  35
ATOM     34  O   UNL     1     112.401 126.553 140.071  0.00  0.00    +0.000 OA
ATOM     35  C   UNL     1     112.479 126.958 139.356  0.00  0.00    +0.000 C 
BRANCH  35  36
ATOM     36  C   UNL     1     113.031 126.705 138.797  0.00  0.00    +0.000 C 
ATOM     37  C   UNL     1     112.865 126.054 138.319  0.00  0.00    +0.000 C 
BRANCH  37  39
ATOM     38  O   UNL     1     115.071 125.044 136.081  0.00  0.00    +0.000 OA
ATOM     39  C   UNL     1     113.417 125.801 137.760  0.00  0.00    +0.000 A 
ATOM     40  C   UNL     1     113.318 125.998 136.965  0.00  0.00    +0.000 A 
ATOM     41  C   UNL     1     114.068 125.353 137.995  0.00  0.00    +0.000 A 
ATOM     42  C   UNL     1     113.869 125.746 136.405  0.00  0.00    +0.000 A 
ATOM     43  C   UNL     1     114.619 125.101 137.436  0.00  0.00    +0.000 A 
ATOM     44  C   UNL     1     114.519 125.297 136.641  0.00  0.00    +0.000 A 
ENDBRANCH  37  39
ENDBRANCH  35  36
ENDBRANCH  33  35
ENDBRANCH  32  33
ENDBRANCH  29  32
ENDBRANCH   1  31
TORSDOF 8
ENDMDL
MODEL 4
REMARK VINA RESULT:      -9.7      1.507      4.126
REMARK  Name = 131752146
REMARK  8 active torsions:
REMARK  status: ('A' for Active; 'I' for Inactive)
REMARK    1  A    between atoms: O_2  and  C_19
REMARK    2  A    between atoms: O_2  and  C_21
REMARK    3  A    between atoms: O_6  and  C_20
REMARK    4  A    between atoms: O_6  and  C_25
REMARK    5  A    between atoms: C_17  and  C_20
REMARK    6  A    between atoms: C_22  and  C_27
REMARK    7  A    between atoms: C_25  and  C_32
REMARK    8  A    between atoms: C_38  and  C_39
REMARK                            x       y       z     vdW  Elec       q    Type
REMARK                         _______ _______ _______ _____ _____    ______ ____
ROOT
ATOM      1  O   UNL     1     110.723 129.444 137.318  0.00  0.00    +0.000 OA
ENDROOT
BRANCH   1   5
ATOM      2  O   UNL     1     112.905 129.370 137.353  0.00  0.00    +0.000 OA
ATOM      3  O   UNL     1     111.997 129.252 134.613  0.00  0.00    +0.000 OA
ATOM      4  O   UNL     1     114.857 129.186 135.200  0.00  0.00    +0.000 OA
ATOM      5  C   UNL     1     111.506 129.403 137.061  0.00  0.00    +0.000 A 
ATOM      6  C   UNL     1     112.122 129.411 137.610  0.00  0.00    +0.000 A 
ATOM      7  C   UNL     1     111.674 129.353 136.254  0.00  0.00    +0.000 A 
ATOM      8  C   UNL     1     112.457 129.312 135.998  0.00  0.00    +0.000 A 
ATOM      9  C   UNL     1     113.072 129.321 136.548  0.00  0.00    +0.000 A 
ATOM     10  C   UNL     1     112.619 129.260 135.155  0.00  0.00    +0.000 A 
ATOM     11  C   UNL     1     113.892 129.279 136.293  0.00  0.00    +0.000 A 
ATOM     12  C   UNL     1     113.432 129.218 134.882  0.00  0.00    +0.000 A 
ATOM     13  C   UNL     1     114.073 129.227 135.454  0.00  0.00    +0.000 A 
BRANCH   6  17
ATOM     14  O   UNL     1     111.515 130.982 139.919  0.00  0.00    +0.000 OA
ATOM     15  O   UNL     1     111.721 128.140 140.138  0.00  0.00    +0.000 OA
ATOM     16  O   UNL     1     111.450 129.611 140.835  0.00  0.00    +0.000 OA
ATOM     17  C   UNL     1     111.954 129.461 138.417  0.00  0.00    +0.000 A 
ATOM     18  C   UNL     1     111.921 128.775 138.875  0.00  0.00    +0.000 A 
ATOM     19  C   UNL     1     111.819 130.197 138.765  0.00  0.00    +0.000 A 
ATOM     20  C   UNL     1     111.651 130.246 139.571  0.00  0.00    +0.000 A 
ATOM     21  C   UNL     1     111.753 128.825 139.680  0.00  0.00    +0.000 A 
ATOM     22  C   UNL     1     111.618 129.560 140.029  0.00  0.00    +0.000 A 
ENDBRANCH   6  17
ENDBRANCH   1   5
BRANCH   1  31
ATOM     23  O   UNL     1     110.248 128.197 136.806  0.00  0.00    +0.000 OA
ATOM     24  O   UNL     1     108.390 127.688 135.780  0.00  0.00    +0.000 OA
ATOM     25  O   UNL     1     108.174 129.304 136.034  0.00  0.00    +0.000 OA
ATOM     26  O   UNL     1     109.341 130.182 136.802  0.00  0.00    +0.000 OA
ATOM     27  C   UNL     1     108.974 128.126 136.164  0.00  0.00    +0.000 C 
ATOM     28  C   UNL     1     108.865 128.935 136.291  0.00  0.00    +0.000 C 
ATOM     29  C   UNL     1     109.665 127.757 136.422  0.00  0.00    +0.000 C 
ATOM     30  C   UNL     1     109.449 129.373 136.676  0.00  0.00    +0.000 C 
ATOM     31  C   UNL     1     110.140 129.004 136.933  0.00  0.00    +0.000 C 
BRANCH  29  32
ATOM     32  C   UNL     1     109.773 126.950 136.295  0.00  0.00    +0.000 C 
BRANCH  32  33
ATOM     33  O   UNL     1     110.269 126.516 136.792  0.00  0.00    +0.000 OA
BRANCH  33  35
ATOM     34  O   UNL     1     110.339 125.373 135.938  0.00  0.00    +0.000 OA
ATOM     35  C   UNL     1     110.688 125.871 136.496  0.00  0.00    +0.000 C 
BRANCH  35  36
ATOM     36  C   UNL     1     111.457 125.722 136.757  0.00  0.00    +0.000 C 
ATOM     37  C   UNL     1     111.960 125.248 136.309  0.00  0.00    +0.000 C 
BRANCH  37  39
ATOM     38  O   UNL     1     115.035 124.656 137.351  0.00  0.00    +0.000 OA
ATOM     39  C   UNL     1     112.729 125.099 136.570  0.00  0.00    +0.000 A 
ATOM     40  C   UNL     1     113.294 125.699 136.549  0.00  0.00    +0.000 A 
ATOM     41  C   UNL     1     112.932 124.351 136.851  0.00  0.00    +0.000 A 
ATOM     42  C   UNL     1     114.063 125.552 136.809  0.00  0.00    +0.000 A 
ATOM     43  C   UNL     1     113.700 124.203 137.111  0.00  0.00    +0.000 A 
ATOM     44  C   UNL     1     114.265 124.803 137.091  0.00  0.00    +0.000 A 
ENDBRANCH  37  39
ENDBRANCH  35  36
ENDBRANCH  33  35
ENDBRANCH  32  33
ENDBRANCH  29  32
ENDBRANCH   1  31
TORSDOF 8
ENDMDL
MODEL 5
REMARK VINA RESULT:      -9.6      2.023      4.188
REMARK  Name = 131752146
REMARK  8 active torsions:
REMARK  status: ('A' for Active; 'I' for Inactive)
REMARK    1  A    between atoms: O_2  and  C_19
REMARK    2  A    between atoms: O_2  and  C_21
REMARK    3  A    between atoms: O_6  and  C_20
REMARK    4  A    between atoms: O_6  and  C_25
REMARK    5  A    between atoms: C_17  and  C_20
REMARK    6  A    between atoms: C_22  and  C_27
REMARK    7  A    between atoms: C_25  and  C_32
REMARK    8  A    between atoms: C_38  and  C_39
REMARK                            x       y       z     vdW  Elec       q    Type
REMARK                         _______ _______ _______ _____ _____    ______ ____
ROOT
ATOM      1  O   UNL     1     111.907 129.411 138.612  0.00  0.00    +0.000 OA
ENDROOT
BRANCH   1   5
ATOM      2  O   UNL     1     113.836 129.211 137.611  0.00  0.00    +0.000 OA
ATOM      3  O   UNL     1     111.723 128.927 135.662  0.00  0.00    +0.000 OA
ATOM      4  O   UNL     1     114.512 128.736 134.818  0.00  0.00    +0.000 OA
ATOM      5  C   UNL     1     112.470 129.303 138.019  0.00  0.00    +0.000 A 
ATOM      6  C   UNL     1     113.273 129.319 138.204  0.00  0.00    +0.000 A 
ATOM      7  C   UNL     1     112.229 129.178 137.239  0.00  0.00    +0.000 A 
ATOM      8  C   UNL     1     112.792 129.070 136.646  0.00  0.00    +0.000 A 
ATOM      9  C   UNL     1     113.595 129.086 136.832  0.00  0.00    +0.000 A 
ATOM     10  C   UNL     1     112.528 128.941 135.838  0.00  0.00    +0.000 A 
ATOM     11  C   UNL     1     114.191 128.975 136.223  0.00  0.00    +0.000 A 
ATOM     12  C   UNL     1     113.110 128.828 135.216  0.00  0.00    +0.000 A 
ATOM     13  C   UNL     1     113.947 128.844 135.409  0.00  0.00    +0.000 A 
BRANCH   6  17
ATOM     14  O   UNL     1     114.083 128.280 140.740  0.00  0.00    +0.000 OA
ATOM     15  O   UNL     1     113.907 131.105 140.344  0.00  0.00    +0.000 OA
ATOM     16  O   UNL     1     114.236 129.817 141.321  0.00  0.00    +0.000 OA
ATOM     17  C   UNL     1     113.514 129.444 138.984  0.00  0.00    +0.000 A 
ATOM     18  C   UNL     1     113.590 130.212 139.274  0.00  0.00    +0.000 A 
ATOM     19  C   UNL     1     113.678 128.800 139.472  0.00  0.00    +0.000 A 
ATOM     20  C   UNL     1     113.919 128.925 140.251  0.00  0.00    +0.000 A 
ATOM     21  C   UNL     1     113.831 130.336 140.053  0.00  0.00    +0.000 A 
ATOM     22  C   UNL     1     113.995 129.693 140.542  0.00  0.00    +0.000 A 
ENDBRANCH   6  17
ENDBRANCH   1   5
BRANCH   1  31
ATOM     23  O   UNL     1     111.249 128.144 138.549  0.00  0.00    +0.000 OA
ATOM     24  O   UNL     1     109.128 127.631 138.594  0.00  0.00    +0.000 OA
ATOM     25  O   UNL     1     109.054 129.275 138.712  0.00  0.00    +0.000 OA
ATOM     26  O   UNL     1     110.443 130.165 138.721  0.00  0.00    +0.000 OA
ATOM     27  C   UNL     1     109.823 128.076 138.599  0.00  0.00    +0.000 C 
ATOM     28  C   UNL     1     109.786 128.898 138.658  0.00  0.00    +0.000 C 
ATOM     29  C   UNL     1     110.555 127.699 138.544  0.00  0.00    +0.000 C 
ATOM     30  C   UNL     1     110.480 129.343 138.662  0.00  0.00    +0.000 C 
ATOM     31  C   UNL     1     111.212 128.966 138.608  0.00  0.00    +0.000 C 
BRANCH  29  32
ATOM     32  C   UNL     1     110.592 126.877 138.485  0.00  0.00    +0.000 C 
BRANCH  32  33
ATOM     33  O   UNL     1     111.259 126.473 138.753  0.00  0.00    +0.000 OA
BRANCH  33  35
ATOM     34  O   UNL     1     111.040 125.065 138.657  0.00  0.00    +0.000 OA
ATOM     35  C   UNL     1     111.456 125.741 138.430  0.00  0.00    +0.000 C 
BRANCH  35  36
ATOM     36  C   UNL     1     112.069 125.682 137.881  0.00  0.00    +0.000 C 
ATOM     37  C   UNL     1     112.813 125.418 138.118  0.00  0.00    +0.000 C 
BRANCH  37  39
ATOM     38  O   UNL     1     115.265 125.186 135.922  0.00  0.00    +0.000 OA
ATOM     39  C   UNL     1     113.425 125.360 137.568  0.00  0.00    +0.000 A 
ATOM     40  C   UNL     1     114.209 125.432 137.816  0.00  0.00    +0.000 A 
ATOM     41  C   UNL     1     113.255 125.230 136.772  0.00  0.00    +0.000 A 
ATOM     42  C   UNL     1     114.822 125.374 137.267  0.00  0.00    +0.000 A 
ATOM     43  C   UNL     1     113.867 125.172 136.224  0.00  0.00    +0.000 A 
ATOM     44  C   UNL     1     114.651 125.244 136.471  0.00  0.00    +0.000 A 
ENDBRANCH  37  39
ENDBRANCH  35  36
ENDBRANCH  33  35
ENDBRANCH  32  33
ENDBRANCH  29  32
ENDBRANCH   1  31
TORSDOF 8
ENDMDL
MODEL 6
REMARK VINA RESULT:      -9.6      2.108      4.888
REMARK  Name = 131752146
REMARK  8 active torsions:
REMARK  status: ('A' for Active; 'I' for Inactive)
REMARK    1  A    between atoms: O_2  and  C_19
REMARK    2  A    between atoms: O_2  and  C_21
REMARK    3  A    between atoms: O_6  and  C_20
REMARK    4  A    between atoms: O_6  and  C_25
REMARK    5  A    between atoms: C_17  and  C_20
REMARK    6  A    between atoms: C_22  and  C_27
REMARK    7  A    between atoms: C_25  and  C_32
REMARK    8  A    between atoms: C_38  and  C_39
REMARK                            x       y       z     vdW  Elec       q    Type
REMARK                         _______ _______ _______ _____ _____    ______ ____
ROOT
ATOM      1  O   UNL     1     112.524 130.193 139.467  0.00  0.00    +0.000 OA
ENDROOT
BRANCH   1   5
ATOM      2  O   UNL     1     112.912 128.562 140.865  0.00  0.00    +0.000 OA
ATOM      3  O   UNL     1     110.655 127.867 139.202  0.00  0.00    +0.000 OA
ATOM      4  O   UNL     1     111.580 126.001 141.249  0.00  0.00    +0.000 OA
ATOM      5  C   UNL     1     112.456 129.472 139.862  0.00  0.00    +0.000 A 
ATOM      6  C   UNL     1     112.980 129.284 140.471  0.00  0.00    +0.000 A 
ATOM      7  C   UNL     1     111.864 128.938 139.648  0.00  0.00    +0.000 A 
ATOM      8  C   UNL     1     111.796 128.217 140.043  0.00  0.00    +0.000 A 
ATOM      9  C   UNL     1     112.321 128.030 140.652  0.00  0.00    +0.000 A 
ATOM     10  C   UNL     1     111.175 127.670 139.811  0.00  0.00    +0.000 A 
ATOM     11  C   UNL     1     112.261 127.282 141.070  0.00  0.00    +0.000 A 
ATOM     12  C   UNL     1     111.100 126.918 140.219  0.00  0.00    +0.000 A 
ATOM     13  C   UNL     1     111.646 126.722 140.853  0.00  0.00    +0.000 A 
BRANCH   6  17
ATOM     14  O   UNL     1     115.678 130.203 140.257  0.00  0.00    +0.000 OA
ATOM     15  O   UNL     1     113.836 131.564 141.965  0.00  0.00    +0.000 OA
ATOM     16  O   UNL     1     115.349 131.417 141.325  0.00  0.00    +0.000 OA
ATOM     17  C   UNL     1     113.573 129.818 140.684  0.00  0.00    +0.000 A 
ATOM     18  C   UNL     1     113.408 130.424 141.218  0.00  0.00    +0.000 A 
ATOM     19  C   UNL     1     114.329 129.743 140.364  0.00  0.00    +0.000 A 
ATOM     20  C   UNL     1     114.921 130.277 140.577  0.00  0.00    +0.000 A 
ATOM     21  C   UNL     1     114.000 130.957 141.432  0.00  0.00    +0.000 A 
ATOM     22  C   UNL     1     114.756 130.884 141.111  0.00  0.00    +0.000 A 
ENDBRANCH   6  17
ENDBRANCH   1   5
BRANCH   1  31
ATOM     23  O   UNL     1     112.742 129.750 138.127  0.00  0.00    +0.000 OA
ATOM     24  O   UNL     1     111.832 130.381 136.246  0.00  0.00    +0.000 OA
ATOM     25  O   UNL     1     111.048 131.362 137.317  0.00  0.00    +0.000 OA
ATOM     26  O   UNL     1     111.394 131.268 138.927  0.00  0.00    +0.000 OA
ATOM     27  C   UNL     1     112.005 130.334 137.051  0.00  0.00    +0.000 C 
ATOM     28  C   UNL     1     111.613 130.825 137.587  0.00  0.00    +0.000 C 
ATOM     29  C   UNL     1     112.570 129.796 137.321  0.00  0.00    +0.000 C 
ATOM     30  C   UNL     1     111.787 130.777 138.392  0.00  0.00    +0.000 C 
ATOM     31  C   UNL     1     112.351 130.240 138.662  0.00  0.00    +0.000 C 
BRANCH  29  32
ATOM     32  C   UNL     1     112.961 129.306 136.786  0.00  0.00    +0.000 C 
BRANCH  32  33
ATOM     33  O   UNL     1     113.242 128.569 137.029  0.00  0.00    +0.000 OA
BRANCH  33  35
ATOM     34  O   UNL     1     114.078 128.309 135.901  0.00  0.00    +0.000 OA
ATOM     35  C   UNL     1     113.550 128.042 136.476  0.00  0.00    +0.000 C 
BRANCH  35  36
ATOM     36  C   UNL     1     113.332 127.246 136.497  0.00  0.00    +0.000 C 
ATOM     37  C   UNL     1     113.798 126.700 136.901  0.00  0.00    +0.000 C 
BRANCH  37  39
ATOM     38  O   UNL     1     112.926 123.518 136.981  0.00  0.00    +0.000 OA
ATOM     39  C   UNL     1     113.580 125.905 136.921  0.00  0.00    +0.000 A 
ATOM     40  C   UNL     1     114.027 125.344 136.514  0.00  0.00    +0.000 A 
ATOM     41  C   UNL     1     112.915 125.670 137.349  0.00  0.00    +0.000 A 
ATOM     42  C   UNL     1     113.809 124.548 136.533  0.00  0.00    +0.000 A 
ATOM     43  C   UNL     1     112.697 124.875 137.369  0.00  0.00    +0.000 A 
ATOM     44  C   UNL     1     113.144 124.315 136.961  0.00  0.00    +0.000 A 
ENDBRANCH  37  39
ENDBRANCH  35  36
ENDBRANCH  33  35
ENDBRANCH  32  33
ENDBRANCH  29  32
ENDBRANCH   1  31
TORSDOF 8
ENDMDL
MODEL 7
REMARK VINA RESULT:      -9.6      1.558      4.277
REMARK  Name = 131752146
REMARK  8 active torsions:
REMARK  status: ('A' for Active; 'I' for Inactive)
REMARK    1  A    between atoms: O_2  and  C_19
REMARK    2  A    between atoms: O_2  and  C_21
REMARK    3  A    between atoms: O_6  and  C_20
REMARK    4  A    between atoms: O_6  and  C_25
REMARK    5  A    between atoms: C_17  and  C_20
REMARK    6  A    between atoms: C_22  and  C_27
REMARK    7  A    between atoms: C_25  and  C_32
REMARK    8  A    between atoms: C_38  and  C_39
REMARK                            x       y       z     vdW  Elec       q    Type
REMARK                         _______ _______ _______ _____ _____    ______ ____
ROOT
ATOM      1  O   UNL     1     111.069 127.392 135.900  0.00  0.00    +0.000 OA
ENDROOT
BRANCH   1   5
ATOM      2  O   UNL     1     111.934 129.385 136.105  0.00  0.00    +0.000 OA
ATOM      3  O   UNL     1     114.064 127.443 135.923  0.00  0.00    +0.000 OA
ATOM      4  O   UNL     1     114.704 130.277 136.211  0.00  0.00    +0.000 OA
ATOM      5  C   UNL     1     111.625 127.997 135.964  0.00  0.00    +0.000 A 
ATOM      6  C   UNL     1     111.377 128.780 136.041  0.00  0.00    +0.000 A 
ATOM      7  C   UNL     1     112.432 127.820 135.951  0.00  0.00    +0.000 A 
ATOM      8  C   UNL     1     112.988 128.426 136.015  0.00  0.00    +0.000 A 
ATOM      9  C   UNL     1     112.739 129.208 136.092  0.00  0.00    +0.000 A 
ATOM     10  C   UNL     1     113.825 128.228 136.000  0.00  0.00    +0.000 A 
ATOM     11  C   UNL     1     113.308 129.848 136.160  0.00  0.00    +0.000 A 
ATOM     12  C   UNL     1     114.409 128.854 136.066  0.00  0.00    +0.000 A 
ATOM     13  C   UNL     1     114.150 129.670 136.147  0.00  0.00    +0.000 A 
BRANCH   6  17
ATOM     14  O   UNL     1     108.960 129.415 134.655  0.00  0.00    +0.000 OA
ATOM     15  O   UNL     1     108.960 129.207 137.506  0.00  0.00    +0.000 OA
ATOM     16  O   UNL     1     108.154 129.488 136.093  0.00  0.00    +0.000 OA
ATOM     17  C   UNL     1     110.571 128.957 136.055  0.00  0.00    +0.000 A 
ATOM     18  C   UNL     1     110.168 128.994 136.774  0.00  0.00    +0.000 A 
ATOM     19  C   UNL     1     110.168 129.097 135.348  0.00  0.00    +0.000 A 
ATOM     20  C   UNL     1     109.363 129.274 135.362  0.00  0.00    +0.000 A 
ATOM     21  C   UNL     1     109.363 129.170 136.786  0.00  0.00    +0.000 A 
ATOM     22  C   UNL     1     108.960 129.311 136.081  0.00  0.00    +0.000 A 
ENDBRANCH   6  17
ENDBRANCH   1   5
BRANCH   1  31
ATOM     23  O   UNL     1     111.425 126.626 137.054  0.00  0.00    +0.000 OA
ATOM     24  O   UNL     1     111.637 124.471 137.329  0.00  0.00    +0.000 OA
ATOM     25  O   UNL     1     111.210 124.542 135.737  0.00  0.00    +0.000 OA
ATOM     26  O   UNL     1     110.926 126.002 135.023  0.00  0.00    +0.000 OA
ATOM     27  C   UNL     1     111.495 125.202 136.973  0.00  0.00    +0.000 C 
ATOM     28  C   UNL     1     111.282 125.237 136.176  0.00  0.00    +0.000 C 
ATOM     29  C   UNL     1     111.567 125.896 137.411  0.00  0.00    +0.000 C 
ATOM     30  C   UNL     1     111.140 125.967 135.819  0.00  0.00    +0.000 C 
ATOM     31  C   UNL     1     111.211 126.662 136.258  0.00  0.00    +0.000 C 
BRANCH  29  32
ATOM     32  C   UNL     1     111.780 125.861 138.207  0.00  0.00    +0.000 C 
BRANCH  32  33
ATOM     33  O   UNL     1     111.540 126.456 138.726  0.00  0.00    +0.000 OA
BRANCH  33  35
ATOM     34  O   UNL     1     111.979 126.118 140.043  0.00  0.00    +0.000 OA
ATOM     35  C   UNL     1     111.992 126.628 139.394  0.00  0.00    +0.000 C 
BRANCH  35  36
ATOM     36  C   UNL     1     112.456 127.310 139.415  0.00  0.00    +0.000 C 
ATOM     37  C   UNL     1     112.178 127.988 139.792  0.00  0.00    +0.000 C 
BRANCH  37  39
ATOM     38  O   UNL     1     114.034 130.715 139.874  0.00  0.00    +0.000 OA
ATOM     39  C   UNL     1     112.643 128.669 139.813  0.00  0.00    +0.000 A 
ATOM     40  C   UNL     1     112.290 129.411 139.734  0.00  0.00    +0.000 A 
ATOM     41  C   UNL     1     113.459 128.610 139.912  0.00  0.00    +0.000 A 
ATOM     42  C   UNL     1     112.753 130.093 139.755  0.00  0.00    +0.000 A 
ATOM     43  C   UNL     1     113.923 129.291 139.933  0.00  0.00    +0.000 A 
ATOM     44  C   UNL     1     113.570 130.033 139.854  0.00  0.00    +0.000 A 
ENDBRANCH  37  39
ENDBRANCH  35  36
ENDBRANCH  33  35
ENDBRANCH  32  33
ENDBRANCH  29  32
ENDBRANCH   1  31
TORSDOF 8
ENDMDL
MODEL 8
REMARK VINA RESULT:      -9.5      1.212      2.912
REMARK  Name = 131752146
REMARK  8 active torsions:
REMARK  status: ('A' for Active; 'I' for Inactive)
REMARK    1  A    between atoms: O_2  and  C_19
REMARK    2  A    between atoms: O_2  and  C_21
REMARK    3  A    between atoms: O_6  and  C_20
REMARK    4  A    between atoms: O_6  and  C_25
REMARK    5  A    between atoms: C_17  and  C_20
REMARK    6  A    between atoms: C_22  and  C_27
REMARK    7  A    between atoms: C_25  and  C_32
REMARK    8  A    between atoms: C_38  and  C_39
REMARK                            x       y       z     vdW  Elec       q    Type
REMARK                         _______ _______ _______ _____ _____    ______ ____
ROOT
ATOM      1  O   UNL     1     111.165 125.252 137.971  0.00  0.00    +0.000 OA
ENDROOT
BRANCH   1   5
ATOM      2  O   UNL     1     109.707 126.876 137.897  0.00  0.00    +0.000 OA
ATOM      3  O   UNL     1     110.040 125.780 135.245  0.00  0.00    +0.000 OA
ATOM      4  O   UNL     1     108.184 127.992 135.680  0.00  0.00    +0.000 OA
ATOM      5  C   UNL     1     110.614 125.793 137.679  0.00  0.00    +0.000 A 
ATOM      6  C   UNL     1     110.257 126.335 138.189  0.00  0.00    +0.000 A 
ATOM      7  C   UNL     1     110.421 125.793 136.876  0.00  0.00    +0.000 A 
ATOM      8  C   UNL     1     109.871 126.335 136.585  0.00  0.00    +0.000 A 
ATOM      9  C   UNL     1     109.514 126.876 137.096  0.00  0.00    +0.000 A 
ATOM     10  C   UNL     1     109.678 126.324 135.747  0.00  0.00    +0.000 A 
ATOM     11  C   UNL     1     108.940 127.444 136.804  0.00  0.00    +0.000 A 
ATOM     12  C   UNL     1     109.106 126.886 135.438  0.00  0.00    +0.000 A 
ATOM     13  C   UNL     1     108.734 127.449 135.969  0.00  0.00    +0.000 A 
BRANCH   6  17
ATOM     14  O   UNL     1     111.865 127.295 140.347  0.00  0.00    +0.000 OA
ATOM     15  O   UNL     1     109.809 125.374 140.843  0.00  0.00    +0.000 OA
ATOM     16  O   UNL     1     111.031 126.335 141.397  0.00  0.00    +0.000 OA
ATOM     17  C   UNL     1     110.450 126.334 138.992  0.00  0.00    +0.000 A 
ATOM     18  C   UNL     1     110.033 125.854 139.517  0.00  0.00    +0.000 A 
ATOM     19  C   UNL     1     111.061 126.815 139.268  0.00  0.00    +0.000 A 
ATOM     20  C   UNL     1     111.254 126.815 140.070  0.00  0.00    +0.000 A 
ATOM     21  C   UNL     1     110.226 125.854 140.318  0.00  0.00    +0.000 A 
ATOM     22  C   UNL     1     110.837 126.334 140.595  0.00  0.00    +0.000 A 
ENDBRANCH   6  17
ENDBRANCH   1   5
BRANCH   1  31
ATOM     23  O   UNL     1     112.311 125.658 137.220  0.00  0.00    +0.000 OA
ATOM     24  O   UNL     1     113.828 124.481 136.182  0.00  0.00    +0.000 OA
ATOM     25  O   UNL     1     112.868 123.285 136.789  0.00  0.00    +0.000 OA
ATOM     26  O   UNL     1     111.536 123.670 137.684  0.00  0.00    +0.000 OA
ATOM     27  C   UNL     1     113.163 124.675 136.629  0.00  0.00    +0.000 C 
ATOM     28  C   UNL     1     112.682 124.076 136.933  0.00  0.00    +0.000 C 
ATOM     29  C   UNL     1     112.977 125.466 136.773  0.00  0.00    +0.000 C 
ATOM     30  C   UNL     1     112.016 124.269 137.380  0.00  0.00    +0.000 C 
ATOM     31  C   UNL     1     111.831 125.060 137.524  0.00  0.00    +0.000 C 
BRANCH  29  32
ATOM     32  C   UNL     1     113.457 126.063 136.469  0.00  0.00    +0.000 C 
BRANCH  32  33
ATOM     33  O   UNL     1     113.454 126.812 136.816  0.00  0.00    +0.000 OA
BRANCH  33  35
ATOM     34  O   UNL     1     114.366 127.617 136.068  0.00  0.00    +0.000 OA
ATOM     35  C   UNL     1     113.606 127.480 136.358  0.00  0.00    +0.000 C 
BRANCH  35  36
ATOM     36  C   UNL     1     112.998 128.012 136.188  0.00  0.00    +0.000 C 
ATOM     37  C   UNL     1     112.925 128.708 136.623  0.00  0.00    +0.000 C 
BRANCH  37  39
ATOM     38  O   UNL     1     110.495 130.836 135.946  0.00  0.00    +0.000 OA
ATOM     39  C   UNL     1     112.318 129.240 136.453  0.00  0.00    +0.000 A 
ATOM     40  C   UNL     1     111.961 129.667 137.063  0.00  0.00    +0.000 A 
ATOM     41  C   UNL     1     112.067 129.346 135.675  0.00  0.00    +0.000 A 
ATOM     42  C   UNL     1     111.354 130.199 136.894  0.00  0.00    +0.000 A 
ATOM     43  C   UNL     1     111.460 129.877 135.506  0.00  0.00    +0.000 A 
ATOM     44  C   UNL     1     111.103 130.304 136.115  0.00  0.00    +0.000 A 
ENDBRANCH  37  39
ENDBRANCH  35  36
ENDBRANCH  33  35
ENDBRANCH  32  33
ENDBRANCH  29  32
ENDBRANCH   1  31
TORSDOF 8
ENDMDL
MODEL 9
REMARK VINA RESULT:      -9.5      1.569      4.830
REMARK  Name = 131752146
REMARK  8 active torsions:
REMARK  status: ('A' for Active; 'I' for Inactive)
REMARK    1  A    between atoms: O_2  and  C_19
REMARK    2  A    between atoms: O_2  and  C_21
REMARK    3  A    between atoms: O_6  and  C_20
REMARK    4  A    between atoms: O_6  and  C_25
REMARK    5  A    between atoms: C_17  and  C_20
REMARK    6  A    between atoms: C_22  and  C_27
REMARK    7  A    between atoms: C_25  and  C_32
REMARK    8  A    between atoms: C_38  and  C_39
REMARK                            x       y       z     vdW  Elec       q    Type
REMARK                         _______ _______ _______ _____ _____    ______ ____
ROOT
ATOM      1  O   UNL     1     110.956 129.676 137.900  0.00  0.00    +0.000 OA
ENDROOT
BRANCH   1   5
ATOM      2  O   UNL     1     109.709 127.890 138.048  0.00  0.00    +0.000 OA
ATOM      3  O   UNL     1     111.846 127.716 139.983  0.00  0.00    +0.000 OA
ATOM      4  O   UNL     1     109.890 125.557 139.781  0.00  0.00    +0.000 OA
ATOM      5  C   UNL     1     110.668 128.944 138.150  0.00  0.00    +0.000 A 
ATOM      6  C   UNL     1     109.996 128.622 137.797  0.00  0.00    +0.000 A 
ATOM      7  C   UNL     1     111.053 128.534 138.755  0.00  0.00    +0.000 A 
ATOM      8  C   UNL     1     110.765 127.803 139.006  0.00  0.00    +0.000 A 
ATOM      9  C   UNL     1     110.093 127.481 138.651  0.00  0.00    +0.000 A 
ATOM     10  C   UNL     1     111.175 127.386 139.636  0.00  0.00    +0.000 A 
ATOM     11  C   UNL     1     109.784 126.720 138.903  0.00  0.00    +0.000 A 
ATOM     12  C   UNL     1     110.880 126.624 139.901  0.00  0.00    +0.000 A 
ATOM     13  C   UNL     1     110.180 126.288 139.532  0.00  0.00    +0.000 A 
BRANCH   6  17
ATOM     14  O   UNL     1     109.436 128.981 135.018  0.00  0.00    +0.000 OA
ATOM     15  O   UNL     1     108.251 130.720 136.951  0.00  0.00    +0.000 OA
ATOM     16  O   UNL     1     108.459 130.260 135.380  0.00  0.00    +0.000 OA
ATOM     17  C   UNL     1     109.612 129.032 137.192  0.00  0.00    +0.000 A 
ATOM     18  C   UNL     1     109.123 129.672 137.374  0.00  0.00    +0.000 A 
ATOM     19  C   UNL     1     109.716 128.801 136.407  0.00  0.00    +0.000 A 
ATOM     20  C   UNL     1     109.332 129.211 135.804  0.00  0.00    +0.000 A 
ATOM     21  C   UNL     1     108.739 130.081 136.770  0.00  0.00    +0.000 A 
ATOM     22  C   UNL     1     108.843 129.851 135.985  0.00  0.00    +0.000 A 
ENDBRANCH   6  17
ENDBRANCH   1   5
BRANCH   1  31
ATOM     23  O   UNL     1     112.236 129.278 137.404  0.00  0.00    +0.000 OA
ATOM     24  O   UNL     1     114.210 130.174 137.662  0.00  0.00    +0.000 OA
ATOM     25  O   UNL     1     113.277 131.219 138.534  0.00  0.00    +0.000 OA
ATOM     26  O   UNL     1     111.650 130.970 138.653  0.00  0.00    +0.000 OA
ATOM     27  C   UNL     1     113.397 130.049 137.721  0.00  0.00    +0.000 C 
ATOM     28  C   UNL     1     112.930 130.572 138.157  0.00  0.00    +0.000 C 
ATOM     29  C   UNL     1     113.050 129.402 137.344  0.00  0.00    +0.000 C 
ATOM     30  C   UNL     1     112.117 130.447 138.216  0.00  0.00    +0.000 C 
ATOM     31  C   UNL     1     111.770 129.800 137.840  0.00  0.00    +0.000 C 
BRANCH  29  32
ATOM     32  C   UNL     1     113.516 128.880 136.909  0.00  0.00    +0.000 C 
BRANCH  32  33
ATOM     33  O   UNL     1     113.162 128.281 136.466  0.00  0.00    +0.000 OA
BRANCH  33  35
ATOM     34  O   UNL     1     114.269 127.635 135.835  0.00  0.00    +0.000 OA
ATOM     35  C   UNL     1     113.582 127.594 136.290  0.00  0.00    +0.000 C 
BRANCH  35  36
ATOM     36  C   UNL     1     113.317 126.864 136.570  0.00  0.00    +0.000 C 
ATOM     37  C   UNL     1     112.784 126.420 136.124  0.00  0.00    +0.000 C 
BRANCH  37  39
ATOM     38  O   UNL     1     111.720 123.503 137.241  0.00  0.00    +0.000 OA
ATOM     39  C   UNL     1     112.518 125.691 136.404  0.00  0.00    +0.000 A 
ATOM     40  C   UNL     1     111.796 125.388 136.144  0.00  0.00    +0.000 A 
ATOM     41  C   UNL     1     112.974 125.264 136.942  0.00  0.00    +0.000 A 
ATOM     42  C   UNL     1     111.530 124.659 136.423  0.00  0.00    +0.000 A 
ATOM     43  C   UNL     1     112.709 124.535 137.221  0.00  0.00    +0.000 A 
ATOM     44  C   UNL     1     111.986 124.233 136.961  0.00  0.00    +0.000 A 
ENDBRANCH  37  39
ENDBRANCH  35  36
ENDBRANCH  33  35
ENDBRANCH  32  33
ENDBRANCH  29  32
ENDBRANCH   1  31
TORSDOF 8
ENDMDL
MODEL 10
REMARK VINA RESULT:      -9.5      1.477      5.256
REMARK  Name = 131752146
REMARK  8 active torsions:
REMARK  status: ('A' for Active; 'I' for Inactive)
REMARK    1  A    between atoms: O_2  and  C_19
REMARK    2  A    between atoms: O_2  and  C_21
REMARK    3  A    between atoms: O_6  and  C_20
REMARK    4  A    between atoms: O_6  and  C_25
REMARK    5  A    between atoms: C_17  and  C_20
REMARK    6  A    between atoms: C_22  and  C_27
REMARK    7  A    between atoms: C_25  and  C_32
REMARK    8  A    between atoms: C_38  and  C_39
REMARK                            x       y       z     vdW  Elec       q    Type
REMARK                         _______ _______ _______ _____ _____    ______ ____
ROOT
ATOM      1  O   UNL     1     112.116 128.205 135.870  0.00  0.00    +0.000 OA
ENDROOT
BRANCH   1   5
ATOM      2  O   UNL     1     113.946 127.283 136.623  0.00  0.00    +0.000 OA
ATOM      3  O   UNL     1     111.854 125.293 136.521  0.00  0.00    +0.000 OA
ATOM      4  O   UNL     1     114.517 124.554 137.467  0.00  0.00    +0.000 OA
ATOM      5  C   UNL     1     112.641 127.639 136.161  0.00  0.00    +0.000 A 
ATOM      6  C   UNL     1     113.421 127.848 136.332  0.00  0.00    +0.000 A 
ATOM      7  C   UNL     1     112.387 126.863 136.282  0.00  0.00    +0.000 A 
ATOM      8  C   UNL     1     112.912 126.297 136.573  0.00  0.00    +0.000 A 
ATOM      9  C   UNL     1     113.692 126.508 136.743  0.00  0.00    +0.000 A 
ATOM     10  C   UNL     1     112.635 125.493 136.695  0.00  0.00    +0.000 A 
ATOM     11  C   UNL     1     114.248 125.928 137.047  0.00  0.00    +0.000 A 
ATOM     12  C   UNL     1     113.177 124.900 136.998  0.00  0.00    +0.000 A 
ATOM     13  C   UNL     1     113.989 125.118 137.175  0.00  0.00    +0.000 A 
BRANCH   6  17
ATOM     14  O   UNL     1     114.503 129.859 134.612  0.00  0.00    +0.000 OA
ATOM     15  O   UNL     1     113.864 130.491 137.325  0.00  0.00    +0.000 OA
ATOM     16  O   UNL     1     114.437 130.950 135.848  0.00  0.00    +0.000 OA
ATOM     17  C   UNL     1     113.675 128.625 136.211  0.00  0.00    +0.000 A 
ATOM     18  C   UNL     1     113.642 129.170 136.828  0.00  0.00    +0.000 A 
ATOM     19  C   UNL     1     113.962 128.854 135.472  0.00  0.00    +0.000 A 
ATOM     20  C   UNL     1     114.216 129.629 135.352  0.00  0.00    +0.000 A 
ATOM     21  C   UNL     1     113.896 129.945 136.707  0.00  0.00    +0.000 A 
ATOM     22  C   UNL     1     114.183 130.175 135.969  0.00  0.00    +0.000 A 
ENDBRANCH   6  17
ENDBRANCH   1   5
BRANCH   1  31
ATOM     23  O   UNL     1     111.169 128.222 136.939  0.00  0.00    +0.000 OA
ATOM     24  O   UNL     1     108.986 128.243 136.915  0.00  0.00    +0.000 OA
ATOM     25  O   UNL     1     109.316 128.227 135.299  0.00  0.00    +0.000 OA
ATOM     26  O   UNL     1     110.881 128.208 134.776  0.00  0.00    +0.000 OA
ATOM     27  C   UNL     1     109.769 128.233 136.655  0.00  0.00    +0.000 C 
ATOM     28  C   UNL     1     109.934 128.225 135.846  0.00  0.00    +0.000 C 
ATOM     29  C   UNL     1     110.386 128.232 137.202  0.00  0.00    +0.000 C 
ATOM     30  C   UNL     1     110.716 128.216 135.585  0.00  0.00    +0.000 C 
ATOM     31  C   UNL     1     111.334 128.214 136.132  0.00  0.00    +0.000 C 
BRANCH  29  32
ATOM     32  C   UNL     1     110.222 128.240 138.009  0.00  0.00    +0.000 C 
BRANCH  32  33
ATOM     33  O   UNL     1     110.722 128.640 138.529  0.00  0.00    +0.000 OA
BRANCH  33  35
ATOM     34  O   UNL     1     110.208 128.474 139.852  0.00  0.00    +0.000 OA
ATOM     35  C   UNL     1     110.815 128.370 139.303  0.00  0.00    +0.000 C 
BRANCH  35  36
ATOM     36  C   UNL     1     111.515 127.996 139.528  0.00  0.00    +0.000 C 
ATOM     37  C   UNL     1     112.069 128.398 139.988  0.00  0.00    +0.000 C 
BRANCH  37  39
ATOM     38  O   UNL     1     114.869 126.904 140.891  0.00  0.00    +0.000 OA
ATOM     39  C   UNL     1     112.769 128.024 140.214  0.00  0.00    +0.000 A 
ATOM     40  C   UNL     1     113.453 128.469 140.336  0.00  0.00    +0.000 A 
ATOM     41  C   UNL     1     112.785 127.206 140.318  0.00  0.00    +0.000 A 
ATOM     42  C   UNL     1     114.153 128.096 140.561  0.00  0.00    +0.000 A 
ATOM     43  C   UNL     1     113.484 126.833 140.544  0.00  0.00    +0.000 A 
ATOM     44  C   UNL     1     114.168 127.278 140.665  0.00  0.00    +0.000 A 
ENDBRANCH  37  39
ENDBRANCH  35  36
ENDBRANCH  33  35
ENDBRANCH  32  33
ENDBRANCH  29  32
ENDBRANCH   1  31
TORSDOF 8
ENDMDL
