MODEL 1
REMARK VINA RESULT:     -11.2      0.000      0.000
REMARK  Name = 44258249
REMARK  7 active torsions:
REMARK  status: ('A' for Active; 'I' for Inactive)
REMARK    1  A    between atoms: O_3  and  C_28
REMARK    2  A    between atoms: O_3  and  C_33
REMARK    3  A    between atoms: O_4  and  C_29
REMARK    4  A    between atoms: O_4  and  C_32
REMARK    5  A    between atoms: C_26  and  C_30
REMARK    6  A    between atoms: C_27  and  C_31
REMARK    7  A    between atoms: C_39  and  C_41
REMARK                            x       y       z     vdW  Elec       q    Type
REMARK                         _______ _______ _______ _____ _____    ______ ____
ROOT
ATOM      1  O   UNL     1     111.120 128.605 136.529  0.00  0.00    +0.000 OA
ATOM      2  O   UNL     1     113.711 128.555 135.252  0.00  0.00    +0.000 OA
ATOM      3  O   UNL     1     112.644 129.378 134.738  0.00  0.00    +0.000 OA
ATOM      4  C   UNL     1     112.964 127.459 137.057  0.00  0.00    +0.000 A 
ATOM      5  C   UNL     1     112.159 127.758 137.087  0.00  0.00    +0.000 A 
ATOM      6  C   UNL     1     113.493 127.727 136.436  0.00  0.00    +0.000 A 
ATOM      7  C   UNL     1     111.894 128.322 136.495  0.00  0.00    +0.000 A 
ATOM      8  C   UNL     1     112.402 128.579 135.898  0.00  0.00    +0.000 A 
ATOM      9  C   UNL     1     110.854 129.146 135.966  0.00  0.00    +0.000 A 
ATOM     10  C   UNL     1     113.210 128.292 135.852  0.00  0.00    +0.000 A 
ATOM     11  C   UNL     1     112.136 129.121 135.335  0.00  0.00    +0.000 A 
ATOM     12  C   UNL     1     111.362 129.404 135.369  0.00  0.00    +0.000 A 
ENDROOT
BRANCH   9  18
ATOM     13  O   UNL     1     107.759 130.281 136.101  0.00  0.00    +0.000 OA
ATOM     14  O   UNL     1     108.044 128.714 135.673  0.00  0.00    +0.000 OA
ATOM     15  C   UNL     1     109.163 130.497 136.247  0.00  0.00    +0.000 A 
ATOM     16  C   UNL     1     109.937 130.213 136.214  0.00  0.00    +0.000 A 
ATOM     17  C   UNL     1     108.533 129.998 136.067  0.00  0.00    +0.000 A 
ATOM     18  C   UNL     1     110.080 129.430 136.000  0.00  0.00    +0.000 A 
ATOM     19  C   UNL     1     108.675 129.213 135.853  0.00  0.00    +0.000 A 
ATOM     20  C   UNL     1     109.449 128.930 135.819  0.00  0.00    +0.000 A 
BRANCH  15  21
ATOM     21  O   UNL     1     109.021 131.282 136.462  0.00  0.00    +0.000 OA
BRANCH  21  30
ATOM     22  O   UNL     1     109.091 131.140 137.882  0.00  0.00    +0.000 OA
ATOM     23  O   UNL     1     110.396 133.238 138.026  0.00  0.00    +0.000 OA
ATOM     24  O   UNL     1     110.032 132.397 139.398  0.00  0.00    +0.000 OA
ATOM     25  O   UNL     1     109.891 132.680 136.558  0.00  0.00    +0.000 OA
ATOM     26  C   UNL     1     109.961 132.539 137.978  0.00  0.00    +0.000 C 
ATOM     27  C   UNL     1     109.779 132.118 138.664  0.00  0.00    +0.000 C 
ATOM     28  C   UNL     1     109.708 132.260 137.244  0.00  0.00    +0.000 C 
ATOM     29  C   UNL     1     109.344 131.419 138.616  0.00  0.00    +0.000 C 
ATOM     30  C   UNL     1     109.273 131.560 137.196  0.00  0.00    +0.000 C 
BRANCH  29  33
ATOM     31  O   UNL     1     109.715 130.481 139.630  0.00  0.00    +0.000 OA
ATOM     32  O   UNL     1     108.426 131.097 139.662  0.00  0.00    +0.000 OA
ATOM     33  C   UNL     1     109.162 130.999 139.303  0.00  0.00    +0.000 C 
ENDBRANCH  29  33
ENDBRANCH  21  30
ENDBRANCH  15  21
ENDBRANCH   9  18
BRANCH   4  34
ATOM     34  O   UNL     1     113.228 126.918 137.621  0.00  0.00    +0.000 OA
BRANCH  34  43
ATOM     35  O   UNL     1     112.539 125.748 137.175  0.00  0.00    +0.000 OA
ATOM     36  O   UNL     1     114.599 124.414 137.491  0.00  0.00    +0.000 OA
ATOM     37  O   UNL     1     113.224 123.690 136.939  0.00  0.00    +0.000 OA
ATOM     38  O   UNL     1     114.601 126.028 137.832  0.00  0.00    +0.000 OA
ATOM     39  C   UNL     1     113.913 124.858 137.385  0.00  0.00    +0.000 C 
ATOM     40  C   UNL     1     113.225 124.496 137.110  0.00  0.00    +0.000 C 
ATOM     41  C   UNL     1     113.914 125.666 137.556  0.00  0.00    +0.000 C 
ATOM     42  C   UNL     1     112.538 124.941 137.004  0.00  0.00    +0.000 C 
ATOM     43  C   UNL     1     113.227 126.110 137.451  0.00  0.00    +0.000 C 
BRANCH  42  46
ATOM     44  O   UNL     1     111.300 124.277 137.265  0.00  0.00    +0.000 OA
ATOM     45  O   UNL     1     111.712 124.518 135.918  0.00  0.00    +0.000 OA
ATOM     46  C   UNL     1     111.850 124.579 136.729  0.00  0.00    +0.000 C 
ENDBRANCH  42  46
ENDBRANCH  34  43
ENDBRANCH   4  34
TORSDOF 7
ENDMDL
MODEL 2
REMARK VINA RESULT:     -11.1      1.464      6.041
REMARK  Name = 44258249
REMARK  7 active torsions:
REMARK  status: ('A' for Active; 'I' for Inactive)
REMARK    1  A    between atoms: O_3  and  C_28
REMARK    2  A    between atoms: O_3  and  C_33
REMARK    3  A    between atoms: O_4  and  C_29
REMARK    4  A    between atoms: O_4  and  C_32
REMARK    5  A    between atoms: C_26  and  C_30
REMARK    6  A    between atoms: C_27  and  C_31
REMARK    7  A    between atoms: C_39  and  C_41
REMARK                            x       y       z     vdW  Elec       q    Type
REMARK                         _______ _______ _______ _____ _____    ______ ____
ROOT
ATOM      1  O   UNL     1     110.287 128.157 136.148  0.00  0.00    +0.000 OA
ATOM      2  O   UNL     1     107.938 129.794 135.763  0.00  0.00    +0.000 OA
ATOM      3  O   UNL     1     107.856 128.355 135.724  0.00  0.00    +0.000 OA
ATOM      4  C   UNL     1     110.065 130.380 136.147  0.00  0.00    +0.000 A 
ATOM      5  C   UNL     1     110.426 129.601 136.197  0.00  0.00    +0.000 A 
ATOM      6  C   UNL     1     109.222 130.449 136.000  0.00  0.00    +0.000 A 
ATOM      7  C   UNL     1     109.936 128.901 136.099  0.00  0.00    +0.000 A 
ATOM      8  C   UNL     1     109.126 128.967 135.958  0.00  0.00    +0.000 A 
ATOM      9  C   UNL     1     109.828 127.478 136.055  0.00  0.00    +0.000 A 
ATOM     10  C   UNL     1     108.749 129.737 135.905  0.00  0.00    +0.000 A 
ATOM     11  C   UNL     1     108.666 128.289 135.865  0.00  0.00    +0.000 A 
ATOM     12  C   UNL     1     109.017 127.543 135.914  0.00  0.00    +0.000 A 
ENDROOT
BRANCH   9  18
ATOM     13  O   UNL     1     111.230 124.497 136.251  0.00  0.00    +0.000 OA
ATOM     14  O   UNL     1     110.946 125.179 134.776  0.00  0.00    +0.000 OA
ATOM     15  C   UNL     1     110.671 125.646 136.890  0.00  0.00    +0.000 A 
ATOM     16  C   UNL     1     110.321 126.391 136.842  0.00  0.00    +0.000 A 
ATOM     17  C   UNL     1     110.879 125.242 136.203  0.00  0.00    +0.000 A 
ATOM     18  C   UNL     1     110.178 126.732 136.104  0.00  0.00    +0.000 A 
ATOM     19  C   UNL     1     110.737 125.583 135.464  0.00  0.00    +0.000 A 
ATOM     20  C   UNL     1     110.386 126.329 135.416  0.00  0.00    +0.000 A 
BRANCH  15  21
ATOM     21  O   UNL     1     110.813 125.305 137.629  0.00  0.00    +0.000 OA
BRANCH  21  30
ATOM     22  O   UNL     1     112.035 125.981 137.931  0.00  0.00    +0.000 OA
ATOM     23  O   UNL     1     111.306 126.247 140.281  0.00  0.00    +0.000 OA
ATOM     24  O   UNL     1     112.771 126.834 139.801  0.00  0.00    +0.000 OA
ATOM     25  O   UNL     1     110.327 125.483 139.195  0.00  0.00    +0.000 OA
ATOM     26  C   UNL     1     111.549 126.158 139.498  0.00  0.00    +0.000 C 
ATOM     27  C   UNL     1     112.282 126.452 139.257  0.00  0.00    +0.000 C 
ATOM     28  C   UNL     1     111.060 125.776 138.955  0.00  0.00    +0.000 C 
ATOM     29  C   UNL     1     112.525 126.363 138.474  0.00  0.00    +0.000 C 
ATOM     30  C   UNL     1     111.303 125.687 138.172  0.00  0.00    +0.000 C 
BRANCH  29  33
ATOM     31  O   UNL     1     113.919 126.164 138.230  0.00  0.00    +0.000 OA
ATOM     32  O   UNL     1     113.329 127.445 138.000  0.00  0.00    +0.000 OA
ATOM     33  C   UNL     1     113.258 126.657 138.234  0.00  0.00    +0.000 C 
ENDBRANCH  29  33
ENDBRANCH  21  30
ENDBRANCH  15  21
ENDBRANCH   9  18
BRANCH   4  34
ATOM     34  O   UNL     1     110.527 131.057 136.240  0.00  0.00    +0.000 OA
BRANCH  34  43
ATOM     35  O   UNL     1     110.464 131.157 137.665  0.00  0.00    +0.000 OA
ATOM     36  O   UNL     1     110.215 133.613 137.482  0.00  0.00    +0.000 OA
ATOM     37  O   UNL     1     110.235 132.893 138.966  0.00  0.00    +0.000 OA
ATOM     38  O   UNL     1     110.362 132.695 136.119  0.00  0.00    +0.000 OA
ATOM     39  C   UNL     1     110.298 132.794 137.543  0.00  0.00    +0.000 C 
ATOM     40  C   UNL     1     110.308 132.435 138.285  0.00  0.00    +0.000 C 
ATOM     41  C   UNL     1     110.371 132.335 136.861  0.00  0.00    +0.000 C 
ATOM     42  C   UNL     1     110.391 131.616 138.346  0.00  0.00    +0.000 C 
ATOM     43  C   UNL     1     110.454 131.517 136.922  0.00  0.00    +0.000 C 
BRANCH  42  46
ATOM     44  O   UNL     1     111.119 131.126 139.473  0.00  0.00    +0.000 OA
ATOM     45  O   UNL     1     109.693 131.027 139.445  0.00  0.00    +0.000 OA
ATOM     46  C   UNL     1     110.400 131.256 139.088  0.00  0.00    +0.000 C 
ENDBRANCH  42  46
ENDBRANCH  34  43
ENDBRANCH   4  34
TORSDOF 7
ENDMDL
MODEL 3
REMARK VINA RESULT:     -10.9      1.827      3.187
REMARK  Name = 44258249
REMARK  7 active torsions:
REMARK  status: ('A' for Active; 'I' for Inactive)
REMARK    1  A    between atoms: O_3  and  C_28
REMARK    2  A    between atoms: O_3  and  C_33
REMARK    3  A    between atoms: O_4  and  C_29
REMARK    4  A    between atoms: O_4  and  C_32
REMARK    5  A    between atoms: C_26  and  C_30
REMARK    6  A    between atoms: C_27  and  C_31
REMARK    7  A    between atoms: C_39  and  C_41
REMARK                            x       y       z     vdW  Elec       q    Type
REMARK                         _______ _______ _______ _____ _____    ______ ____
ROOT
ATOM      1  O   UNL     1     112.543 128.573 138.401  0.00  0.00    +0.000 OA
ATOM      2  O   UNL     1     113.975 127.262 140.541  0.00  0.00    +0.000 OA
ATOM      3  O   UNL     1     114.099 128.682 140.323  0.00  0.00    +0.000 OA
ATOM      4  C   UNL     1     112.575 126.423 139.007  0.00  0.00    +0.000 A 
ATOM      5  C   UNL     1     112.382 127.141 138.576  0.00  0.00    +0.000 A 
ATOM      6  C   UNL     1     113.115 126.460 139.674  0.00  0.00    +0.000 A 
ATOM      7  C   UNL     1     112.732 127.888 138.819  0.00  0.00    +0.000 A 
ATOM      8  C   UNL     1     113.251 127.924 139.459  0.00  0.00    +0.000 A 
ATOM      9  C   UNL     1     112.873 129.296 138.624  0.00  0.00    +0.000 A 
ATOM     10  C   UNL     1     113.455 127.217 139.902  0.00  0.00    +0.000 A 
ATOM     11  C   UNL     1     113.581 128.646 139.682  0.00  0.00    +0.000 A 
ATOM     12  C   UNL     1     113.392 129.333 139.265  0.00  0.00    +0.000 A 
ENDROOT
BRANCH   9  18
ATOM     13  O   UNL     1     112.118 132.041 136.956  0.00  0.00    +0.000 OA
ATOM     14  O   UNL     1     113.335 131.062 136.425  0.00  0.00    +0.000 OA
ATOM     15  C   UNL     1     111.887 131.158 138.055  0.00  0.00    +0.000 A 
ATOM     16  C   UNL     1     112.075 130.471 138.472  0.00  0.00    +0.000 A 
ATOM     17  C   UNL     1     112.306 131.354 137.373  0.00  0.00    +0.000 A 
ATOM     18  C   UNL     1     112.684 129.982 138.207  0.00  0.00    +0.000 A 
ATOM     19  C   UNL     1     112.916 130.865 137.108  0.00  0.00    +0.000 A 
ATOM     20  C   UNL     1     113.104 130.179 137.525  0.00  0.00    +0.000 A 
BRANCH  15  21
ATOM     21  O   UNL     1     111.277 131.647 138.321  0.00  0.00    +0.000 OA
BRANCH  21  30
ATOM     22  O   UNL     1     110.148 130.862 137.932  0.00  0.00    +0.000 OA
ATOM     23  O   UNL     1     109.093 131.293 140.130  0.00  0.00    +0.000 OA
ATOM     24  O   UNL     1     108.316 130.365 139.009  0.00  0.00    +0.000 OA
ATOM     25  O   UNL     1     110.574 131.934 139.785  0.00  0.00    +0.000 OA
ATOM     26  C   UNL     1     109.445 131.150 139.397  0.00  0.00    +0.000 C 
ATOM     27  C   UNL     1     109.056 130.685 138.836  0.00  0.00    +0.000 C 
ATOM     28  C   UNL     1     110.185 131.470 139.225  0.00  0.00    +0.000 C 
ATOM     29  C   UNL     1     109.408 130.542 138.104  0.00  0.00    +0.000 C 
ATOM     30  C   UNL     1     110.537 131.326 138.493  0.00  0.00    +0.000 C 
BRANCH  29  33
ATOM     31  O   UNL     1     109.092 129.256 137.564  0.00  0.00    +0.000 OA
ATOM     32  O   UNL     1     108.554 130.436 136.964  0.00  0.00    +0.000 OA
ATOM     33  C   UNL     1     109.018 130.078 137.544  0.00  0.00    +0.000 C 
ENDBRANCH  29  33
ENDBRANCH  21  30
ENDBRANCH  15  21
ENDBRANCH   9  18
BRANCH   4  34
ATOM     34  O   UNL     1     112.243 125.702 138.782  0.00  0.00    +0.000 OA
BRANCH  34  43
ATOM     35  O   UNL     1     113.338 125.321 137.945  0.00  0.00    +0.000 OA
ATOM     36  O   UNL     1     111.781 124.083 136.473  0.00  0.00    +0.000 OA
ATOM     37  O   UNL     1     113.393 124.115 136.127  0.00  0.00    +0.000 OA
ATOM     38  O   UNL     1     111.205 124.876 137.800  0.00  0.00    +0.000 OA
ATOM     39  C   UNL     1     112.300 124.495 136.964  0.00  0.00    +0.000 C 
ATOM     40  C   UNL     1     113.105 124.511 136.791  0.00  0.00    +0.000 C 
ATOM     41  C   UNL     1     112.011 124.892 137.627  0.00  0.00    +0.000 C 
ATOM     42  C   UNL     1     113.624 124.924 137.282  0.00  0.00    +0.000 C 
ATOM     43  C   UNL     1     112.530 125.305 138.118  0.00  0.00    +0.000 C 
BRANCH  42  46
ATOM     44  O   UNL     1     114.942 124.406 137.476  0.00  0.00    +0.000 OA
ATOM     45  O   UNL     1     114.727 125.491 136.571  0.00  0.00    +0.000 OA
ATOM     46  C   UNL     1     114.431 124.941 137.109  0.00  0.00    +0.000 C 
ENDBRANCH  42  46
ENDBRANCH  34  43
ENDBRANCH   4  34
TORSDOF 7
ENDMDL
MODEL 4
REMARK VINA RESULT:     -10.9      2.799      5.510
REMARK  Name = 44258249
REMARK  7 active torsions:
REMARK  status: ('A' for Active; 'I' for Inactive)
REMARK    1  A    between atoms: O_3  and  C_28
REMARK    2  A    between atoms: O_3  and  C_33
REMARK    3  A    between atoms: O_4  and  C_29
REMARK    4  A    between atoms: O_4  and  C_32
REMARK    5  A    between atoms: C_26  and  C_30
REMARK    6  A    between atoms: C_27  and  C_31
REMARK    7  A    between atoms: C_39  and  C_41
REMARK                            x       y       z     vdW  Elec       q    Type
REMARK                         _______ _______ _______ _____ _____    ______ ____
ROOT
ATOM      1  O   UNL     1     112.997 128.174 137.275  0.00  0.00    +0.000 OA
ATOM      2  O   UNL     1     114.267 130.566 136.271  0.00  0.00    +0.000 OA
ATOM      3  O   UNL     1     114.400 129.307 135.580  0.00  0.00    +0.000 OA
ATOM      4  C   UNL     1     112.994 130.255 138.087  0.00  0.00    +0.000 A 
ATOM      5  C   UNL     1     112.831 129.415 138.010  0.00  0.00    +0.000 A 
ATOM      6  C   UNL     1     113.481 130.649 137.499  0.00  0.00    +0.000 A 
ATOM      7  C   UNL     1     113.157 128.979 137.344  0.00  0.00    +0.000 A 
ATOM      8  C   UNL     1     113.625 129.357 136.779  0.00  0.00    +0.000 A 
ATOM      9  C   UNL     1     113.304 127.745 136.641  0.00  0.00    +0.000 A 
ATOM     10  C   UNL     1     113.799 130.196 136.840  0.00  0.00    +0.000 A 
ATOM     11  C   UNL     1     113.932 128.929 136.145  0.00  0.00    +0.000 A 
ATOM     12  C   UNL     1     113.772 128.122 136.075  0.00  0.00    +0.000 A 
ENDROOT
BRANCH   9  18
ATOM     13  O   UNL     1     112.663 124.520 136.363  0.00  0.00    +0.000 OA
ATOM     14  O   UNL     1     114.219 125.038 136.543  0.00  0.00    +0.000 OA
ATOM     15  C   UNL     1     112.206 125.872 136.413  0.00  0.00    +0.000 A 
ATOM     16  C   UNL     1     112.366 126.679 136.482  0.00  0.00    +0.000 A 
ATOM     17  C   UNL     1     112.823 125.326 136.433  0.00  0.00    +0.000 A 
ATOM     18  C   UNL     1     113.144 126.939 136.572  0.00  0.00    +0.000 A 
ATOM     19  C   UNL     1     113.602 125.586 136.522  0.00  0.00    +0.000 A 
ATOM     20  C   UNL     1     113.762 126.392 136.592  0.00  0.00    +0.000 A 
BRANCH  15  21
ATOM     21  O   UNL     1     111.428 125.613 136.323  0.00  0.00    +0.000 OA
BRANCH  21  30
ATOM     22  O   UNL     1     110.983 125.769 137.672  0.00  0.00    +0.000 OA
ATOM     23  O   UNL     1     108.851 126.727 136.857  0.00  0.00    +0.000 OA
ATOM     24  O   UNL     1     109.116 126.564 138.477  0.00  0.00    +0.000 OA
ATOM     25  O   UNL     1     110.007 126.252 135.780  0.00  0.00    +0.000 OA
ATOM     26  C   UNL     1     109.561 126.408 137.128  0.00  0.00    +0.000 C 
ATOM     27  C   UNL     1     109.694 126.326 137.940  0.00  0.00    +0.000 C 
ATOM     28  C   UNL     1     110.139 126.170 136.591  0.00  0.00    +0.000 C 
ATOM     29  C   UNL     1     110.405 126.006 138.211  0.00  0.00    +0.000 C 
ATOM     30  C   UNL     1     110.850 125.851 136.862  0.00  0.00    +0.000 C 
BRANCH  29  33
ATOM     31  O   UNL     1     110.800 126.569 139.464  0.00  0.00    +0.000 OA
ATOM     32  O   UNL     1     110.405 125.198 139.388  0.00  0.00    +0.000 OA
ATOM     33  C   UNL     1     110.537 125.925 139.021  0.00  0.00    +0.000 C 
ENDBRANCH  29  33
ENDBRANCH  21  30
ENDBRANCH  15  21
ENDBRANCH   9  18
BRANCH   4  34
ATOM     34  O   UNL     1     112.686 130.681 138.722  0.00  0.00    +0.000 OA
BRANCH  34  43
ATOM     35  O   UNL     1     113.798 130.731 139.617  0.00  0.00    +0.000 OA
ATOM     36  O   UNL     1     112.342 129.975 141.470  0.00  0.00    +0.000 OA
ATOM     37  O   UNL     1     113.940 130.277 141.747  0.00  0.00    +0.000 OA
ATOM     38  O   UNL     1     111.715 130.177 139.958  0.00  0.00    +0.000 OA
ATOM     39  C   UNL     1     112.828 130.227 140.853  0.00  0.00    +0.000 C 
ATOM     40  C   UNL     1     113.626 130.378 140.991  0.00  0.00    +0.000 C 
ATOM     41  C   UNL     1     112.513 130.328 140.096  0.00  0.00    +0.000 C 
ATOM     42  C   UNL     1     114.112 130.630 140.374  0.00  0.00    +0.000 C 
ATOM     43  C   UNL     1     112.999 130.580 139.479  0.00  0.00    +0.000 C 
BRANCH  42  46
ATOM     44  O   UNL     1     115.157 131.543 140.716  0.00  0.00    +0.000 OA
ATOM     45  O   UNL     1     115.464 130.173 140.446  0.00  0.00    +0.000 OA
ATOM     46  C   UNL     1     114.911 130.781 140.512  0.00  0.00    +0.000 C 
ENDBRANCH  42  46
ENDBRANCH  34  43
ENDBRANCH   4  34
TORSDOF 7
ENDMDL
MODEL 5
REMARK VINA RESULT:     -10.9      1.662      2.424
REMARK  Name = 44258249
REMARK  7 active torsions:
REMARK  status: ('A' for Active; 'I' for Inactive)
REMARK    1  A    between atoms: O_3  and  C_28
REMARK    2  A    between atoms: O_3  and  C_33
REMARK    3  A    between atoms: O_4  and  C_29
REMARK    4  A    between atoms: O_4  and  C_32
REMARK    5  A    between atoms: C_26  and  C_30
REMARK    6  A    between atoms: C_27  and  C_31
REMARK    7  A    between atoms: C_39  and  C_41
REMARK                            x       y       z     vdW  Elec       q    Type
REMARK                         _______ _______ _______ _____ _____    ______ ____
ROOT
ATOM      1  O   UNL     1     110.975 128.349 136.963  0.00  0.00    +0.000 OA
ATOM      2  O   UNL     1     113.723 128.111 136.103  0.00  0.00    +0.000 OA
ATOM      3  O   UNL     1     112.798 128.973 135.409  0.00  0.00    +0.000 OA
ATOM      4  C   UNL     1     112.646 127.124 137.800  0.00  0.00    +0.000 A 
ATOM      5  C   UNL     1     111.865 127.467 137.697  0.00  0.00    +0.000 A 
ATOM      6  C   UNL     1     113.278 127.340 137.261  0.00  0.00    +0.000 A 
ATOM      7  C   UNL     1     111.727 128.023 137.056  0.00  0.00    +0.000 A 
ATOM      8  C   UNL     1     112.335 128.231 136.538  0.00  0.00    +0.000 A 
ATOM      9  C   UNL     1     110.831 128.884 136.351  0.00  0.00    +0.000 A 
ATOM     10  C   UNL     1     113.122 127.898 136.625  0.00  0.00    +0.000 A 
ATOM     11  C   UNL     1     112.191 128.766 135.926  0.00  0.00    +0.000 A 
ATOM     12  C   UNL     1     111.439 129.092 135.833  0.00  0.00    +0.000 A 
ENDROOT
BRANCH   9  18
ATOM     13  O   UNL     1     107.825 130.191 135.976  0.00  0.00    +0.000 OA
ATOM     14  O   UNL     1     108.071 128.590 135.667  0.00  0.00    +0.000 OA
ATOM     15  C   UNL     1     109.204 130.338 136.317  0.00  0.00    +0.000 A 
ATOM     16  C   UNL     1     109.956 130.011 136.411  0.00  0.00    +0.000 A 
ATOM     17  C   UNL     1     108.577 129.865 136.069  0.00  0.00    +0.000 A 
ATOM     18  C   UNL     1     110.079 129.211 136.257  0.00  0.00    +0.000 A 
ATOM     19  C   UNL     1     108.700 129.063 135.915  0.00  0.00    +0.000 A 
ATOM     20  C   UNL     1     109.452 128.736 136.009  0.00  0.00    +0.000 A 
BRANCH  15  21
ATOM     21  O   UNL     1     109.081 131.140 136.472  0.00  0.00    +0.000 OA
BRANCH  21  30
ATOM     22  O   UNL     1     109.059 131.082 137.900  0.00  0.00    +0.000 OA
ATOM     23  O   UNL     1     110.414 133.151 138.003  0.00  0.00    +0.000 OA
ATOM     24  O   UNL     1     109.940 132.405 139.396  0.00  0.00    +0.000 OA
ATOM     25  O   UNL     1     109.984 132.519 136.541  0.00  0.00    +0.000 OA
ATOM     26  C   UNL     1     109.962 132.462 137.968  0.00  0.00    +0.000 C 
ATOM     27  C   UNL     1     109.725 132.088 138.666  0.00  0.00    +0.000 C 
ATOM     28  C   UNL     1     109.747 132.145 137.238  0.00  0.00    +0.000 C 
ATOM     29  C   UNL     1     109.273 131.398 138.631  0.00  0.00    +0.000 C 
ATOM     30  C   UNL     1     109.295 131.456 137.203  0.00  0.00    +0.000 C 
BRANCH  29  33
ATOM     31  O   UNL     1     109.556 130.519 139.722  0.00  0.00    +0.000 OA
ATOM     32  O   UNL     1     108.282 131.160 139.631  0.00  0.00    +0.000 OA
ATOM     33  C   UNL     1     109.037 131.026 139.328  0.00  0.00    +0.000 C 
ENDBRANCH  29  33
ENDBRANCH  21  30
ENDBRANCH  15  21
ENDBRANCH   9  18
BRANCH   4  34
ATOM     34  O   UNL     1     112.787 126.589 138.412  0.00  0.00    +0.000 OA
BRANCH  34  43
ATOM     35  O   UNL     1     113.298 127.493 139.394  0.00  0.00    +0.000 OA
ATOM     36  O   UNL     1     111.936 126.374 141.132  0.00  0.00    +0.000 OA
ATOM     37  O   UNL     1     112.901 127.650 141.534  0.00  0.00    +0.000 OA
ATOM     38  O   UNL     1     111.879 125.844 139.570  0.00  0.00    +0.000 OA
ATOM     39  C   UNL     1     112.390 126.747 140.553  0.00  0.00    +0.000 C 
ATOM     40  C   UNL     1     112.872 127.385 140.754  0.00  0.00    +0.000 C 
ATOM     41  C   UNL     1     112.361 126.481 139.772  0.00  0.00    +0.000 C 
ATOM     42  C   UNL     1     113.326 127.757 140.175  0.00  0.00    +0.000 C 
ATOM     43  C   UNL     1     112.815 126.854 139.193  0.00  0.00    +0.000 C 
BRANCH  42  46
ATOM     44  O   UNL     1     114.581 128.262 140.637  0.00  0.00    +0.000 OA
ATOM     45  O   UNL     1     113.521 129.166 140.316  0.00  0.00    +0.000 OA
ATOM     46  C   UNL     1     113.809 128.395 140.376  0.00  0.00    +0.000 C 
ENDBRANCH  42  46
ENDBRANCH  34  43
ENDBRANCH   4  34
TORSDOF 7
ENDMDL
MODEL 6
REMARK VINA RESULT:     -10.9      2.529      4.869
REMARK  Name = 44258249
REMARK  7 active torsions:
REMARK  status: ('A' for Active; 'I' for Inactive)
REMARK    1  A    between atoms: O_3  and  C_28
REMARK    2  A    between atoms: O_3  and  C_33
REMARK    3  A    between atoms: O_4  and  C_29
REMARK    4  A    between atoms: O_4  and  C_32
REMARK    5  A    between atoms: C_26  and  C_30
REMARK    6  A    between atoms: C_27  and  C_31
REMARK    7  A    between atoms: C_39  and  C_41
REMARK                            x       y       z     vdW  Elec       q    Type
REMARK                         _______ _______ _______ _____ _____    ______ ____
ROOT
ATOM      1  O   UNL     1     111.710 126.583 137.945  0.00  0.00    +0.000 OA
ATOM      2  O   UNL     1     111.475 126.165 140.794  0.00  0.00    +0.000 OA
ATOM      3  O   UNL     1     110.542 125.562 139.875  0.00  0.00    +0.000 OA
ATOM      4  C   UNL     1     112.966 127.357 139.623  0.00  0.00    +0.000 A 
ATOM      5  C   UNL     1     112.676 127.214 138.827  0.00  0.00    +0.000 A 
ATOM      6  C   UNL     1     112.561 127.003 140.292  0.00  0.00    +0.000 A 
ATOM      7  C   UNL     1     111.983 126.717 138.711  0.00  0.00    +0.000 A 
ATOM      8  C   UNL     1     111.594 126.377 139.354  0.00  0.00    +0.000 A 
ATOM      9  C   UNL     1     111.046 126.108 137.822  0.00  0.00    +0.000 A 
ATOM     10  C   UNL     1     111.870 126.509 140.157  0.00  0.00    +0.000 A 
ATOM     11  C   UNL     1     110.931 125.902 139.231  0.00  0.00    +0.000 A 
ATOM     12  C   UNL     1     110.657 125.767 138.465  0.00  0.00    +0.000 A 
ENDROOT
BRANCH   9  18
ATOM     13  O   UNL     1     109.948 125.570 134.757  0.00  0.00    +0.000 OA
ATOM     14  O   UNL     1     111.110 124.591 135.400  0.00  0.00    +0.000 OA
ATOM     15  C   UNL     1     109.916 126.327 135.967  0.00  0.00    +0.000 A 
ATOM     16  C   UNL     1     110.191 126.462 136.734  0.00  0.00    +0.000 A 
ATOM     17  C   UNL     1     110.222 125.704 135.523  0.00  0.00    +0.000 A 
ATOM     18  C   UNL     1     110.772 125.973 137.056  0.00  0.00    +0.000 A 
ATOM     19  C   UNL     1     110.804 125.215 135.845  0.00  0.00    +0.000 A 
ATOM     20  C   UNL     1     111.078 125.349 136.611  0.00  0.00    +0.000 A 
BRANCH  15  21
ATOM     21  O   UNL     1     109.335 126.817 135.646  0.00  0.00    +0.000 OA
BRANCH  21  30
ATOM     22  O   UNL     1     110.155 127.981 135.521  0.00  0.00    +0.000 OA
ATOM     23  O   UNL     1     108.216 129.409 136.096  0.00  0.00    +0.000 OA
ATOM     24  O   UNL     1     109.683 130.096 135.780  0.00  0.00    +0.000 OA
ATOM     25  O   UNL     1     108.043 127.769 136.029  0.00  0.00    +0.000 OA
ATOM     26  C   UNL     1     108.862 128.932 135.905  0.00  0.00    +0.000 C 
ATOM     27  C   UNL     1     109.596 129.276 135.747  0.00  0.00    +0.000 C 
ATOM     28  C   UNL     1     108.776 128.113 135.871  0.00  0.00    +0.000 C 
ATOM     29  C   UNL     1     110.242 128.800 135.555  0.00  0.00    +0.000 C 
ATOM     30  C   UNL     1     109.422 127.637 135.679  0.00  0.00    +0.000 C 
BRANCH  29  33
ATOM     31  O   UNL     1     111.482 129.342 136.018  0.00  0.00    +0.000 OA
ATOM     32  O   UNL     1     111.201 129.292 134.617  0.00  0.00    +0.000 OA
ATOM     33  C   UNL     1     110.975 129.145 135.397  0.00  0.00    +0.000 C 
ENDBRANCH  29  33
ENDBRANCH  21  30
ENDBRANCH  15  21
ENDBRANCH   9  18
BRANCH   4  34
ATOM     34  O   UNL     1     113.629 127.833 139.743  0.00  0.00    +0.000 OA
BRANCH  34  43
ATOM     35  O   UNL     1     112.929 129.070 139.596  0.00  0.00    +0.000 OA
ATOM     36  O   UNL     1     114.474 130.136 141.209  0.00  0.00    +0.000 OA
ATOM     37  O   UNL     1     113.259 131.017 140.524  0.00  0.00    +0.000 OA
ATOM     38  O   UNL     1     114.659 128.544 140.818  0.00  0.00    +0.000 OA
ATOM     39  C   UNL     1     113.959 129.781 140.671  0.00  0.00    +0.000 C 
ATOM     40  C   UNL     1     113.352 130.221 140.329  0.00  0.00    +0.000 C 
ATOM     41  C   UNL     1     114.052 128.984 140.476  0.00  0.00    +0.000 C 
ATOM     42  C   UNL     1     112.837 129.866 139.791  0.00  0.00    +0.000 C 
ATOM     43  C   UNL     1     113.537 128.629 139.939  0.00  0.00    +0.000 C 
BRANCH  42  46
ATOM     44  O   UNL     1     112.365 130.720 138.748  0.00  0.00    +0.000 OA
ATOM     45  O   UNL     1     111.486 130.332 139.806  0.00  0.00    +0.000 OA
ATOM     46  C   UNL     1     112.229 130.306 139.449  0.00  0.00    +0.000 C 
ENDBRANCH  42  46
ENDBRANCH  34  43
ENDBRANCH   4  34
TORSDOF 7
ENDMDL
MODEL 7
REMARK VINA RESULT:     -10.8      1.514      2.926
REMARK  Name = 44258249
REMARK  7 active torsions:
REMARK  status: ('A' for Active; 'I' for Inactive)
REMARK    1  A    between atoms: O_3  and  C_28
REMARK    2  A    between atoms: O_3  and  C_33
REMARK    3  A    between atoms: O_4  and  C_29
REMARK    4  A    between atoms: O_4  and  C_32
REMARK    5  A    between atoms: C_26  and  C_30
REMARK    6  A    between atoms: C_27  and  C_31
REMARK    7  A    between atoms: C_39  and  C_41
REMARK                            x       y       z     vdW  Elec       q    Type
REMARK                         _______ _______ _______ _____ _____    ______ ____
ROOT
ATOM      1  O   UNL     1     110.829 129.158 138.133  0.00  0.00    +0.000 OA
ATOM      2  O   UNL     1     113.438 128.105 138.789  0.00  0.00    +0.000 OA
ATOM      3  O   UNL     1     112.704 128.913 139.731  0.00  0.00    +0.000 OA
ATOM      4  C   UNL     1     112.217 127.891 136.924  0.00  0.00    +0.000 A 
ATOM      5  C   UNL     1     111.526 128.350 137.148  0.00  0.00    +0.000 A 
ATOM      6  C   UNL     1     112.867 127.806 137.478  0.00  0.00    +0.000 A 
ATOM      7  C   UNL     1     111.495 128.719 137.924  0.00  0.00    +0.000 A 
ATOM      8  C   UNL     1     112.120 128.637 138.456  0.00  0.00    +0.000 A 
ATOM      9  C   UNL     1     110.788 129.516 138.875  0.00  0.00    +0.000 A 
ATOM     10  C   UNL     1     112.818 128.182 138.250  0.00  0.00    +0.000 A 
ATOM     11  C   UNL     1     112.079 128.995 139.199  0.00  0.00    +0.000 A 
ATOM     12  C   UNL     1     111.413 129.435 139.408  0.00  0.00    +0.000 A 
ENDROOT
BRANCH   9  18
ATOM     13  O   UNL     1     108.126 131.276 139.713  0.00  0.00    +0.000 OA
ATOM     14  O   UNL     1     108.248 129.697 140.173  0.00  0.00    +0.000 OA
ATOM     15  C   UNL     1     109.395 131.186 139.065  0.00  0.00    +0.000 A 
ATOM     16  C   UNL     1     110.061 130.746 138.855  0.00  0.00    +0.000 A 
ATOM     17  C   UNL     1     108.792 130.836 139.504  0.00  0.00    +0.000 A 
ATOM     18  C   UNL     1     110.123 129.956 139.085  0.00  0.00    +0.000 A 
ATOM     19  C   UNL     1     108.853 130.046 139.734  0.00  0.00    +0.000 A 
ATOM     20  C   UNL     1     109.518 129.606 139.524  0.00  0.00    +0.000 A 
BRANCH  15  21
ATOM     21  O   UNL     1     109.334 131.976 138.835  0.00  0.00    +0.000 OA
BRANCH  21  30
ATOM     22  O   UNL     1     108.940 131.797 137.473  0.00  0.00    +0.000 OA
ATOM     23  O   UNL     1     110.536 133.557 136.779  0.00  0.00    +0.000 OA
ATOM     24  O   UNL     1     109.610 132.790 135.649  0.00  0.00    +0.000 OA
ATOM     25  O   UNL     1     110.398 133.149 138.372  0.00  0.00    +0.000 OA
ATOM     26  C   UNL     1     110.004 132.970 137.011  0.00  0.00    +0.000 C 
ATOM     27  C   UNL     1     109.540 132.587 136.445  0.00  0.00    +0.000 C 
ATOM     28  C   UNL     1     109.935 132.766 137.807  0.00  0.00    +0.000 C 
ATOM     29  C   UNL     1     109.008 132.000 136.676  0.00  0.00    +0.000 C 
ATOM     30  C   UNL     1     109.403 132.180 138.038  0.00  0.00    +0.000 C 
BRANCH  29  33
ATOM     31  O   UNL     1     107.784 131.890 135.946  0.00  0.00    +0.000 OA
ATOM     32  O   UNL     1     108.845 130.962 135.709  0.00  0.00    +0.000 OA
ATOM     33  C   UNL     1     108.546 131.618 136.111  0.00  0.00    +0.000 C 
ENDBRANCH  29  33
ENDBRANCH  21  30
ENDBRANCH  15  21
ENDBRANCH   9  18
BRANCH   4  34
ATOM     34  O   UNL     1     112.255 127.534 136.181  0.00  0.00    +0.000 OA
BRANCH  34  43
ATOM     35  O   UNL     1     111.998 126.179 136.555  0.00  0.00    +0.000 OA
ATOM     36  O   UNL     1     110.459 125.940 134.631  0.00  0.00    +0.000 OA
ATOM     37  O   UNL     1     110.715 124.666 135.647  0.00  0.00    +0.000 OA
ATOM     38  O   UNL     1     111.230 127.375 134.898  0.00  0.00    +0.000 OA
ATOM     39  C   UNL     1     110.972 126.020 135.273  0.00  0.00    +0.000 C 
ATOM     40  C   UNL     1     111.099 125.383 135.780  0.00  0.00    +0.000 C 
ATOM     41  C   UNL     1     111.357 126.738 135.406  0.00  0.00    +0.000 C 
ATOM     42  C   UNL     1     111.612 125.462 136.421  0.00  0.00    +0.000 C 
ATOM     43  C   UNL     1     111.870 126.817 136.047  0.00  0.00    +0.000 C 
BRANCH  42  46
ATOM     44  O   UNL     1     112.371 124.310 136.794  0.00  0.00    +0.000 OA
ATOM     45  O   UNL     1     111.239 124.703 137.573  0.00  0.00    +0.000 OA
ATOM     46  C   UNL     1     111.740 124.825 136.929  0.00  0.00    +0.000 C 
ENDBRANCH  42  46
ENDBRANCH  34  43
ENDBRANCH   4  34
TORSDOF 7
ENDMDL
MODEL 8
REMARK VINA RESULT:     -10.8      1.359      2.724
REMARK  Name = 44258249
REMARK  7 active torsions:
REMARK  status: ('A' for Active; 'I' for Inactive)
REMARK    1  A    between atoms: O_3  and  C_28
REMARK    2  A    between atoms: O_3  and  C_33
REMARK    3  A    between atoms: O_4  and  C_29
REMARK    4  A    between atoms: O_4  and  C_32
REMARK    5  A    between atoms: C_26  and  C_30
REMARK    6  A    between atoms: C_27  and  C_31
REMARK    7  A    between atoms: C_39  and  C_41
REMARK                            x       y       z     vdW  Elec       q    Type
REMARK                         _______ _______ _______ _____ _____    ______ ____
ROOT
ATOM      1  O   UNL     1     111.812 129.682 137.159  0.00  0.00    +0.000 OA
ATOM      2  O   UNL     1     114.506 129.539 136.126  0.00  0.00    +0.000 OA
ATOM      3  O   UNL     1     114.037 130.712 136.823  0.00  0.00    +0.000 OA
ATOM      4  C   UNL     1     112.844 128.040 136.049  0.00  0.00    +0.000 A 
ATOM      5  C   UNL     1     112.232 128.477 136.466  0.00  0.00    +0.000 A 
ATOM      6  C   UNL     1     113.616 128.397 135.933  0.00  0.00    +0.000 A 
ATOM      7  C   UNL     1     112.402 129.267 136.760  0.00  0.00    +0.000 A 
ATOM      8  C   UNL     1     113.144 129.610 136.648  0.00  0.00    +0.000 A 
ATOM      9  C   UNL     1     111.963 130.441 137.446  0.00  0.00    +0.000 A 
ATOM     10  C   UNL     1     113.767 129.188 136.234  0.00  0.00    +0.000 A 
ATOM     11  C   UNL     1     113.296 130.369 136.935  0.00  0.00    +0.000 A 
ATOM     12  C   UNL     1     112.705 130.785 137.334  0.00  0.00    +0.000 A 
ENDROOT
BRANCH   9  18
ATOM     13  O   UNL     1     109.601 132.103 139.041  0.00  0.00    +0.000 OA
ATOM     14  O   UNL     1     110.556 131.038 139.862  0.00  0.00    +0.000 OA
ATOM     15  C   UNL     1     110.304 131.805 137.834  0.00  0.00    +0.000 A 
ATOM     16  C   UNL     1     110.894 131.389 137.435  0.00  0.00    +0.000 A 
ATOM     17  C   UNL     1     110.191 131.688 138.642  0.00  0.00    +0.000 A 
ATOM     18  C   UNL     1     111.372 130.856 137.845  0.00  0.00    +0.000 A 
ATOM     19  C   UNL     1     110.669 131.154 139.053  0.00  0.00    +0.000 A 
ATOM     20  C   UNL     1     111.260 130.739 138.654  0.00  0.00    +0.000 A 
BRANCH  15  21
ATOM     21  O   UNL     1     109.826 132.338 137.424  0.00  0.00    +0.000 OA
BRANCH  21  30
ATOM     22  O   UNL     1     109.004 131.420 136.700  0.00  0.00    +0.000 OA
ATOM     23  O   UNL     1     109.280 132.788 134.655  0.00  0.00    +0.000 OA
ATOM     24  O   UNL     1     108.366 131.415 134.612  0.00  0.00    +0.000 OA
ATOM     25  O   UNL     1     110.009 133.249 136.061  0.00  0.00    +0.000 OA
ATOM     26  C   UNL     1     109.188 132.332 135.336  0.00  0.00    +0.000 C 
ATOM     27  C   UNL     1     108.730 131.645 135.315  0.00  0.00    +0.000 C 
ATOM     28  C   UNL     1     109.552 132.563 136.039  0.00  0.00    +0.000 C 
ATOM     29  C   UNL     1     108.639 131.189 135.997  0.00  0.00    +0.000 C 
ATOM     30  C   UNL     1     109.461 132.107 136.721  0.00  0.00    +0.000 C 
BRANCH  29  33
ATOM     31  O   UNL     1     108.532 129.779 135.789  0.00  0.00    +0.000 OA
ATOM     32  O   UNL     1     107.374 130.541 136.138  0.00  0.00    +0.000 OA
ATOM     33  C   UNL     1     108.182 130.503 135.975  0.00  0.00    +0.000 C 
ENDBRANCH  29  33
ENDBRANCH  21  30
ENDBRANCH  15  21
ENDBRANCH   9  18
BRANCH   4  34
ATOM     34  O   UNL     1     112.690 127.282 135.763  0.00  0.00    +0.000 OA
BRANCH  34  43
ATOM     35  O   UNL     1     113.242 126.552 136.861  0.00  0.00    +0.000 OA
ATOM     36  O   UNL     1     111.401 124.907 136.694  0.00  0.00    +0.000 OA
ATOM     37  O   UNL     1     112.567 124.726 137.846  0.00  0.00    +0.000 OA
ATOM     38  O   UNL     1     111.462 126.185 135.652  0.00  0.00    +0.000 OA
ATOM     39  C   UNL     1     112.014 125.455 136.750  0.00  0.00    +0.000 C 
ATOM     40  C   UNL     1     112.597 125.365 137.326  0.00  0.00    +0.000 C 
ATOM     41  C   UNL     1     112.045 126.094 136.228  0.00  0.00    +0.000 C 
ATOM     42  C   UNL     1     113.211 125.913 137.381  0.00  0.00    +0.000 C 
ATOM     43  C   UNL     1     112.659 126.643 136.284  0.00  0.00    +0.000 C 
BRANCH  42  46
ATOM     44  O   UNL     1     114.487 125.409 137.781  0.00  0.00    +0.000 OA
ATOM     45  O   UNL     1     113.686 126.145 138.709  0.00  0.00    +0.000 OA
ATOM     46  C   UNL     1     113.795 125.823 137.957  0.00  0.00    +0.000 C 
ENDBRANCH  42  46
ENDBRANCH  34  43
ENDBRANCH   4  34
TORSDOF 7
ENDMDL
MODEL 9
REMARK VINA RESULT:     -10.8      1.739      3.427
REMARK  Name = 44258249
REMARK  7 active torsions:
REMARK  status: ('A' for Active; 'I' for Inactive)
REMARK    1  A    between atoms: O_3  and  C_28
REMARK    2  A    between atoms: O_3  and  C_33
REMARK    3  A    between atoms: O_4  and  C_29
REMARK    4  A    between atoms: O_4  and  C_32
REMARK    5  A    between atoms: C_26  and  C_30
REMARK    6  A    between atoms: C_27  and  C_31
REMARK    7  A    between atoms: C_39  and  C_41
REMARK                            x       y       z     vdW  Elec       q    Type
REMARK                         _______ _______ _______ _____ _____    ______ ____
ROOT
ATOM      1  O   UNL     1     110.082 130.014 136.751  0.00  0.00    +0.000 OA
ATOM      2  O   UNL     1     108.056 128.360 135.525  0.00  0.00    +0.000 OA
ATOM      3  O   UNL     1     107.723 129.640 136.099  0.00  0.00    +0.000 OA
ATOM      4  C   UNL     1     110.252 128.008 135.782  0.00  0.00    +0.000 A 
ATOM      5  C   UNL     1     110.471 128.733 136.188  0.00  0.00    +0.000 A 
ATOM      6  C   UNL     1     109.434 127.878 135.556  0.00  0.00    +0.000 A 
ATOM      7  C   UNL     1     109.866 129.320 136.362  0.00  0.00    +0.000 A 
ATOM      8  C   UNL     1     109.080 129.195 136.144  0.00  0.00    +0.000 A 
ATOM      9  C   UNL     1     109.511 130.584 136.923  0.00  0.00    +0.000 A 
ATOM     10  C   UNL     1     108.844 128.476 135.738  0.00  0.00    +0.000 A 
ATOM     11  C   UNL     1     108.509 129.765 136.317  0.00  0.00    +0.000 A 
ATOM     12  C   UNL     1     108.724 130.460 136.706  0.00  0.00    +0.000 A 
ENDROOT
BRANCH   9  18
ATOM     13  O   UNL     1     110.371 133.362 138.482  0.00  0.00    +0.000 OA
ATOM     14  O   UNL     1     110.379 133.306 136.833  0.00  0.00    +0.000 OA
ATOM     15  C   UNL     1     109.937 132.002 138.527  0.00  0.00    +0.000 A 
ATOM     16  C   UNL     1     109.722 131.308 138.137  0.00  0.00    +0.000 A 
ATOM     17  C   UNL     1     110.156 132.668 138.093  0.00  0.00    +0.000 A 
ATOM     18  C   UNL     1     109.726 131.279 137.313  0.00  0.00    +0.000 A 
ATOM     19  C   UNL     1     110.160 132.640 137.268  0.00  0.00    +0.000 A 
ATOM     20  C   UNL     1     109.945 131.945 136.878  0.00  0.00    +0.000 A 
BRANCH  15  21
ATOM     21  O   UNL     1     109.933 132.031 139.352  0.00  0.00    +0.000 OA
BRANCH  21  30
ATOM     22  O   UNL     1     111.045 131.168 139.601  0.00  0.00    +0.000 OA
ATOM     23  O   UNL     1     109.804 130.107 141.462  0.00  0.00    +0.000 OA
ATOM     24  O   UNL     1     111.330 129.599 141.090  0.00  0.00    +0.000 OA
ATOM     25  O   UNL     1     109.106 131.323 140.592  0.00  0.00    +0.000 OA
ATOM     26  C   UNL     1     110.218 130.461 140.842  0.00  0.00    +0.000 C 
ATOM     27  C   UNL     1     110.981 130.206 140.656  0.00  0.00    +0.000 C 
ATOM     28  C   UNL     1     109.869 131.069 140.407  0.00  0.00    +0.000 C 
ATOM     29  C   UNL     1     111.394 130.560 140.035  0.00  0.00    +0.000 C 
ATOM     30  C   UNL     1     110.282 131.422 139.786  0.00  0.00    +0.000 C 
BRANCH  29  33
ATOM     31  O   UNL     1     112.266 129.642 139.372  0.00  0.00    +0.000 OA
ATOM     32  O   UNL     1     112.810 130.715 140.144  0.00  0.00    +0.000 OA
ATOM     33  C   UNL     1     112.157 130.305 139.851  0.00  0.00    +0.000 C 
ENDBRANCH  29  33
ENDBRANCH  21  30
ENDBRANCH  15  21
ENDBRANCH   9  18
BRANCH   4  34
ATOM     34  O   UNL     1     110.825 127.439 135.611  0.00  0.00    +0.000 OA
BRANCH  34  43
ATOM     35  O   UNL     1     110.908 126.852 136.911  0.00  0.00    +0.000 OA
ATOM     36  O   UNL     1     111.112 124.609 135.885  0.00  0.00    +0.000 OA
ATOM     37  O   UNL     1     111.126 124.770 137.526  0.00  0.00    +0.000 OA
ATOM     38  O   UNL     1     110.962 125.944 134.927  0.00  0.00    +0.000 OA
ATOM     39  C   UNL     1     111.044 125.357 136.227  0.00  0.00    +0.000 C 
ATOM     40  C   UNL     1     111.051 125.437 137.048  0.00  0.00    +0.000 C 
ATOM     41  C   UNL     1     110.969 126.024 135.747  0.00  0.00    +0.000 C 
ATOM     42  C   UNL     1     110.983 126.185 137.390  0.00  0.00    +0.000 C 
ATOM     43  C   UNL     1     110.901 126.772 136.089  0.00  0.00    +0.000 C 
BRANCH  42  46
ATOM     44  O   UNL     1     111.701 126.414 138.604  0.00  0.00    +0.000 OA
ATOM     45  O   UNL     1     110.288 126.198 138.638  0.00  0.00    +0.000 OA
ATOM     46  C   UNL     1     110.990 126.265 138.210  0.00  0.00    +0.000 C 
ENDBRANCH  42  46
ENDBRANCH  34  43
ENDBRANCH   4  34
TORSDOF 7
ENDMDL
MODEL 10
REMARK VINA RESULT:     -10.7      2.417      6.001
REMARK  Name = 44258249
REMARK  7 active torsions:
REMARK  status: ('A' for Active; 'I' for Inactive)
REMARK    1  A    between atoms: O_3  and  C_28
REMARK    2  A    between atoms: O_3  and  C_33
REMARK    3  A    between atoms: O_4  and  C_29
REMARK    4  A    between atoms: O_4  and  C_32
REMARK    5  A    between atoms: C_26  and  C_30
REMARK    6  A    between atoms: C_27  and  C_31
REMARK    7  A    between atoms: C_39  and  C_41
REMARK                            x       y       z     vdW  Elec       q    Type
REMARK                         _______ _______ _______ _____ _____    ______ ____
ROOT
ATOM      1  O   UNL     1     110.368 127.807 137.000  0.00  0.00    +0.000 OA
ATOM      2  O   UNL     1     107.955 128.675 135.668  0.00  0.00    +0.000 OA
ATOM      3  O   UNL     1     108.125 127.303 136.080  0.00  0.00    +0.000 OA
ATOM      4  C   UNL     1     109.788 129.827 136.240  0.00  0.00    +0.000 A 
ATOM      5  C   UNL     1     110.248 129.200 136.606  0.00  0.00    +0.000 A 
ATOM      6  C   UNL     1     109.010 129.652 135.921  0.00  0.00    +0.000 A 
ATOM      7  C   UNL     1     109.922 128.405 136.648  0.00  0.00    +0.000 A 
ATOM      8  C   UNL     1     109.175 128.237 136.341  0.00  0.00    +0.000 A 
ATOM      9  C   UNL     1     110.066 127.041 137.046  0.00  0.00    +0.000 A 
ATOM     10  C   UNL     1     108.701 128.851 135.972  0.00  0.00    +0.000 A 
ATOM     11  C   UNL     1     108.873 127.471 136.387  0.00  0.00    +0.000 A 
ATOM     12  C   UNL     1     109.318 126.872 136.739  0.00  0.00    +0.000 A 
ENDROOT
BRANCH   9  18
ATOM     13  O   UNL     1     111.847 124.648 138.456  0.00  0.00    +0.000 OA
ATOM     14  O   UNL     1     111.340 124.487 136.894  0.00  0.00    +0.000 OA
ATOM     15  C   UNL     1     111.210 125.924 138.531  0.00  0.00    +0.000 A 
ATOM     16  C   UNL     1     110.765 126.522 138.179  0.00  0.00    +0.000 A 
ATOM     17  C   UNL     1     111.401 125.246 138.103  0.00  0.00    +0.000 A 
ATOM     18  C   UNL     1     110.511 126.442 137.398  0.00  0.00    +0.000 A 
ATOM     19  C   UNL     1     111.148 125.165 137.322  0.00  0.00    +0.000 A 
ATOM     20  C   UNL     1     110.702 125.764 136.970  0.00  0.00    +0.000 A 
BRANCH  15  21
ATOM     21  O   UNL     1     111.464 126.005 139.313  0.00  0.00    +0.000 OA
BRANCH  21  30
ATOM     22  O   UNL     1     110.243 125.659 139.970  0.00  0.00    +0.000 OA
ATOM     23  O   UNL     1     110.602 127.488 141.599  0.00  0.00    +0.000 OA
ATOM     24  O   UNL     1     109.262 126.532 141.713  0.00  0.00    +0.000 OA
ATOM     25  O   UNL     1     111.703 127.224 140.399  0.00  0.00    +0.000 OA
ATOM     26  C   UNL     1     110.483 126.878 141.056  0.00  0.00    +0.000 C 
ATOM     27  C   UNL     1     109.812 126.400 141.113  0.00  0.00    +0.000 C 
ATOM     28  C   UNL     1     111.033 126.746 140.456  0.00  0.00    +0.000 C 
ATOM     29  C   UNL     1     109.692 125.790 140.570  0.00  0.00    +0.000 C 
ATOM     30  C   UNL     1     110.913 126.136 139.913  0.00  0.00    +0.000 C 
BRANCH  29  33
ATOM     31  O   UNL     1     108.312 125.553 140.282  0.00  0.00    +0.000 OA
ATOM     32  O   UNL     1     109.061 124.595 141.033  0.00  0.00    +0.000 OA
ATOM     33  C   UNL     1     109.022 125.313 140.628  0.00  0.00    +0.000 C 
ENDBRANCH  29  33
ENDBRANCH  21  30
ENDBRANCH  15  21
ENDBRANCH   9  18
BRANCH   4  34
ATOM     34  O   UNL     1     110.092 130.593 136.195  0.00  0.00    +0.000 OA
BRANCH  34  43
ATOM     35  O   UNL     1     109.334 131.141 137.275  0.00  0.00    +0.000 OA
ATOM     36  O   UNL     1     111.277 132.523 137.938  0.00  0.00    +0.000 OA
ATOM     37  O   UNL     1     109.871 132.611 138.796  0.00  0.00    +0.000 OA
ATOM     38  O   UNL     1     111.388 131.514 136.638  0.00  0.00    +0.000 OA
ATOM     39  C   UNL     1     110.629 132.062 137.717  0.00  0.00    +0.000 C 
ATOM     40  C   UNL     1     109.926 132.106 138.146  0.00  0.00    +0.000 C 
ATOM     41  C   UNL     1     110.685 131.558 137.067  0.00  0.00    +0.000 C 
ATOM     42  C   UNL     1     109.279 131.646 137.925  0.00  0.00    +0.000 C 
ATOM     43  C   UNL     1     110.037 131.097 136.845  0.00  0.00    +0.000 C 
BRANCH  42  46
ATOM     44  O   UNL     1     108.485 131.244 139.043  0.00  0.00    +0.000 OA
ATOM     45  O   UNL     1     107.963 132.177 138.094  0.00  0.00    +0.000 OA
ATOM     46  C   UNL     1     108.575 131.689 138.354  0.00  0.00    +0.000 C 
ENDBRANCH  42  46
ENDBRANCH  34  43
ENDBRANCH   4  34
TORSDOF 7
ENDMDL
