MODEL 1
REMARK VINA RESULT:      -8.2      0.000      0.000
REMARK  Name = 14730796
REMARK  2 active torsions:
REMARK  status: ('A' for Active; 'I' for Inactive)
REMARK    1  A    between atoms: O_3  and  C_19
REMARK    2  A    between atoms: C_5  and  C_7
REMARK                            x       y       z     vdW  Elec       q    Type
REMARK                         _______ _______ _______ _____ _____    ______ ____
ROOT
ATOM      1  O   UNL     1     105.261 125.277 139.661  0.00  0.00    +0.000 OA
ATOM      2  O   UNL     1     104.282 123.016 139.893  0.00  0.00    +0.000 OA
ATOM      3  O   UNL     1     106.649 124.959 142.202  0.00  0.00    +0.000 OA
ATOM      4  C   UNL     1     104.433 124.230 139.153  0.00  0.00    +0.000 C 
ATOM      5  C   UNL     1     104.760 124.983 139.076  0.00  0.00    +0.000 C 
ATOM      6  C   UNL     1     104.609 123.770 139.816  0.00  0.00    +0.000 C 
ATOM      7  C   UNL     1     105.110 124.065 140.401  0.00  0.00    +0.000 A 
ATOM      8  C   UNL     1     105.437 124.818 140.323  0.00  0.00    +0.000 A 
ATOM      9  C   UNL     1     105.285 123.576 141.086  0.00  0.00    +0.000 A 
ATOM     10  C   UNL     1     105.961 125.136 140.926  0.00  0.00    +0.000 A 
ATOM     11  C   UNL     1     105.807 123.878 141.699  0.00  0.00    +0.000 A 
ATOM     12  C   UNL     1     106.147 124.662 141.618  0.00  0.00    +0.000 A 
ENDROOT
BRANCH   4  13
ATOM     13  C   UNL     1     103.932 123.935 138.568  0.00  0.00    +0.000 A 
ATOM     14  C   UNL     1     104.247 123.560 137.905  0.00  0.00    +0.000 A 
ATOM     15  C   UNL     1     103.114 124.015 138.648  0.00  0.00    +0.000 A 
ATOM     16  C   UNL     1     103.744 123.265 137.320  0.00  0.00    +0.000 A 
ATOM     17  C   UNL     1     102.612 123.720 138.063  0.00  0.00    +0.000 A 
ATOM     18  C   UNL     1     102.927 123.345 137.400  0.00  0.00    +0.000 A 
BRANCH  18  19
ATOM     19  O   UNL     1     102.424 123.051 136.815  0.00  0.00    +0.000 OA
ATOM     20  C   UNL     1     102.724 122.855 136.073  0.00  0.00    +0.000 C 
ENDBRANCH  18  19
ENDBRANCH   4  13
TORSDOF 2
ENDMDL
MODEL 2
REMARK VINA RESULT:      -8.0      7.609      8.343
REMARK  Name = 14730796
REMARK  2 active torsions:
REMARK  status: ('A' for Active; 'I' for Inactive)
REMARK    1  A    between atoms: O_3  and  C_19
REMARK    2  A    between atoms: C_5  and  C_7
REMARK                            x       y       z     vdW  Elec       q    Type
REMARK                         _______ _______ _______ _____ _____    ______ ____
ROOT
ATOM      1  O   UNL     1     112.285 124.164 136.727  0.00  0.00    +0.000 OA
ATOM      2  O   UNL     1     112.234 126.579 136.190  0.00  0.00    +0.000 OA
ATOM      3  O   UNL     1     115.125 124.340 137.342  0.00  0.00    +0.000 OA
ATOM      4  C   UNL     1     111.562 125.323 136.309  0.00  0.00    +0.000 C 
ATOM      5  C   UNL     1     111.579 124.518 136.487  0.00  0.00    +0.000 C 
ATOM      6  C   UNL     1     112.251 125.774 136.369  0.00  0.00    +0.000 C 
ATOM      7  C   UNL     1     112.956 125.419 136.608  0.00  0.00    +0.000 A 
ATOM      8  C   UNL     1     112.973 124.614 136.787  0.00  0.00    +0.000 A 
ATOM      9  C   UNL     1     113.666 125.899 136.668  0.00  0.00    +0.000 A 
ATOM     10  C   UNL     1     113.701 124.233 137.038  0.00  0.00    +0.000 A 
ATOM     11  C   UNL     1     114.404 125.535 136.916  0.00  0.00    +0.000 A 
ATOM     12  C   UNL     1     114.421 124.697 137.103  0.00  0.00    +0.000 A 
ENDROOT
BRANCH   4  13
ATOM     13  C   UNL     1     110.857 125.678 136.069  0.00  0.00    +0.000 A 
ATOM     14  C   UNL     1     110.379 126.062 136.622  0.00  0.00    +0.000 A 
ATOM     15  C   UNL     1     110.629 125.649 135.276  0.00  0.00    +0.000 A 
ATOM     16  C   UNL     1     109.674 126.417 136.381  0.00  0.00    +0.000 A 
ATOM     17  C   UNL     1     109.924 126.004 135.037  0.00  0.00    +0.000 A 
ATOM     18  C   UNL     1     109.447 126.388 135.589  0.00  0.00    +0.000 A 
BRANCH  18  19
ATOM     19  O   UNL     1     108.742 126.743 135.348  0.00  0.00    +0.000 OA
ATOM     20  C   UNL     1     108.525 127.478 135.652  0.00  0.00    +0.000 C 
ENDBRANCH  18  19
ENDBRANCH   4  13
TORSDOF 2
ENDMDL
MODEL 3
REMARK VINA RESULT:      -7.9      0.915      4.490
REMARK  Name = 14730796
REMARK  2 active torsions:
REMARK  status: ('A' for Active; 'I' for Inactive)
REMARK    1  A    between atoms: O_3  and  C_19
REMARK    2  A    between atoms: C_5  and  C_7
REMARK                            x       y       z     vdW  Elec       q    Type
REMARK                         _______ _______ _______ _____ _____    ______ ____
ROOT
ATOM      1  O   UNL     1     102.398 123.700 137.884  0.00  0.00    +0.000 OA
ATOM      2  O   UNL     1     104.849 123.380 137.750  0.00  0.00    +0.000 OA
ATOM      3  O   UNL     1     102.103 122.740 135.151  0.00  0.00    +0.000 OA
ATOM      4  C   UNL     1     103.691 123.777 138.489  0.00  0.00    +0.000 C 
ATOM      5  C   UNL     1     102.874 123.883 138.533  0.00  0.00    +0.000 C 
ATOM      6  C   UNL     1     104.032 123.487 137.795  0.00  0.00    +0.000 C 
ATOM      7  C   UNL     1     103.556 123.304 137.147  0.00  0.00    +0.000 A 
ATOM      8  C   UNL     1     102.739 123.411 137.192  0.00  0.00    +0.000 A 
ATOM      9  C   UNL     1     103.922 123.003 136.430  0.00  0.00    +0.000 A 
ATOM     10  C   UNL     1     102.232 123.224 136.523  0.00  0.00    +0.000 A 
ATOM     11  C   UNL     1     103.432 122.811 135.752  0.00  0.00    +0.000 A 
ATOM     12  C   UNL     1     102.581 122.922 135.798  0.00  0.00    +0.000 A 
ENDROOT
BRANCH   4  13
ATOM     13  C   UNL     1     104.167 123.959 139.137  0.00  0.00    +0.000 A 
ATOM     14  C   UNL     1     104.492 124.714 139.211  0.00  0.00    +0.000 A 
ATOM     15  C   UNL     1     104.319 123.386 139.711  0.00  0.00    +0.000 A 
ATOM     16  C   UNL     1     104.969 124.896 139.860  0.00  0.00    +0.000 A 
ATOM     17  C   UNL     1     104.796 123.569 140.359  0.00  0.00    +0.000 A 
ATOM     18  C   UNL     1     105.121 124.324 140.433  0.00  0.00    +0.000 A 
BRANCH  18  19
ATOM     19  O   UNL     1     105.597 124.505 141.082  0.00  0.00    +0.000 OA
ATOM     20  C   UNL     1     106.388 124.272 141.092  0.00  0.00    +0.000 C 
ENDBRANCH  18  19
ENDBRANCH   4  13
TORSDOF 2
ENDMDL
MODEL 4
REMARK VINA RESULT:      -7.7      6.927      8.010
REMARK  Name = 14730796
REMARK  2 active torsions:
REMARK  status: ('A' for Active; 'I' for Inactive)
REMARK    1  A    between atoms: O_3  and  C_19
REMARK    2  A    between atoms: C_5  and  C_7
REMARK                            x       y       z     vdW  Elec       q    Type
REMARK                         _______ _______ _______ _____ _____    ______ ____
ROOT
ATOM      1  O   UNL     1     102.745 129.735 140.630  0.00  0.00    +0.000 OA
ATOM      2  O   UNL     1     103.044 130.862 142.813  0.00  0.00    +0.000 OA
ATOM      3  O   UNL     1     104.684 127.701 141.392  0.00  0.00    +0.000 OA
ATOM      4  C   UNL     1     102.417 130.795 141.530  0.00  0.00    +0.000 C 
ATOM      5  C   UNL     1     102.318 130.420 140.802  0.00  0.00    +0.000 C 
ATOM      6  C   UNL     1     102.944 130.486 142.085  0.00  0.00    +0.000 C 
ATOM      7  C   UNL     1     103.370 129.802 141.912  0.00  0.00    +0.000 A 
ATOM      8  C   UNL     1     103.271 129.426 141.184  0.00  0.00    +0.000 A 
ATOM      9  C   UNL     1     103.916 129.489 142.499  0.00  0.00    +0.000 A 
ATOM     10  C   UNL     1     103.710 128.712 140.993  0.00  0.00    +0.000 A 
ATOM     11  C   UNL     1     104.363 128.777 142.324  0.00  0.00    +0.000 A 
ATOM     12  C   UNL     1     104.259 128.386 141.567  0.00  0.00    +0.000 A 
ENDROOT
BRANCH   4  13
ATOM     13  C   UNL     1     101.991 131.480 141.703  0.00  0.00    +0.000 A 
ATOM     14  C   UNL     1     102.322 132.221 141.556  0.00  0.00    +0.000 A 
ATOM     15  C   UNL     1     101.232 131.423 142.024  0.00  0.00    +0.000 A 
ATOM     16  C   UNL     1     101.895 132.905 141.729  0.00  0.00    +0.000 A 
ATOM     17  C   UNL     1     100.806 132.108 142.197  0.00  0.00    +0.000 A 
ATOM     18  C   UNL     1     101.137 132.849 142.050  0.00  0.00    +0.000 A 
BRANCH  18  19
ATOM     19  O   UNL     1     100.710 133.533 142.223  0.00  0.00    +0.000 OA
ATOM     20  C   UNL     1     100.912 134.248 141.866  0.00  0.00    +0.000 C 
ENDBRANCH  18  19
ENDBRANCH   4  13
TORSDOF 2
ENDMDL
MODEL 5
REMARK VINA RESULT:      -7.6      7.001      8.295
REMARK  Name = 14730796
REMARK  2 active torsions:
REMARK  status: ('A' for Active; 'I' for Inactive)
REMARK    1  A    between atoms: O_3  and  C_19
REMARK    2  A    between atoms: C_5  and  C_7
REMARK                            x       y       z     vdW  Elec       q    Type
REMARK                         _______ _______ _______ _____ _____    ______ ____
ROOT
ATOM      1  O   UNL     1     102.915 124.882 147.020  0.00  0.00    +0.000 OA
ATOM      2  O   UNL     1     104.565 123.334 146.016  0.00  0.00    +0.000 OA
ATOM      3  O   UNL     1     100.745 123.099 146.251  0.00  0.00    +0.000 OA
ATOM      4  C   UNL     1     104.269 124.549 146.709  0.00  0.00    +0.000 C 
ATOM      5  C   UNL     1     103.720 125.065 147.044  0.00  0.00    +0.000 C 
ATOM      6  C   UNL     1     104.015 123.850 146.351  0.00  0.00    +0.000 C 
ATOM      7  C   UNL     1     103.211 123.668 146.328  0.00  0.00    +0.000 A 
ATOM      8  C   UNL     1     102.661 124.184 146.663  0.00  0.00    +0.000 A 
ATOM      9  C   UNL     1     102.958 122.937 145.952  0.00  0.00    +0.000 A 
ATOM     10  C   UNL     1     101.820 124.005 146.645  0.00  0.00    +0.000 A 
ATOM     11  C   UNL     1     102.122 122.742 145.925  0.00  0.00    +0.000 A 
ATOM     12  C   UNL     1     101.549 123.279 146.273  0.00  0.00    +0.000 A 
ENDROOT
BRANCH   4  13
ATOM     13  C   UNL     1     105.074 124.731 146.733  0.00  0.00    +0.000 A 
ATOM     14  C   UNL     1     105.507 124.602 147.423  0.00  0.00    +0.000 A 
ATOM     15  C   UNL     1     105.445 125.041 146.064  0.00  0.00    +0.000 A 
ATOM     16  C   UNL     1     106.311 124.785 147.445  0.00  0.00    +0.000 A 
ATOM     17  C   UNL     1     106.250 125.223 146.087  0.00  0.00    +0.000 A 
ATOM     18  C   UNL     1     106.682 125.095 146.777  0.00  0.00    +0.000 A 
BRANCH  18  19
ATOM     19  O   UNL     1     107.487 125.277 146.799  0.00  0.00    +0.000 OA
ATOM     20  C   UNL     1     107.870 125.369 147.523  0.00  0.00    +0.000 C 
ENDBRANCH  18  19
ENDBRANCH   4  13
TORSDOF 2
ENDMDL
MODEL 6
REMARK VINA RESULT:      -7.6      7.326      8.069
REMARK  Name = 14730796
REMARK  2 active torsions:
REMARK  status: ('A' for Active; 'I' for Inactive)
REMARK    1  A    between atoms: O_3  and  C_19
REMARK    2  A    between atoms: C_5  and  C_7
REMARK                            x       y       z     vdW  Elec       q    Type
REMARK                         _______ _______ _______ _____ _____    ______ ____
ROOT
ATOM      1  O   UNL     1     105.951 125.232 146.264  0.00  0.00    +0.000 OA
ATOM      2  O   UNL     1     104.898 124.308 148.305  0.00  0.00    +0.000 OA
ATOM      3  O   UNL     1     108.518 125.378 147.631  0.00  0.00    +0.000 OA
ATOM      4  C   UNL     1     104.796 124.736 146.945  0.00  0.00    +0.000 C 
ATOM      5  C   UNL     1     105.147 125.044 146.265  0.00  0.00    +0.000 C 
ATOM      6  C   UNL     1     105.249 124.616 147.625  0.00  0.00    +0.000 C 
ATOM      7  C   UNL     1     106.052 124.804 147.623  0.00  0.00    +0.000 A 
ATOM      8  C   UNL     1     106.403 125.112 146.943  0.00  0.00    +0.000 A 
ATOM      9  C   UNL     1     106.513 124.675 148.337  0.00  0.00    +0.000 A 
ATOM     10  C   UNL     1     107.239 125.312 146.930  0.00  0.00    +0.000 A 
ATOM     11  C   UNL     1     107.350 124.869 148.343  0.00  0.00    +0.000 A 
ATOM     12  C   UNL     1     107.715 125.189 147.634  0.00  0.00    +0.000 A 
ENDROOT
BRANCH   4  13
ATOM     13  C   UNL     1     103.993 124.548 146.946  0.00  0.00    +0.000 A 
ATOM     14  C   UNL     1     103.737 123.830 146.631  0.00  0.00    +0.000 A 
ATOM     15  C   UNL     1     103.446 125.078 147.263  0.00  0.00    +0.000 A 
ATOM     16  C   UNL     1     102.933 123.642 146.633  0.00  0.00    +0.000 A 
ATOM     17  C   UNL     1     102.643 124.890 147.265  0.00  0.00    +0.000 A 
ATOM     18  C   UNL     1     102.387 124.172 146.949  0.00  0.00    +0.000 A 
BRANCH  18  19
ATOM     19  O   UNL     1     101.583 123.985 146.951  0.00  0.00    +0.000 OA
ATOM     20  C   UNL     1     101.190 123.844 146.241  0.00  0.00    +0.000 C 
ENDBRANCH  18  19
ENDBRANCH   4  13
TORSDOF 2
ENDMDL
MODEL 7
REMARK VINA RESULT:      -7.5      6.832      7.575
REMARK  Name = 14730796
REMARK  2 active torsions:
REMARK  status: ('A' for Active; 'I' for Inactive)
REMARK    1  A    between atoms: O_3  and  C_19
REMARK    2  A    between atoms: C_5  and  C_7
REMARK                            x       y       z     vdW  Elec       q    Type
REMARK                         _______ _______ _______ _____ _____    ______ ____
ROOT
ATOM      1  O   UNL     1     110.789 125.107 135.300  0.00  0.00    +0.000 OA
ATOM      2  O   UNL     1     110.469 126.628 137.227  0.00  0.00    +0.000 OA
ATOM      3  O   UNL     1     112.348 123.296 136.963  0.00  0.00    +0.000 OA
ATOM      4  C   UNL     1     110.246 126.309 135.851  0.00  0.00    +0.000 C 
ATOM      5  C   UNL     1     110.353 125.802 135.209  0.00  0.00    +0.000 C 
ATOM      6  C   UNL     1     110.575 126.121 136.585  0.00  0.00    +0.000 C 
ATOM      7  C   UNL     1     111.010 125.426 136.675  0.00  0.00    +0.000 A 
ATOM      8  C   UNL     1     111.117 124.919 136.033  0.00  0.00    +0.000 A 
ATOM      9  C   UNL     1     111.348 125.241 137.444  0.00  0.00    +0.000 A 
ATOM     10  C   UNL     1     111.569 124.192 136.115  0.00  0.00    +0.000 A 
ATOM     11  C   UNL     1     111.802 124.519 137.544  0.00  0.00    +0.000 A 
ATOM     12  C   UNL     1     111.913 123.991 136.875  0.00  0.00    +0.000 A 
ENDROOT
BRANCH   4  13
ATOM     13  C   UNL     1     109.811 127.004 135.761  0.00  0.00    +0.000 A 
ATOM     14  C   UNL     1     109.003 127.010 135.927  0.00  0.00    +0.000 A 
ATOM     15  C   UNL     1     110.185 127.694 135.504  0.00  0.00    +0.000 A 
ATOM     16  C   UNL     1     108.569 127.706 135.836  0.00  0.00    +0.000 A 
ATOM     17  C   UNL     1     109.750 128.389 135.414  0.00  0.00    +0.000 A 
ATOM     18  C   UNL     1     108.942 128.395 135.580  0.00  0.00    +0.000 A 
BRANCH  18  19
ATOM     19  O   UNL     1     108.507 129.091 135.490  0.00  0.00    +0.000 OA
ATOM     20  C   UNL     1     108.580 129.697 136.043  0.00  0.00    +0.000 C 
ENDBRANCH  18  19
ENDBRANCH   4  13
TORSDOF 2
ENDMDL
MODEL 8
REMARK VINA RESULT:      -7.5      7.612      8.678
REMARK  Name = 14730796
REMARK  2 active torsions:
REMARK  status: ('A' for Active; 'I' for Inactive)
REMARK    1  A    between atoms: O_3  and  C_19
REMARK    2  A    between atoms: C_5  and  C_7
REMARK                            x       y       z     vdW  Elec       q    Type
REMARK                         _______ _______ _______ _____ _____    ______ ____
ROOT
ATOM      1  O   UNL     1     100.910 131.958 142.018  0.00  0.00    +0.000 OA
ATOM      2  O   UNL     1     103.206 132.023 141.097  0.00  0.00    +0.000 OA
ATOM      3  O   UNL     1     100.769 134.865 141.930  0.00  0.00    +0.000 OA
ATOM      4  C   UNL     1     102.087 131.277 141.582  0.00  0.00    +0.000 C 
ATOM      5  C   UNL     1     101.322 131.255 141.889  0.00  0.00    +0.000 C 
ATOM      6  C   UNL     1     102.441 132.001 141.404  0.00  0.00    +0.000 C 
ATOM      7  C   UNL     1     102.027 132.704 141.534  0.00  0.00    +0.000 A 
ATOM      8  C   UNL     1     101.262 132.682 141.841  0.00  0.00    +0.000 A 
ATOM      9  C   UNL     1     102.406 133.452 141.346  0.00  0.00    +0.000 A 
ATOM     10  C   UNL     1     100.822 133.407 141.981  0.00  0.00    +0.000 A 
ATOM     11  C   UNL     1     101.981 134.187 141.479  0.00  0.00    +0.000 A 
ATOM     12  C   UNL     1     101.184 134.164 141.799  0.00  0.00    +0.000 A 
ENDROOT
BRANCH   4  13
ATOM     13  C   UNL     1     102.500 130.575 141.451  0.00  0.00    +0.000 A 
ATOM     14  C   UNL     1     103.006 130.279 142.032  0.00  0.00    +0.000 A 
ATOM     15  C   UNL     1     102.407 130.168 140.739  0.00  0.00    +0.000 A 
ATOM     16  C   UNL     1     103.419 129.577 141.901  0.00  0.00    +0.000 A 
ATOM     17  C   UNL     1     102.820 129.466 140.609  0.00  0.00    +0.000 A 
ATOM     18  C   UNL     1     103.326 129.170 141.190  0.00  0.00    +0.000 A 
BRANCH  18  19
ATOM     19  O   UNL     1     103.739 128.468 141.058  0.00  0.00    +0.000 OA
ATOM     20  C   UNL     1     104.435 128.314 141.472  0.00  0.00    +0.000 C 
ENDBRANCH  18  19
ENDBRANCH   4  13
TORSDOF 2
ENDMDL
MODEL 9
REMARK VINA RESULT:      -7.5      6.631      7.370
REMARK  Name = 14730796
REMARK  2 active torsions:
REMARK  status: ('A' for Active; 'I' for Inactive)
REMARK    1  A    between atoms: O_3  and  C_19
REMARK    2  A    between atoms: C_5  and  C_7
REMARK                            x       y       z     vdW  Elec       q    Type
REMARK                         _______ _______ _______ _____ _____    ______ ____
ROOT
ATOM      1  O   UNL     1     104.983 124.389 147.711  0.00  0.00    +0.000 OA
ATOM      2  O   UNL     1     104.188 124.504 145.370  0.00  0.00    +0.000 OA
ATOM      3  O   UNL     1     107.514 125.601 146.933  0.00  0.00    +0.000 OA
ATOM      4  C   UNL     1     103.966 124.148 146.736  0.00  0.00    +0.000 C 
ATOM      5  C   UNL     1     104.231 124.110 147.517  0.00  0.00    +0.000 C 
ATOM      6  C   UNL     1     104.453 124.465 146.150  0.00  0.00    +0.000 C 
ATOM      7  C   UNL     1     105.205 124.744 146.345  0.00  0.00    +0.000 A 
ATOM      8  C   UNL     1     105.470 124.705 147.126  0.00  0.00    +0.000 A 
ATOM      9  C   UNL     1     105.703 125.072 145.726  0.00  0.00    +0.000 A 
ATOM     10  C   UNL     1     106.251 124.992 147.341  0.00  0.00    +0.000 A 
ATOM     11  C   UNL     1     106.487 125.363 145.923  0.00  0.00    +0.000 A 
ATOM     12  C   UNL     1     106.762 125.323 146.735  0.00  0.00    +0.000 A 
ENDROOT
BRANCH   4  13
ATOM     13  C   UNL     1     103.215 123.870 146.541  0.00  0.00    +0.000 A 
ATOM     14  C   UNL     1     103.126 123.126 146.196  0.00  0.00    +0.000 A 
ATOM     15  C   UNL     1     102.550 124.337 146.692  0.00  0.00    +0.000 A 
ATOM     16  C   UNL     1     102.374 122.849 146.001  0.00  0.00    +0.000 A 
ATOM     17  C   UNL     1     101.799 124.058 146.497  0.00  0.00    +0.000 A 
ATOM     18  C   UNL     1     101.711 123.314 146.151  0.00  0.00    +0.000 A 
BRANCH  18  19
ATOM     19  O   UNL     1     100.958 123.037 145.956  0.00  0.00    +0.000 OA
ATOM     20  C   UNL     1     100.803 122.765 145.194  0.00  0.00    +0.000 C 
ENDBRANCH  18  19
ENDBRANCH   4  13
TORSDOF 2
ENDMDL
MODEL 10
REMARK VINA RESULT:      -7.2      5.253      7.553
REMARK  Name = 14730796
REMARK  2 active torsions:
REMARK  status: ('A' for Active; 'I' for Inactive)
REMARK    1  A    between atoms: O_3  and  C_19
REMARK    2  A    between atoms: C_5  and  C_7
REMARK                            x       y       z     vdW  Elec       q    Type
REMARK                         _______ _______ _______ _____ _____    ______ ____
ROOT
ATOM      1  O   UNL     1     105.422 124.704 147.359  0.00  0.00    +0.000 OA
ATOM      2  O   UNL     1     107.314 125.792 146.191  0.00  0.00    +0.000 OA
ATOM      3  O   UNL     1     107.155 124.062 149.610  0.00  0.00    +0.000 OA
ATOM      4  C   UNL     1     105.938 125.403 146.225  0.00  0.00    +0.000 C 
ATOM      5  C   UNL     1     105.308 125.041 146.614  0.00  0.00    +0.000 C 
ATOM      6  C   UNL     1     106.683 125.429 146.580  0.00  0.00    +0.000 C 
ATOM      7  C   UNL     1     106.796 125.092 147.325  0.00  0.00    +0.000 A 
ATOM      8  C   UNL     1     106.166 124.730 147.714  0.00  0.00    +0.000 A 
ATOM      9  C   UNL     1     107.576 125.125 147.685  0.00  0.00    +0.000 A 
ATOM     10  C   UNL     1     106.272 124.375 148.490  0.00  0.00    +0.000 A 
ATOM     11  C   UNL     1     107.701 124.777 148.460  0.00  0.00    +0.000 A 
ATOM     12  C   UNL     1     107.044 124.399 148.865  0.00  0.00    +0.000 A 
ENDROOT
BRANCH   4  13
ATOM     13  C   UNL     1     105.825 125.740 145.481  0.00  0.00    +0.000 A 
ATOM     14  C   UNL     1     105.608 126.533 145.415  0.00  0.00    +0.000 A 
ATOM     15  C   UNL     1     105.930 125.283 144.801  0.00  0.00    +0.000 A 
ATOM     16  C   UNL     1     105.496 126.869 144.669  0.00  0.00    +0.000 A 
ATOM     17  C   UNL     1     105.817 125.619 144.057  0.00  0.00    +0.000 A 
ATOM     18  C   UNL     1     105.600 126.413 143.991  0.00  0.00    +0.000 A 
BRANCH  18  19
ATOM     19  O   UNL     1     105.487 126.748 143.245  0.00  0.00    +0.000 OA
ATOM     20  C   UNL     1     106.131 126.870 142.746  0.00  0.00    +0.000 C 
ENDBRANCH  18  19
ENDBRANCH   4  13
TORSDOF 2
ENDMDL
