MODEL 1
REMARK VINA RESULT:      -7.7      0.000      0.000
REMARK  Name = 171488
REMARK  5 active torsions:
REMARK  status: ('A' for Active; 'I' for Inactive)
REMARK    1  A    between atoms: O_2  and  C_12
REMARK    2  A    between atoms: O_3  and  C_17
REMARK    3  A    between atoms: O_7  and  C_21
REMARK    4  A    between atoms: O_8  and  C_22
REMARK    5  A    between atoms: C_11  and  C_14
REMARK                            x       y       z     vdW  Elec       q    Type
REMARK                         _______ _______ _______ _____ _____    ______ ____
ROOT
ATOM      1  O   UNL     1     110.550 127.428 136.164  0.00  0.00    +0.000 OA
ATOM      2  O   UNL     1     107.992 128.687 135.663  0.00  0.00    +0.000 OA
ATOM      3  O   UNL     1     110.406 130.172 135.298  0.00  0.00    +0.000 OA
ATOM      4  O   UNL     1     108.021 127.310 136.096  0.00  0.00    +0.000 OA
ATOM      5  C   UNL     1     109.256 128.067 135.910  0.00  0.00    +0.000 A 
ATOM      6  C   UNL     1     110.080 128.108 135.932  0.00  0.00    +0.000 A 
ATOM      7  C   UNL     1     110.156 126.694 136.378  0.00  0.00    +0.000 A 
ATOM      8  C   UNL     1     110.463 128.810 135.728  0.00  0.00    +0.000 A 
ATOM      9  C   UNL     1     108.815 128.728 135.685  0.00  0.00    +0.000 A 
ATOM     10  C   UNL     1     108.845 127.343 136.120  0.00  0.00    +0.000 A 
ATOM     11  C   UNL     1     109.298 126.651 136.356  0.00  0.00    +0.000 A 
ATOM     12  C   UNL     1     109.199 129.429 135.481  0.00  0.00    +0.000 A 
ATOM     13  C   UNL     1     110.023 129.470 135.502  0.00  0.00    +0.000 A 
ENDROOT
BRANCH   7  14
ATOM     14  C   UNL     1     110.599 126.035 136.603  0.00  0.00    +0.000 A 
ATOM     15  C   UNL     1     110.798 125.923 137.396  0.00  0.00    +0.000 A 
ATOM     16  C   UNL     1     110.842 125.488 136.035  0.00  0.00    +0.000 A 
ATOM     17  C   UNL     1     111.241 125.266 137.621  0.00  0.00    +0.000 A 
ATOM     18  C   UNL     1     111.484 124.717 137.054  0.00  0.00    +0.000 A 
ATOM     19  C   UNL     1     111.285 124.829 136.261  0.00  0.00    +0.000 A 
BRANCH  17  20
ATOM     20  O   UNL     1     111.440 125.154 138.414  0.00  0.00    +0.000 OA
ATOM     21  C   UNL     1     111.434 125.793 138.936  0.00  0.00    +0.000 C 
ENDBRANCH  17  20
BRANCH  18  22
ATOM     22  O   UNL     1     111.927 124.060 137.279  0.00  0.00    +0.000 OA
ATOM     23  C   UNL     1     112.167 123.510 136.712  0.00  0.00    +0.000 C 
ENDBRANCH  18  22
ENDBRANCH   7  14
BRANCH   8  24
ATOM     24  O   UNL     1     111.286 128.851 135.749  0.00  0.00    +0.000 OA
ATOM     25  C   UNL     1     111.710 129.015 135.060  0.00  0.00    +0.000 C 
ENDBRANCH   8  24
BRANCH  12  26
ATOM     26  O   UNL     1     108.758 130.090 135.255  0.00  0.00    +0.000 OA
ATOM     27  C   UNL     1     108.532 130.646 135.821  0.00  0.00    +0.000 C 
ENDBRANCH  12  26
TORSDOF 5
ENDMDL
MODEL 2
REMARK VINA RESULT:      -7.6      8.603     10.306
REMARK  Name = 171488
REMARK  5 active torsions:
REMARK  status: ('A' for Active; 'I' for Inactive)
REMARK    1  A    between atoms: O_2  and  C_12
REMARK    2  A    between atoms: O_3  and  C_17
REMARK    3  A    between atoms: O_7  and  C_21
REMARK    4  A    between atoms: O_8  and  C_22
REMARK    5  A    between atoms: C_11  and  C_14
REMARK                            x       y       z     vdW  Elec       q    Type
REMARK                         _______ _______ _______ _____ _____    ______ ____
ROOT
ATOM      1  O   UNL     1     102.951 131.967 141.245  0.00  0.00    +0.000 OA
ATOM      2  O   UNL     1     100.785 133.635 142.198  0.00  0.00    +0.000 OA
ATOM      3  O   UNL     1     103.024 134.824 140.880  0.00  0.00    +0.000 OA
ATOM      4  O   UNL     1     100.710 132.208 142.400  0.00  0.00    +0.000 OA
ATOM      5  C   UNL     1     101.856 132.813 141.726  0.00  0.00    +0.000 A 
ATOM      6  C   UNL     1     102.586 132.738 141.350  0.00  0.00    +0.000 A 
ATOM      7  C   UNL     1     102.550 131.265 141.537  0.00  0.00    +0.000 A 
ATOM      8  C   UNL     1     102.975 133.409 141.068  0.00  0.00    +0.000 A 
ATOM      9  C   UNL     1     101.515 133.559 141.821  0.00  0.00    +0.000 A 
ATOM     10  C   UNL     1     101.440 132.123 142.025  0.00  0.00    +0.000 A 
ATOM     11  C   UNL     1     101.789 131.344 141.929  0.00  0.00    +0.000 A 
ATOM     12  C   UNL     1     101.905 134.229 141.539  0.00  0.00    +0.000 A 
ATOM     13  C   UNL     1     102.635 134.154 141.162  0.00  0.00    +0.000 A 
ENDROOT
BRANCH   7  14
ATOM     14  C   UNL     1     102.892 130.521 141.441  0.00  0.00    +0.000 A 
ATOM     15  C   UNL     1     102.727 130.074 140.767  0.00  0.00    +0.000 A 
ATOM     16  C   UNL     1     103.400 130.223 142.019  0.00  0.00    +0.000 A 
ATOM     17  C   UNL     1     103.069 129.331 140.671  0.00  0.00    +0.000 A 
ATOM     18  C   UNL     1     103.577 129.032 141.249  0.00  0.00    +0.000 A 
ATOM     19  C   UNL     1     103.743 129.478 141.922  0.00  0.00    +0.000 A 
BRANCH  17  20
ATOM     20  O   UNL     1     102.904 128.884 139.997  0.00  0.00    +0.000 OA
ATOM     21  C   UNL     1     102.280 129.100 139.501  0.00  0.00    +0.000 C 
ENDBRANCH  17  20
BRANCH  18  22
ATOM     22  O   UNL     1     103.919 128.288 141.152  0.00  0.00    +0.000 OA
ATOM     23  C   UNL     1     104.513 128.038 141.668  0.00  0.00    +0.000 C 
ENDBRANCH  18  22
ENDBRANCH   7  14
BRANCH   8  24
ATOM     24  O   UNL     1     103.705 133.333 140.691  0.00  0.00    +0.000 OA
ATOM     25  C   UNL     1     103.797 133.591 139.913  0.00  0.00    +0.000 C 
ENDBRANCH   8  24
BRANCH  12  26
ATOM     26  O   UNL     1     101.564 134.975 141.633  0.00  0.00    +0.000 OA
ATOM     27  C   UNL     1     101.777 135.446 142.276  0.00  0.00    +0.000 C 
ENDBRANCH  12  26
TORSDOF 5
ENDMDL
MODEL 3
REMARK VINA RESULT:      -7.6      2.651      5.255
REMARK  Name = 171488
REMARK  5 active torsions:
REMARK  status: ('A' for Active; 'I' for Inactive)
REMARK    1  A    between atoms: O_2  and  C_12
REMARK    2  A    between atoms: O_3  and  C_17
REMARK    3  A    between atoms: O_7  and  C_21
REMARK    4  A    between atoms: O_8  and  C_22
REMARK    5  A    between atoms: C_11  and  C_14
REMARK                            x       y       z     vdW  Elec       q    Type
REMARK                         _______ _______ _______ _____ _____    ______ ____
ROOT
ATOM      1  O   UNL     1     112.690 126.919 136.256  0.00  0.00    +0.000 OA
ATOM      2  O   UNL     1     113.615 124.230 136.798  0.00  0.00    +0.000 OA
ATOM      3  O   UNL     1     110.908 124.670 135.995  0.00  0.00    +0.000 OA
ATOM      4  O   UNL     1     114.539 125.330 136.941  0.00  0.00    +0.000 OA
ATOM      5  C   UNL     1     113.156 125.557 136.530  0.00  0.00    +0.000 A 
ATOM      6  C   UNL     1     112.552 126.072 136.307  0.00  0.00    +0.000 A 
ATOM      7  C   UNL     1     113.469 127.233 136.441  0.00  0.00    +0.000 A 
ATOM      8  C   UNL     1     111.802 125.776 136.128  0.00  0.00    +0.000 A 
ATOM      9  C   UNL     1     113.011 124.745 136.575  0.00  0.00    +0.000 A 
ATOM     10  C   UNL     1     113.940 125.852 136.718  0.00  0.00    +0.000 A 
ATOM     11  C   UNL     1     114.098 126.696 136.673  0.00  0.00    +0.000 A 
ATOM     12  C   UNL     1     112.261 124.451 136.396  0.00  0.00    +0.000 A 
ATOM     13  C   UNL     1     111.657 124.966 136.173  0.00  0.00    +0.000 A 
ENDROOT
BRANCH   7  14
ATOM     14  C   UNL     1     113.611 128.044 136.395  0.00  0.00    +0.000 A 
ATOM     15  C   UNL     1     113.371 128.540 137.010  0.00  0.00    +0.000 A 
ATOM     16  C   UNL     1     113.993 128.359 135.736  0.00  0.00    +0.000 A 
ATOM     17  C   UNL     1     113.513 129.351 136.964  0.00  0.00    +0.000 A 
ATOM     18  C   UNL     1     113.896 129.667 136.305  0.00  0.00    +0.000 A 
ATOM     19  C   UNL     1     114.135 129.171 135.691  0.00  0.00    +0.000 A 
BRANCH  17  20
ATOM     20  O   UNL     1     113.274 129.847 137.579  0.00  0.00    +0.000 OA
ATOM     21  C   UNL     1     112.718 129.583 138.130  0.00  0.00    +0.000 C 
ENDBRANCH  17  20
BRANCH  18  22
ATOM     22  O   UNL     1     114.038 130.478 136.260  0.00  0.00    +0.000 OA
ATOM     23  C   UNL     1     114.598 130.769 135.729  0.00  0.00    +0.000 C 
ENDBRANCH  18  22
ENDBRANCH   7  14
BRANCH   8  24
ATOM     24  O   UNL     1     111.198 126.292 135.905  0.00  0.00    +0.000 OA
ATOM     25  C   UNL     1     110.830 126.204 135.172  0.00  0.00    +0.000 C 
ENDBRANCH   8  24
BRANCH  12  26
ATOM     26  O   UNL     1     112.116 123.639 136.441  0.00  0.00    +0.000 OA
ATOM     27  C   UNL     1     111.868 123.304 137.153  0.00  0.00    +0.000 C 
ENDBRANCH  12  26
TORSDOF 5
ENDMDL
MODEL 4
REMARK VINA RESULT:      -7.6      2.697      5.280
REMARK  Name = 171488
REMARK  5 active torsions:
REMARK  status: ('A' for Active; 'I' for Inactive)
REMARK    1  A    between atoms: O_2  and  C_12
REMARK    2  A    between atoms: O_3  and  C_17
REMARK    3  A    between atoms: O_7  and  C_21
REMARK    4  A    between atoms: O_8  and  C_22
REMARK    5  A    between atoms: C_11  and  C_14
REMARK                            x       y       z     vdW  Elec       q    Type
REMARK                         _______ _______ _______ _____ _____    ______ ____
ROOT
ATOM      1  O   UNL     1     113.363 126.739 136.706  0.00  0.00    +0.000 OA
ATOM      2  O   UNL     1     111.243 124.915 135.957  0.00  0.00    +0.000 OA
ATOM      3  O   UNL     1     113.660 123.901 137.098  0.00  0.00    +0.000 OA
ATOM      4  O   UNL     1     111.056 126.330 135.745  0.00  0.00    +0.000 OA
ATOM      5  C   UNL     1     112.291 125.814 136.328  0.00  0.00    +0.000 A 
ATOM      6  C   UNL     1     113.043 125.945 136.641  0.00  0.00    +0.000 A 
ATOM      7  C   UNL     1     112.892 127.408 136.440  0.00  0.00    +0.000 A 
ATOM      8  C   UNL     1     113.499 125.306 136.898  0.00  0.00    +0.000 A 
ATOM      9  C   UNL     1     111.995 125.046 136.271  0.00  0.00    +0.000 A 
ATOM     10  C   UNL     1     111.807 126.470 136.057  0.00  0.00    +0.000 A 
ATOM     11  C   UNL     1     112.109 127.272 136.113  0.00  0.00    +0.000 A 
ATOM     12  C   UNL     1     112.452 124.408 136.528  0.00  0.00    +0.000 A 
ATOM     13  C   UNL     1     113.204 124.539 136.841  0.00  0.00    +0.000 A 
ENDROOT
BRANCH   7  14
ATOM     14  C   UNL     1     113.190 128.175 136.498  0.00  0.00    +0.000 A 
ATOM     15  C   UNL     1     113.643 128.489 135.884  0.00  0.00    +0.000 A 
ATOM     16  C   UNL     1     113.035 128.629 137.169  0.00  0.00    +0.000 A 
ATOM     17  C   UNL     1     113.941 129.255 135.941  0.00  0.00    +0.000 A 
ATOM     18  C   UNL     1     113.787 129.710 136.613  0.00  0.00    +0.000 A 
ATOM     19  C   UNL     1     113.334 129.396 137.227  0.00  0.00    +0.000 A 
BRANCH  17  20
ATOM     20  O   UNL     1     114.395 129.569 135.327  0.00  0.00    +0.000 OA
ATOM     21  C   UNL     1     114.758 129.066 134.783  0.00  0.00    +0.000 C 
ENDBRANCH  17  20
BRANCH  18  22
ATOM     22  O   UNL     1     114.085 130.476 136.670  0.00  0.00    +0.000 OA
ATOM     23  C   UNL     1     113.881 130.951 137.313  0.00  0.00    +0.000 C 
ENDBRANCH  18  22
ENDBRANCH   7  14
BRANCH   8  24
ATOM     24  O   UNL     1     114.251 125.437 137.211  0.00  0.00    +0.000 OA
ATOM     25  C   UNL     1     114.909 125.077 136.868  0.00  0.00    +0.000 C 
ENDBRANCH   8  24
BRANCH  12  26
ATOM     26  O   UNL     1     112.156 123.640 136.471  0.00  0.00    +0.000 OA
ATOM     27  C   UNL     1     111.833 123.273 137.135  0.00  0.00    +0.000 C 
ENDBRANCH  12  26
TORSDOF 5
ENDMDL
MODEL 5
REMARK VINA RESULT:      -7.6     11.501     13.243
REMARK  Name = 171488
REMARK  5 active torsions:
REMARK  status: ('A' for Active; 'I' for Inactive)
REMARK    1  A    between atoms: O_2  and  C_12
REMARK    2  A    between atoms: O_3  and  C_17
REMARK    3  A    between atoms: O_7  and  C_21
REMARK    4  A    between atoms: O_8  and  C_22
REMARK    5  A    between atoms: C_11  and  C_14
REMARK                            x       y       z     vdW  Elec       q    Type
REMARK                         _______ _______ _______ _____ _____    ______ ____
ROOT
ATOM      1  O   UNL     1     104.266 123.954 147.126  0.00  0.00    +0.000 OA
ATOM      2  O   UNL     1     101.487 124.754 147.266  0.00  0.00    +0.000 OA
ATOM      3  O   UNL     1     102.298 122.740 145.407  0.00  0.00    +0.000 OA
ATOM      4  O   UNL     1     102.442 125.386 148.144  0.00  0.00    +0.000 OA
ATOM      5  C   UNL     1     102.859 124.357 147.195  0.00  0.00    +0.000 A 
ATOM      6  C   UNL     1     103.451 123.889 146.862  0.00  0.00    +0.000 A 
ATOM      7  C   UNL     1     104.467 124.514 147.747  0.00  0.00    +0.000 A 
ATOM      8  C   UNL     1     103.264 123.350 146.266  0.00  0.00    +0.000 A 
ATOM      9  C   UNL     1     102.079 124.286 146.932  0.00  0.00    +0.000 A 
ATOM     10  C   UNL     1     103.041 124.922 147.816  0.00  0.00    +0.000 A 
ATOM     11  C   UNL     1     103.850 125.001 148.094  0.00  0.00    +0.000 A 
ATOM     12  C   UNL     1     101.893 123.747 146.336  0.00  0.00    +0.000 A 
ATOM     13  C   UNL     1     102.485 123.279 146.003  0.00  0.00    +0.000 A 
ENDROOT
BRANCH   7  14
ATOM     14  C   UNL     1     105.246 124.583 148.008  0.00  0.00    +0.000 A 
ATOM     15  C   UNL     1     105.803 124.979 147.544  0.00  0.00    +0.000 A 
ATOM     16  C   UNL     1     105.470 124.256 148.731  0.00  0.00    +0.000 A 
ATOM     17  C   UNL     1     106.582 125.048 147.804  0.00  0.00    +0.000 A 
ATOM     18  C   UNL     1     106.806 124.721 148.528  0.00  0.00    +0.000 A 
ATOM     19  C   UNL     1     106.250 124.326 148.992  0.00  0.00    +0.000 A 
BRANCH  17  20
ATOM     20  O   UNL     1     107.138 125.444 147.341  0.00  0.00    +0.000 OA
ATOM     21  C   UNL     1     106.938 125.696 146.581  0.00  0.00    +0.000 C 
ENDBRANCH  17  20
BRANCH  18  22
ATOM     22  O   UNL     1     107.585 124.791 148.788  0.00  0.00    +0.000 OA
ATOM     23  C   UNL     1     107.815 124.440 149.499  0.00  0.00    +0.000 C 
ENDBRANCH  18  22
ENDBRANCH   7  14
BRANCH   8  24
ATOM     24  O   UNL     1     103.856 122.882 145.932  0.00  0.00    +0.000 OA
ATOM     25  C   UNL     1     103.920 122.819 145.112  0.00  0.00    +0.000 C 
ENDBRANCH   8  24
BRANCH  12  26
ATOM     26  O   UNL     1     101.114 123.676 146.074  0.00  0.00    +0.000 OA
ATOM     27  C   UNL     1     100.710 122.963 146.171  0.00  0.00    +0.000 C 
ENDBRANCH  12  26
TORSDOF 5
ENDMDL
MODEL 6
REMARK VINA RESULT:      -7.5     10.977     12.933
REMARK  Name = 171488
REMARK  5 active torsions:
REMARK  status: ('A' for Active; 'I' for Inactive)
REMARK    1  A    between atoms: O_2  and  C_12
REMARK    2  A    between atoms: O_3  and  C_17
REMARK    3  A    between atoms: O_7  and  C_21
REMARK    4  A    between atoms: O_8  and  C_22
REMARK    5  A    between atoms: C_11  and  C_14
REMARK                            x       y       z     vdW  Elec       q    Type
REMARK                         _______ _______ _______ _____ _____    ______ ____
ROOT
ATOM      1  O   UNL     1     104.803 124.451 147.348  0.00  0.00    +0.000 OA
ATOM      2  O   UNL     1     107.266 125.358 146.128  0.00  0.00    +0.000 OA
ATOM      3  O   UNL     1     107.075 125.156 148.973  0.00  0.00    +0.000 OA
ATOM      4  O   UNL     1     106.150 125.014 145.280  0.00  0.00    +0.000 OA
ATOM      5  C   UNL     1     106.050 124.910 146.733  0.00  0.00    +0.000 A 
ATOM      6  C   UNL     1     105.614 124.727 147.409  0.00  0.00    +0.000 A 
ATOM      7  C   UNL     1     104.441 124.363 146.573  0.00  0.00    +0.000 A 
ATOM      8  C   UNL     1     105.956 124.810 148.155  0.00  0.00    +0.000 A 
ATOM      9  C   UNL     1     106.829 125.175 146.804  0.00  0.00    +0.000 A 
ATOM     10  C   UNL     1     105.706 124.829 145.950  0.00  0.00    +0.000 A 
ATOM     11  C   UNL     1     104.896 124.554 145.869  0.00  0.00    +0.000 A 
ATOM     12  C   UNL     1     107.170 125.257 147.551  0.00  0.00    +0.000 A 
ATOM     13  C   UNL     1     106.733 125.074 148.226  0.00  0.00    +0.000 A 
ENDROOT
BRANCH   7  14
ATOM     14  C   UNL     1     103.663 124.098 146.505  0.00  0.00    +0.000 A 
ATOM     15  C   UNL     1     103.051 124.519 146.864  0.00  0.00    +0.000 A 
ATOM     16  C   UNL     1     103.497 123.413 146.077  0.00  0.00    +0.000 A 
ATOM     17  C   UNL     1     102.274 124.254 146.797  0.00  0.00    +0.000 A 
ATOM     18  C   UNL     1     102.106 123.569 146.369  0.00  0.00    +0.000 A 
ATOM     19  C   UNL     1     102.718 123.148 146.009  0.00  0.00    +0.000 A 
BRANCH  17  20
ATOM     20  O   UNL     1     101.662 124.675 147.156  0.00  0.00    +0.000 OA
ATOM     21  C   UNL     1     101.817 125.152 147.811  0.00  0.00    +0.000 C 
ENDBRANCH  17  20
BRANCH  18  22
ATOM     22  O   UNL     1     101.328 123.304 146.301  0.00  0.00    +0.000 OA
ATOM     23  C   UNL     1     101.133 122.740 145.732  0.00  0.00    +0.000 C 
ENDBRANCH  18  22
ENDBRANCH   7  14
BRANCH   8  24
ATOM     24  O   UNL     1     105.519 124.627 148.831  0.00  0.00    +0.000 OA
ATOM     25  C   UNL     1     105.846 124.147 149.417  0.00  0.00    +0.000 C 
ENDBRANCH   8  24
BRANCH  12  26
ATOM     26  O   UNL     1     107.949 125.522 147.622  0.00  0.00    +0.000 OA
ATOM     27  C   UNL     1     108.553 124.986 147.788  0.00  0.00    +0.000 C 
ENDBRANCH  12  26
TORSDOF 5
ENDMDL
MODEL 7
REMARK VINA RESULT:      -7.5      2.111      3.703
REMARK  Name = 171488
REMARK  5 active torsions:
REMARK  status: ('A' for Active; 'I' for Inactive)
REMARK    1  A    between atoms: O_2  and  C_12
REMARK    2  A    between atoms: O_3  and  C_17
REMARK    3  A    between atoms: O_7  and  C_21
REMARK    4  A    between atoms: O_8  and  C_22
REMARK    5  A    between atoms: C_11  and  C_14
REMARK                            x       y       z     vdW  Elec       q    Type
REMARK                         _______ _______ _______ _____ _____    ______ ____
ROOT
ATOM      1  O   UNL     1     112.074 126.702 137.546  0.00  0.00    +0.000 OA
ATOM      2  O   UNL     1     111.022 124.626 135.824  0.00  0.00    +0.000 OA
ATOM      3  O   UNL     1     110.874 127.362 135.011  0.00  0.00    +0.000 OA
ATOM      4  O   UNL     1     111.616 124.254 137.086  0.00  0.00    +0.000 OA
ATOM      5  C   UNL     1     111.541 125.653 136.673  0.00  0.00    +0.000 A 
ATOM      6  C   UNL     1     111.689 126.451 136.820  0.00  0.00    +0.000 A 
ATOM      7  C   UNL     1     112.308 126.112 138.127  0.00  0.00    +0.000 A 
ATOM      8  C   UNL     1     111.467 127.021 136.266  0.00  0.00    +0.000 A 
ATOM      9  C   UNL     1     111.170 125.425 135.971  0.00  0.00    +0.000 A 
ATOM     10  C   UNL     1     111.768 125.050 137.241  0.00  0.00    +0.000 A 
ATOM     11  C   UNL     1     112.154 125.281 137.973  0.00  0.00    +0.000 A 
ATOM     12  C   UNL     1     110.948 125.995 135.418  0.00  0.00    +0.000 A 
ATOM     13  C   UNL     1     111.097 126.793 135.566  0.00  0.00    +0.000 A 
ENDROOT
BRANCH   7  14
ATOM     14  C   UNL     1     112.679 126.343 138.827  0.00  0.00    +0.000 A 
ATOM     15  C   UNL     1     112.227 126.517 139.495  0.00  0.00    +0.000 A 
ATOM     16  C   UNL     1     113.501 126.401 138.859  0.00  0.00    +0.000 A 
ATOM     17  C   UNL     1     112.596 126.747 140.194  0.00  0.00    +0.000 A 
ATOM     18  C   UNL     1     113.419 126.806 140.228  0.00  0.00    +0.000 A 
ATOM     19  C   UNL     1     113.871 126.632 139.560  0.00  0.00    +0.000 A 
BRANCH  17  20
ATOM     20  O   UNL     1     112.144 126.921 140.862  0.00  0.00    +0.000 OA
ATOM     21  C   UNL     1     111.337 126.747 140.872  0.00  0.00    +0.000 C 
ENDBRANCH  17  20
BRANCH  18  22
ATOM     22  O   UNL     1     113.788 127.036 140.927  0.00  0.00    +0.000 OA
ATOM     23  C   UNL     1     114.606 127.148 140.944  0.00  0.00    +0.000 C 
ENDBRANCH  18  22
ENDBRANCH   7  14
BRANCH   8  24
ATOM     24  O   UNL     1     111.615 127.819 136.413  0.00  0.00    +0.000 OA
ATOM     25  C   UNL     1     112.107 128.248 135.909  0.00  0.00    +0.000 C 
ENDBRANCH   8  24
BRANCH  12  26
ATOM     26  O   UNL     1     110.578 125.766 134.717  0.00  0.00    +0.000 OA
ATOM     27  C   UNL     1     109.755 125.780 134.662  0.00  0.00    +0.000 C 
ENDBRANCH  12  26
TORSDOF 5
ENDMDL
MODEL 8
REMARK VINA RESULT:      -7.4      2.748      3.582
REMARK  Name = 171488
REMARK  5 active torsions:
REMARK  status: ('A' for Active; 'I' for Inactive)
REMARK    1  A    between atoms: O_2  and  C_12
REMARK    2  A    between atoms: O_3  and  C_17
REMARK    3  A    between atoms: O_7  and  C_21
REMARK    4  A    between atoms: O_8  and  C_22
REMARK    5  A    between atoms: C_11  and  C_14
REMARK                            x       y       z     vdW  Elec       q    Type
REMARK                         _______ _______ _______ _____ _____    ______ ____
ROOT
ATOM      1  O   UNL     1     112.417 127.468 137.260  0.00  0.00    +0.000 OA
ATOM      2  O   UNL     1     114.117 129.614 136.318  0.00  0.00    +0.000 OA
ATOM      3  O   UNL     1     112.266 130.091 138.443  0.00  0.00    +0.000 OA
ATOM      4  O   UNL     1     114.223 128.314 135.699  0.00  0.00    +0.000 OA
ATOM      5  C   UNL     1     113.276 128.556 136.785  0.00  0.00    +0.000 A 
ATOM      6  C   UNL     1     112.688 128.283 137.294  0.00  0.00    +0.000 A 
ATOM      7  C   UNL     1     112.764 126.930 136.686  0.00  0.00    +0.000 A 
ATOM      8  C   UNL     1     112.351 128.795 137.847  0.00  0.00    +0.000 A 
ATOM      9  C   UNL     1     113.528 129.341 136.828  0.00  0.00    +0.000 A 
ATOM     10  C   UNL     1     113.635 128.033 136.205  0.00  0.00    +0.000 A 
ATOM     11  C   UNL     1     113.377 127.214 136.155  0.00  0.00    +0.000 A 
ATOM     12  C   UNL     1     113.191 129.852 137.380  0.00  0.00    +0.000 A 
ATOM     13  C   UNL     1     112.603 129.579 137.890  0.00  0.00    +0.000 A 
ENDROOT
BRANCH   7  14
ATOM     14  C   UNL     1     112.511 126.146 136.645  0.00  0.00    +0.000 A 
ATOM     15  C   UNL     1     111.849 125.950 136.194  0.00  0.00    +0.000 A 
ATOM     16  C   UNL     1     112.920 125.559 137.055  0.00  0.00    +0.000 A 
ATOM     17  C   UNL     1     111.595 125.167 136.153  0.00  0.00    +0.000 A 
ATOM     18  C   UNL     1     112.003 124.578 136.563  0.00  0.00    +0.000 A 
ATOM     19  C   UNL     1     112.665 124.774 137.014  0.00  0.00    +0.000 A 
BRANCH  17  20
ATOM     20  O   UNL     1     110.933 124.970 135.702  0.00  0.00    +0.000 OA
ATOM     21  C   UNL     1     110.504 125.562 135.317  0.00  0.00    +0.000 C 
ENDBRANCH  17  20
BRANCH  18  22
ATOM     22  O   UNL     1     111.750 123.795 136.522  0.00  0.00    +0.000 OA
ATOM     23  C   UNL     1     112.105 123.221 136.997  0.00  0.00    +0.000 C 
ENDBRANCH  18  22
ENDBRANCH   7  14
BRANCH   8  24
ATOM     24  O   UNL     1     111.763 128.522 138.357  0.00  0.00    +0.000 OA
ATOM     25  C   UNL     1     111.887 128.529 139.172  0.00  0.00    +0.000 C 
ENDBRANCH   8  24
BRANCH  12  26
ATOM     26  O   UNL     1     113.443 130.637 137.423  0.00  0.00    +0.000 OA
ATOM     27  C   UNL     1     113.041 131.222 137.003  0.00  0.00    +0.000 C 
ENDBRANCH  12  26
TORSDOF 5
ENDMDL
MODEL 9
REMARK VINA RESULT:      -7.3     11.014     12.879
REMARK  Name = 171488
REMARK  5 active torsions:
REMARK  status: ('A' for Active; 'I' for Inactive)
REMARK    1  A    between atoms: O_2  and  C_12
REMARK    2  A    between atoms: O_3  and  C_17
REMARK    3  A    between atoms: O_7  and  C_21
REMARK    4  A    between atoms: O_8  and  C_22
REMARK    5  A    between atoms: C_11  and  C_14
REMARK                            x       y       z     vdW  Elec       q    Type
REMARK                         _______ _______ _______ _____ _____    ______ ____
ROOT
ATOM      1  O   UNL     1     104.535 124.830 146.624  0.00  0.00    +0.000 OA
ATOM      2  O   UNL     1     102.511 123.849 148.445  0.00  0.00    +0.000 OA
ATOM      3  O   UNL     1     102.570 122.915 145.745  0.00  0.00    +0.000 OA
ATOM      4  O   UNL     1     103.477 124.808 148.924  0.00  0.00    +0.000 OA
ATOM      5  C   UNL     1     103.509 124.332 147.544  0.00  0.00    +0.000 A 
ATOM      6  C   UNL     1     103.852 124.338 146.793  0.00  0.00    +0.000 A 
ATOM      7  C   UNL     1     104.866 125.325 147.244  0.00  0.00    +0.000 A 
ATOM      8  C   UNL     1     103.539 123.865 146.194  0.00  0.00    +0.000 A 
ATOM      9  C   UNL     1     102.853 123.854 147.695  0.00  0.00    +0.000 A 
ATOM     10  C   UNL     1     103.826 124.819 148.176  0.00  0.00    +0.000 A 
ATOM     11  C   UNL     1     104.509 125.319 148.026  0.00  0.00    +0.000 A 
ATOM     12  C   UNL     1     102.541 123.382 147.095  0.00  0.00    +0.000 A 
ATOM     13  C   UNL     1     102.884 123.388 146.344  0.00  0.00    +0.000 A 
ENDROOT
BRANCH   7  14
ATOM     14  C   UNL     1     105.521 125.801 147.091  0.00  0.00    +0.000 A 
ATOM     15  C   UNL     1     106.283 125.508 147.214  0.00  0.00    +0.000 A 
ATOM     16  C   UNL     1     105.416 126.572 146.815  0.00  0.00    +0.000 A 
ATOM     17  C   UNL     1     106.938 125.983 147.061  0.00  0.00    +0.000 A 
ATOM     18  C   UNL     1     106.834 126.754 146.784  0.00  0.00    +0.000 A 
ATOM     19  C   UNL     1     106.073 127.048 146.661  0.00  0.00    +0.000 A 
BRANCH  17  20
ATOM     20  O   UNL     1     107.699 125.690 147.184  0.00  0.00    +0.000 OA
ATOM     21  C   UNL     1     107.828 125.097 147.744  0.00  0.00    +0.000 C 
ENDBRANCH  17  20
BRANCH  18  22
ATOM     22  O   UNL     1     107.489 127.230 146.631  0.00  0.00    +0.000 OA
ATOM     23  C   UNL     1     107.385 127.988 146.322  0.00  0.00    +0.000 C 
ENDBRANCH  18  22
ENDBRANCH   7  14
BRANCH   8  24
ATOM     24  O   UNL     1     103.881 123.870 145.443  0.00  0.00    +0.000 OA
ATOM     25  C   UNL     1     104.152 123.167 145.108  0.00  0.00    +0.000 C 
ENDBRANCH   8  24
BRANCH  12  26
ATOM     26  O   UNL     1     101.885 122.905 147.246  0.00  0.00    +0.000 OA
ATOM     27  C   UNL     1     101.127 123.179 147.073  0.00  0.00    +0.000 C 
ENDBRANCH  12  26
TORSDOF 5
ENDMDL
MODEL 10
REMARK VINA RESULT:      -7.3     10.760     12.508
REMARK  Name = 171488
REMARK  5 active torsions:
REMARK  status: ('A' for Active; 'I' for Inactive)
REMARK    1  A    between atoms: O_2  and  C_12
REMARK    2  A    between atoms: O_3  and  C_17
REMARK    3  A    between atoms: O_7  and  C_21
REMARK    4  A    between atoms: O_8  and  C_22
REMARK    5  A    between atoms: C_11  and  C_14
REMARK                            x       y       z     vdW  Elec       q    Type
REMARK                         _______ _______ _______ _____ _____    ______ ____
ROOT
ATOM      1  O   UNL     1     104.422 124.736 146.056  0.00  0.00    +0.000 OA
ATOM      2  O   UNL     1     106.728 124.981 147.789  0.00  0.00    +0.000 OA
ATOM      3  O   UNL     1     106.797 126.101 145.160  0.00  0.00    +0.000 OA
ATOM      4  O   UNL     1     105.557 124.290 148.275  0.00  0.00    +0.000 OA
ATOM      5  C   UNL     1     105.590 124.861 146.931  0.00  0.00    +0.000 A 
ATOM      6  C   UNL     1     105.223 125.008 146.207  0.00  0.00    +0.000 A 
ATOM      7  C   UNL     1     103.998 124.305 146.667  0.00  0.00    +0.000 A 
ATOM      8  C   UNL     1     105.625 125.421 145.617  0.00  0.00    +0.000 A 
ATOM      9  C   UNL     1     106.360 125.128 147.065  0.00  0.00    +0.000 A 
ATOM     10  C   UNL     1     105.183 124.432 147.554  0.00  0.00    +0.000 A 
ATOM     11  C   UNL     1     104.381 124.152 147.421  0.00  0.00    +0.000 A 
ATOM     12  C   UNL     1     106.762 125.540 146.474  0.00  0.00    +0.000 A 
ATOM     13  C   UNL     1     106.394 125.687 145.750  0.00  0.00    +0.000 A 
ENDROOT
BRANCH   7  14
ATOM     14  C   UNL     1     103.229 124.040 146.531  0.00  0.00    +0.000 A 
ATOM     15  C   UNL     1     102.591 124.429 146.880  0.00  0.00    +0.000 A 
ATOM     16  C   UNL     1     103.098 123.386 146.045  0.00  0.00    +0.000 A 
ATOM     17  C   UNL     1     101.822 124.164 146.744  0.00  0.00    +0.000 A 
ATOM     18  C   UNL     1     101.690 123.510 146.259  0.00  0.00    +0.000 A 
ATOM     19  C   UNL     1     102.328 123.121 145.909  0.00  0.00    +0.000 A 
BRANCH  17  20
ATOM     20  O   UNL     1     101.184 124.553 147.094  0.00  0.00    +0.000 OA
ATOM     21  C   UNL     1     101.292 124.980 147.792  0.00  0.00    +0.000 C 
ENDBRANCH  17  20
BRANCH  18  22
ATOM     22  O   UNL     1     100.921 123.246 146.123  0.00  0.00    +0.000 OA
ATOM     23  C   UNL     1     100.765 122.740 145.489  0.00  0.00    +0.000 C 
ENDBRANCH  18  22
ENDBRANCH   7  14
BRANCH   8  24
ATOM     24  O   UNL     1     105.258 125.568 144.893  0.00  0.00    +0.000 OA
ATOM     25  C   UNL     1     105.692 125.525 144.193  0.00  0.00    +0.000 C 
ENDBRANCH   8  24
BRANCH  12  26
ATOM     26  O   UNL     1     107.532 125.807 146.608  0.00  0.00    +0.000 OA
ATOM     27  C   UNL     1     107.660 126.573 146.886  0.00  0.00    +0.000 C 
ENDBRANCH  12  26
TORSDOF 5
ENDMDL
