MODEL 1
REMARK VINA RESULT:      -8.9      0.000      0.000
REMARK  Name = 15726099
REMARK  5 active torsions:
REMARK  status: ('A' for Active; 'I' for Inactive)
REMARK    1  A    between atoms: O_2  and  C_10
REMARK    2  A    between atoms: O_3  and  C_12
REMARK    3  A    between atoms: O_6  and  C_21
REMARK    4  A    between atoms: C_8  and  C_13
REMARK    5  A    between atoms: C_16  and  C_20
REMARK                            x       y       z     vdW  Elec       q    Type
REMARK                         _______ _______ _______ _____ _____    ______ ____
ROOT
ATOM      1  O   UNL     1     106.584 125.003 146.851  0.00  0.00    +0.000 OA
ATOM      2  O   UNL     1     107.333 127.406 146.577  0.00  0.00    +0.000 OA
ATOM      3  C   UNL     1     106.146 126.237 144.712  0.00  0.00    +0.000 A 
ATOM      4  C   UNL     1     106.683 126.215 146.036  0.00  0.00    +0.000 A 
ATOM      5  C   UNL     1     106.537 126.618 145.330  0.00  0.00    +0.000 A 
ATOM      6  C   UNL     1     106.438 125.432 146.122  0.00  0.00    +0.000 A 
ATOM      7  C   UNL     1     105.900 125.454 144.798  0.00  0.00    +0.000 A 
ATOM      8  C   UNL     1     106.046 125.052 145.503  0.00  0.00    +0.000 A 
ATOM      9  C   UNL     1     107.091 126.623 146.672  0.00  0.00    +0.000 A 
ATOM     10  C   UNL     1     106.991 125.393 147.500  0.00  0.00    +0.000 A 
ATOM     11  C   UNL     1     107.247 126.209 147.410  0.00  0.00    +0.000 A 
ENDROOT
BRANCH   3  14
ATOM     12  O   UNL     1     105.168 127.495 143.219  0.00  0.00    +0.000 OA
ATOM     13  O   UNL     1     107.223 126.138 143.466  0.00  0.00    +0.000 OA
ATOM     14  C   UNL     1     105.999 126.640 144.006  0.00  0.00    +0.000 A 
ATOM     15  C   UNL     1     106.538 126.590 143.383  0.00  0.00    +0.000 A 
ATOM     16  C   UNL     1     105.314 127.092 143.924  0.00  0.00    +0.000 A 
ATOM     17  C   UNL     1     106.392 126.993 142.679  0.00  0.00    +0.000 A 
ATOM     18  C   UNL     1     105.707 127.445 142.596  0.00  0.00    +0.000 A 
ATOM     19  C   UNL     1     105.561 127.848 141.891  0.00  0.00    +0.000 C 
BRANCH  17  20
ATOM     20  O   UNL     1     106.931 126.943 142.056  0.00  0.00    +0.000 OA
ATOM     21  C   UNL     1     107.522 127.513 141.975  0.00  0.00    +0.000 C 
ENDBRANCH  17  20
ENDBRANCH   3  14
BRANCH  10  22
ATOM     22  C   UNL     1     107.136 124.989 148.204  0.00  0.00    +0.000 A 
ATOM     23  C   UNL     1     107.908 124.787 148.412  0.00  0.00    +0.000 A 
ATOM     24  C   UNL     1     106.509 124.785 148.700  0.00  0.00    +0.000 A 
ATOM     25  C   UNL     1     108.055 124.383 149.116  0.00  0.00    +0.000 A 
ATOM     26  C   UNL     1     106.654 124.381 149.404  0.00  0.00    +0.000 A 
ATOM     27  C   UNL     1     107.427 124.179 149.612  0.00  0.00    +0.000 A 
ENDBRANCH  10  22
BRANCH   5  28
ATOM     28  O   UNL     1     106.782 127.401 145.243  0.00  0.00    +0.000 OA
ATOM     29  C   UNL     1     106.923 127.865 145.911  0.00  0.00    +0.000 C 
ENDBRANCH   5  28
BRANCH   7  30
ATOM     30  O   UNL     1     105.509 125.074 144.179  0.00  0.00    +0.000 OA
ATOM     31  C   UNL     1     105.234 124.303 144.278  0.00  0.00    +0.000 C 
ENDBRANCH   7  30
TORSDOF 5
ENDMDL
MODEL 2
REMARK VINA RESULT:      -8.7      9.131     10.993
REMARK  Name = 15726099
REMARK  5 active torsions:
REMARK  status: ('A' for Active; 'I' for Inactive)
REMARK    1  A    between atoms: O_2  and  C_10
REMARK    2  A    between atoms: O_3  and  C_12
REMARK    3  A    between atoms: O_6  and  C_21
REMARK    4  A    between atoms: C_8  and  C_13
REMARK    5  A    between atoms: C_16  and  C_20
REMARK                            x       y       z     vdW  Elec       q    Type
REMARK                         _______ _______ _______ _____ _____    ______ ____
ROOT
ATOM      1  O   UNL     1     113.539 127.351 136.830  0.00  0.00    +0.000 OA
ATOM      2  O   UNL     1     111.518 127.592 138.336  0.00  0.00    +0.000 OA
ATOM      3  C   UNL     1     112.373 129.561 137.053  0.00  0.00    +0.000 A 
ATOM      4  C   UNL     1     112.476 128.180 137.403  0.00  0.00    +0.000 A 
ATOM      5  C   UNL     1     112.095 128.909 137.474  0.00  0.00    +0.000 A 
ATOM      6  C   UNL     1     113.134 128.104 136.912  0.00  0.00    +0.000 A 
ATOM      7  C   UNL     1     113.032 129.486 136.561  0.00  0.00    +0.000 A 
ATOM      8  C   UNL     1     113.412 128.758 136.491  0.00  0.00    +0.000 A 
ATOM      9  C   UNL     1     112.177 127.508 137.846  0.00  0.00    +0.000 A 
ATOM     10  C   UNL     1     113.255 126.667 137.266  0.00  0.00    +0.000 A 
ATOM     11  C   UNL     1     112.569 126.746 137.777  0.00  0.00    +0.000 A 
ENDROOT
BRANCH   3  14
ATOM     12  O   UNL     1     111.840 131.548 137.784  0.00  0.00    +0.000 OA
ATOM     13  O   UNL     1     111.154 129.960 136.014  0.00  0.00    +0.000 OA
ATOM     14  C   UNL     1     111.992 130.290 137.123  0.00  0.00    +0.000 A 
ATOM     15  C   UNL     1     111.383 130.490 136.604  0.00  0.00    +0.000 A 
ATOM     16  C   UNL     1     112.221 130.819 137.713  0.00  0.00    +0.000 A 
ATOM     17  C   UNL     1     111.003 131.218 136.675  0.00  0.00    +0.000 A 
ATOM     18  C   UNL     1     111.231 131.748 137.265  0.00  0.00    +0.000 A 
ATOM     19  C   UNL     1     110.851 132.476 137.335  0.00  0.00    +0.000 C 
BRANCH  17  20
ATOM     20  O   UNL     1     110.393 131.417 136.155  0.00  0.00    +0.000 OA
ATOM     21  C   UNL     1     109.607 131.361 136.401  0.00  0.00    +0.000 C 
ENDBRANCH  17  20
ENDBRANCH   3  14
BRANCH  10  22
ATOM     22  C   UNL     1     113.637 125.939 137.194  0.00  0.00    +0.000 A 
ATOM     23  C   UNL     1     114.245 125.740 137.714  0.00  0.00    +0.000 A 
ATOM     24  C   UNL     1     113.412 125.412 136.601  0.00  0.00    +0.000 A 
ATOM     25  C   UNL     1     114.628 125.013 137.643  0.00  0.00    +0.000 A 
ATOM     26  C   UNL     1     113.795 124.684 136.529  0.00  0.00    +0.000 A 
ATOM     27  C   UNL     1     114.403 124.485 137.050  0.00  0.00    +0.000 A 
ENDBRANCH  10  22
BRANCH   5  28
ATOM     28  O   UNL     1     111.437 128.985 137.965  0.00  0.00    +0.000 OA
ATOM     29  C   UNL     1     111.314 128.443 138.576  0.00  0.00    +0.000 C 
ENDBRANCH   5  28
BRANCH   7  30
ATOM     30  O   UNL     1     113.309 130.139 136.141  0.00  0.00    +0.000 OA
ATOM     31  C   UNL     1     114.027 130.095 135.737  0.00  0.00    +0.000 C 
ENDBRANCH   7  30
TORSDOF 5
ENDMDL
MODEL 3
REMARK VINA RESULT:      -8.7     10.191     11.124
REMARK  Name = 15726099
REMARK  5 active torsions:
REMARK  status: ('A' for Active; 'I' for Inactive)
REMARK    1  A    between atoms: O_2  and  C_10
REMARK    2  A    between atoms: O_3  and  C_12
REMARK    3  A    between atoms: O_6  and  C_21
REMARK    4  A    between atoms: C_8  and  C_13
REMARK    5  A    between atoms: C_16  and  C_20
REMARK                            x       y       z     vdW  Elec       q    Type
REMARK                         _______ _______ _______ _____ _____    ______ ____
ROOT
ATOM      1  O   UNL     1     112.562 126.459 136.167  0.00  0.00    +0.000 OA
ATOM      2  O   UNL     1     113.095 128.804 136.959  0.00  0.00    +0.000 OA
ATOM      3  C   UNL     1     111.014 128.363 135.644  0.00  0.00    +0.000 A 
ATOM      4  C   UNL     1     112.214 127.880 136.251  0.00  0.00    +0.000 A 
ATOM      5  C   UNL     1     111.702 128.504 136.077  0.00  0.00    +0.000 A 
ATOM      6  C   UNL     1     112.038 127.116 135.992  0.00  0.00    +0.000 A 
ATOM      7  C   UNL     1     110.838 127.600 135.384  0.00  0.00    +0.000 A 
ATOM      8  C   UNL     1     111.349 126.977 135.559  0.00  0.00    +0.000 A 
ATOM      9  C   UNL     1     112.927 128.038 136.704  0.00  0.00    +0.000 A 
ATOM     10  C   UNL     1     113.280 126.598 136.618  0.00  0.00    +0.000 A 
ATOM     11  C   UNL     1     113.464 127.393 136.888  0.00  0.00    +0.000 A 
ENDROOT
BRANCH   3  14
ATOM     12  O   UNL     1     110.105 130.060 134.613  0.00  0.00    +0.000 OA
ATOM     13  O   UNL     1     109.762 128.711 136.660  0.00  0.00    +0.000 OA
ATOM     14  C   UNL     1     110.502 128.987 135.469  0.00  0.00    +0.000 A 
ATOM     15  C   UNL     1     109.876 129.161 135.978  0.00  0.00    +0.000 A 
ATOM     16  C   UNL     1     110.617 129.436 134.787  0.00  0.00    +0.000 A 
ATOM     17  C   UNL     1     109.365 129.784 135.803  0.00  0.00    +0.000 A 
ATOM     18  C   UNL     1     109.479 130.234 135.121  0.00  0.00    +0.000 A 
ATOM     19  C   UNL     1     108.968 130.857 134.947  0.00  0.00    +0.000 C 
BRANCH  17  20
ATOM     20  O   UNL     1     108.739 129.958 136.311  0.00  0.00    +0.000 OA
ATOM     21  C   UNL     1     108.805 130.580 136.851  0.00  0.00    +0.000 C 
ENDBRANCH  17  20
ENDBRANCH   3  14
BRANCH  10  22
ATOM     22  C   UNL     1     113.790 125.973 136.791  0.00  0.00    +0.000 A 
ATOM     23  C   UNL     1     114.448 125.833 136.313  0.00  0.00    +0.000 A 
ATOM     24  C   UNL     1     113.644 125.488 137.442  0.00  0.00    +0.000 A 
ATOM     25  C   UNL     1     114.958 125.208 136.484  0.00  0.00    +0.000 A 
ATOM     26  C   UNL     1     114.154 124.863 137.615  0.00  0.00    +0.000 A 
ATOM     27  C   UNL     1     114.811 124.724 137.136  0.00  0.00    +0.000 A 
ENDBRANCH  10  22
BRANCH   5  28
ATOM     28  O   UNL     1     111.878 129.267 136.336  0.00  0.00    +0.000 OA
ATOM     29  C   UNL     1     112.653 129.464 136.540  0.00  0.00    +0.000 C 
ENDBRANCH   5  28
BRANCH   7  30
ATOM     30  O   UNL     1     110.150 127.461 134.951  0.00  0.00    +0.000 OA
ATOM     31  C   UNL     1     110.019 126.720 134.612  0.00  0.00    +0.000 C 
ENDBRANCH   7  30
TORSDOF 5
ENDMDL
MODEL 4
REMARK VINA RESULT:      -8.7     10.344     11.238
REMARK  Name = 15726099
REMARK  5 active torsions:
REMARK  status: ('A' for Active; 'I' for Inactive)
REMARK    1  A    between atoms: O_2  and  C_10
REMARK    2  A    between atoms: O_3  and  C_12
REMARK    3  A    between atoms: O_6  and  C_21
REMARK    4  A    between atoms: C_8  and  C_13
REMARK    5  A    between atoms: C_16  and  C_20
REMARK                            x       y       z     vdW  Elec       q    Type
REMARK                         _______ _______ _______ _____ _____    ______ ____
ROOT
ATOM      1  O   UNL     1     113.180 127.243 136.626  0.00  0.00    +0.000 OA
ATOM      2  O   UNL     1     111.008 126.327 135.702  0.00  0.00    +0.000 OA
ATOM      3  C   UNL     1     111.357 128.797 135.880  0.00  0.00    +0.000 A 
ATOM      4  C   UNL     1     111.845 127.467 136.068  0.00  0.00    +0.000 A 
ATOM      5  C   UNL     1     111.247 127.982 135.823  0.00  0.00    +0.000 A 
ATOM      6  C   UNL     1     112.551 127.768 136.368  0.00  0.00    +0.000 A 
ATOM      7  C   UNL     1     112.064 129.099 136.180  0.00  0.00    +0.000 A 
ATOM      8  C   UNL     1     112.660 128.584 136.424  0.00  0.00    +0.000 A 
ATOM      9  C   UNL     1     111.718 126.620 136.004  0.00  0.00    +0.000 A 
ATOM     10  C   UNL     1     113.072 126.392 136.570  0.00  0.00    +0.000 A 
ATOM     11  C   UNL     1     112.336 126.079 136.257  0.00  0.00    +0.000 A 
ENDROOT
BRANCH   3  14
ATOM     12  O   UNL     1     110.146 130.099 134.612  0.00  0.00    +0.000 OA
ATOM     13  O   UNL     1     110.196 129.280 136.948  0.00  0.00    +0.000 OA
ATOM     14  C   UNL     1     110.760 129.312 135.635  0.00  0.00    +0.000 A 
ATOM     15  C   UNL     1     110.179 129.554 136.169  0.00  0.00    +0.000 A 
ATOM     16  C   UNL     1     110.744 129.584 134.857  0.00  0.00    +0.000 A 
ATOM     17  C   UNL     1     109.583 130.067 135.925  0.00  0.00    +0.000 A 
ATOM     18  C   UNL     1     109.566 130.341 135.146  0.00  0.00    +0.000 A 
ATOM     19  C   UNL     1     108.969 130.854 134.902  0.00  0.00    +0.000 C 
BRANCH  17  20
ATOM     20  O   UNL     1     109.002 130.309 136.459  0.00  0.00    +0.000 OA
ATOM     21  C   UNL     1     109.046 131.057 136.806  0.00  0.00    +0.000 C 
ENDBRANCH  17  20
ENDBRANCH   3  14
BRANCH  10  22
ATOM     22  C   UNL     1     113.671 125.880 136.815  0.00  0.00    +0.000 A 
ATOM     23  C   UNL     1     113.714 125.644 137.604  0.00  0.00    +0.000 A 
ATOM     24  C   UNL     1     114.226 125.604 136.271  0.00  0.00    +0.000 A 
ATOM     25  C   UNL     1     114.312 125.132 137.850  0.00  0.00    +0.000 A 
ATOM     26  C   UNL     1     114.825 125.092 136.516  0.00  0.00    +0.000 A 
ATOM     27  C   UNL     1     114.867 124.856 137.306  0.00  0.00    +0.000 A 
ENDBRANCH  10  22
BRANCH   5  28
ATOM     28  O   UNL     1     110.540 127.680 135.522  0.00  0.00    +0.000 OA
ATOM     29  C   UNL     1     110.520 126.921 135.199  0.00  0.00    +0.000 C 
ENDBRANCH   5  28
BRANCH   7  30
ATOM     30  O   UNL     1     112.173 129.915 136.236  0.00  0.00    +0.000 OA
ATOM     31  C   UNL     1     112.908 130.218 136.456  0.00  0.00    +0.000 C 
ENDBRANCH   7  30
TORSDOF 5
ENDMDL
MODEL 5
REMARK VINA RESULT:      -8.6      8.279      9.975
REMARK  Name = 15726099
REMARK  5 active torsions:
REMARK  status: ('A' for Active; 'I' for Inactive)
REMARK    1  A    between atoms: O_2  and  C_10
REMARK    2  A    between atoms: O_3  and  C_12
REMARK    3  A    between atoms: O_6  and  C_21
REMARK    4  A    between atoms: C_8  and  C_13
REMARK    5  A    between atoms: C_16  and  C_20
REMARK                            x       y       z     vdW  Elec       q    Type
REMARK                         _______ _______ _______ _____ _____    ______ ____
ROOT
ATOM      1  O   UNL     1     113.336 126.026 138.639  0.00  0.00    +0.000 OA
ATOM      2  O   UNL     1     111.606 127.812 138.161  0.00  0.00    +0.000 OA
ATOM      3  C   UNL     1     113.180 128.069 140.088  0.00  0.00    +0.000 A 
ATOM      4  C   UNL     1     112.711 127.309 138.972  0.00  0.00    +0.000 A 
ATOM      5  C   UNL     1     112.663 127.979 139.451  0.00  0.00    +0.000 A 
ATOM      6  C   UNL     1     113.276 126.728 139.130  0.00  0.00    +0.000 A 
ATOM      7  C   UNL     1     113.745 127.488 140.246  0.00  0.00    +0.000 A 
ATOM      8  C   UNL     1     113.792 126.819 139.767  0.00  0.00    +0.000 A 
ATOM      9  C   UNL     1     112.168 127.227 138.312  0.00  0.00    +0.000 A 
ATOM     10  C   UNL     1     112.800 125.927 137.974  0.00  0.00    +0.000 A 
ATOM     11  C   UNL     1     112.212 126.531 137.809  0.00  0.00    +0.000 A 
ENDROOT
BRANCH   3  14
ATOM     12  O   UNL     1     112.607 129.402 141.719  0.00  0.00    +0.000 OA
ATOM     13  O   UNL     1     114.037 129.424 139.699  0.00  0.00    +0.000 OA
ATOM     14  C   UNL     1     113.132 128.739 140.567  0.00  0.00    +0.000 A 
ATOM     15  C   UNL     1     113.561 129.417 140.372  0.00  0.00    +0.000 A 
ATOM     16  C   UNL     1     112.655 128.731 141.240  0.00  0.00    +0.000 A 
ATOM     17  C   UNL     1     113.513 130.086 140.851  0.00  0.00    +0.000 A 
ATOM     18  C   UNL     1     113.036 130.080 141.524  0.00  0.00    +0.000 A 
ATOM     19  C   UNL     1     112.988 130.749 142.003  0.00  0.00    +0.000 C 
BRANCH  17  20
ATOM     20  O   UNL     1     113.941 130.764 140.656  0.00  0.00    +0.000 OA
ATOM     21  C   UNL     1     114.666 130.914 141.023  0.00  0.00    +0.000 C 
ENDBRANCH  17  20
ENDBRANCH   3  14
BRANCH  10  22
ATOM     22  C   UNL     1     112.850 125.255 137.497  0.00  0.00    +0.000 A 
ATOM     23  C   UNL     1     113.513 125.137 137.019  0.00  0.00    +0.000 A 
ATOM     24  C   UNL     1     112.239 124.702 137.496  0.00  0.00    +0.000 A 
ATOM     25  C   UNL     1     113.564 124.467 136.542  0.00  0.00    +0.000 A 
ATOM     26  C   UNL     1     112.289 124.031 137.019  0.00  0.00    +0.000 A 
ATOM     27  C   UNL     1     112.952 123.914 136.542  0.00  0.00    +0.000 A 
ENDBRANCH  10  22
BRANCH   5  28
ATOM     28  O   UNL     1     112.098 128.560 139.293  0.00  0.00    +0.000 OA
ATOM     29  C   UNL     1     111.419 128.368 138.865  0.00  0.00    +0.000 C 
ENDBRANCH   5  28
BRANCH   7  30
ATOM     30  O   UNL     1     114.261 127.579 140.883  0.00  0.00    +0.000 OA
ATOM     31  C   UNL     1     114.792 126.976 141.071  0.00  0.00    +0.000 C 
ENDBRANCH   7  30
TORSDOF 5
ENDMDL
