MODEL 1
REMARK VINA RESULT:      -9.2      0.000      0.000
REMARK  Name = 
REMARK  3 active torsions:
REMARK  status: ('A' for Active; 'I' for Inactive)
REMARK    1  A    between atoms: C_8  and  C_18
REMARK    2  A    between atoms: C_19  and  O_30
REMARK    3  A    between atoms: C_20  and  O_30
REMARK                            x       y       z     vdW  Elec       q    Type
REMARK                         _______ _______ _______ _____ _____    ______ ____
ROOT
ATOM      1  C   UNL     1     111.854 124.239 136.487  0.00  0.00    +0.000 A 
ATOM      2  C   UNL     1     113.259 125.181 136.862  0.00  0.00    +0.000 A 
ATOM      3  C   UNL     1     112.779 124.303 136.862  0.00  0.00    +0.000 A 
ATOM      4  C   UNL     1     111.409 125.053 136.112  0.00  0.00    +0.000 A 
ATOM      5  C   UNL     1     112.814 125.994 136.487  0.00  0.00    +0.000 A 
ATOM      6  C   UNL     1     111.889 125.930 136.112  0.00  0.00    +0.000 A 
ATOM      7  C   UNL     1     111.444 126.743 135.737  0.00  0.00    +0.000 A 
ATOM      8  C   UNL     1     112.849 127.685 136.112  0.00  0.00    +0.000 A 
ATOM      9  C   UNL     1     111.924 127.621 135.737  0.00  0.00    +0.000 A 
ATOM     10  O   UNL     1     113.223 123.490 137.237  0.00  0.00    +0.000 OA
ATOM     11  O   UNL     1     110.484 124.989 135.737  0.00  0.00    +0.000 OA
ATOM     12  O   UNL     1     110.520 126.680 135.362  0.00  0.00    +0.000 OA
ATOM     13  O   UNL     1     113.294 126.871 136.487  0.00  0.00    +0.000 OA
ENDROOT
BRANCH   8  18
ATOM     14  C   UNL     1     113.749 128.902 135.271  0.00  0.00    +0.000 A 
ATOM     15  C   UNL     1     113.389 129.099 136.954  0.00  0.00    +0.000 A 
ATOM     16  C   UNL     1     114.229 129.779 135.272  0.00  0.00    +0.000 A 
ATOM     17  C   UNL     1     113.869 129.976 136.954  0.00  0.00    +0.000 A 
ATOM     18  C   UNL     1     113.329 128.562 136.113  0.00  0.00    +0.000 A 
ATOM     19  C   UNL     1     114.289 130.316 136.113  0.00  0.00    +0.000 A 
ATOM     20  O   UNL     1     114.769 131.194 136.113  0.00  0.00    +0.000 OA
ENDBRANCH   8  18
BRANCH   9  21
ATOM     21  O   UNL     1     111.480 128.434 135.362  0.00  0.00    +0.000 OA
BRANCH  21  26
ATOM     22  C   UNL     1     109.710 129.660 134.617  0.00  0.00    +0.000 C 
ATOM     23  C   UNL     1     109.021 129.854 135.314  0.00  0.00    +0.000 C 
ATOM     24  C   UNL     1     109.144 129.516 136.248  0.00  0.00    +0.000 C 
ATOM     25  C   UNL     1     109.956 128.984 136.484  0.00  0.00    +0.000 C 
ATOM     26  C   UNL     1     110.647 128.789 135.787  0.00  0.00    +0.000 C 
ATOM     27  O   UNL     1     108.188 130.209 135.739  0.00  0.00    +0.000 OA
ATOM     28  O   UNL     1     108.963 129.343 137.216  0.00  0.00    +0.000 OA
ATOM     29  O   UNL     1     110.608 128.455 137.028  0.00  0.00    +0.000 OA
ATOM     30  O   UNL     1     110.523 129.127 134.854  0.00  0.00    +0.000 OA
ENDBRANCH  21  26
ENDBRANCH   9  21
TORSDOF 3
ENDMDL
MODEL 2
REMARK VINA RESULT:      -8.8      2.358      5.139
REMARK  Name = 
REMARK  3 active torsions:
REMARK  status: ('A' for Active; 'I' for Inactive)
REMARK    1  A    between atoms: C_8  and  C_18
REMARK    2  A    between atoms: C_19  and  O_30
REMARK    3  A    between atoms: C_20  and  O_30
REMARK                            x       y       z     vdW  Elec       q    Type
REMARK                         _______ _______ _______ _____ _____    ______ ____
ROOT
ATOM      1  C   UNL     1     114.193 130.324 136.256  0.00  0.00    +0.000 A 
ATOM      2  C   UNL     1     114.353 128.801 135.448  0.00  0.00    +0.000 A 
ATOM      3  C   UNL     1     114.584 129.771 135.520  0.00  0.00    +0.000 A 
ATOM      4  C   UNL     1     113.572 129.907 136.920  0.00  0.00    +0.000 A 
ATOM      5  C   UNL     1     113.733 128.384 136.112  0.00  0.00    +0.000 A 
ATOM      6  C   UNL     1     113.342 128.937 136.848  0.00  0.00    +0.000 A 
ATOM      7  C   UNL     1     112.721 128.520 137.512  0.00  0.00    +0.000 A 
ATOM      8  C   UNL     1     112.881 126.996 136.704  0.00  0.00    +0.000 A 
ATOM      9  C   UNL     1     112.491 127.549 137.439  0.00  0.00    +0.000 A 
ATOM     10  O   UNL     1     115.205 130.188 134.857  0.00  0.00    +0.000 OA
ATOM     11  O   UNL     1     113.182 130.460 137.656  0.00  0.00    +0.000 OA
ATOM     12  O   UNL     1     112.331 129.073 138.247  0.00  0.00    +0.000 OA
ATOM     13  O   UNL     1     113.502 127.413 136.040  0.00  0.00    +0.000 OA
ENDROOT
BRANCH   8  18
ATOM     14  C   UNL     1     111.748 125.749 136.304  0.00  0.00    +0.000 A 
ATOM     15  C   UNL     1     113.324 125.332 136.887  0.00  0.00    +0.000 A 
ATOM     16  C   UNL     1     111.517 124.779 136.232  0.00  0.00    +0.000 A 
ATOM     17  C   UNL     1     113.094 124.361 136.815  0.00  0.00    +0.000 A 
ATOM     18  C   UNL     1     112.651 126.026 136.632  0.00  0.00    +0.000 A 
ATOM     19  C   UNL     1     112.190 124.085 136.487  0.00  0.00    +0.000 A 
ATOM     20  O   UNL     1     111.960 123.114 136.415  0.00  0.00    +0.000 OA
ENDBRANCH   8  18
BRANCH   9  21
ATOM     21  O   UNL     1     111.870 127.132 138.103  0.00  0.00    +0.000 OA
BRANCH  21  26
ATOM     22  C   UNL     1     110.747 126.951 140.076  0.00  0.00    +0.000 C 
ATOM     23  C   UNL     1     111.335 126.877 140.881  0.00  0.00    +0.000 C 
ATOM     24  C   UNL     1     112.330 126.887 140.776  0.00  0.00    +0.000 C 
ATOM     25  C   UNL     1     112.736 126.970 139.865  0.00  0.00    +0.000 C 
ATOM     26  C   UNL     1     112.147 127.044 139.060  0.00  0.00    +0.000 C 
ATOM     27  O   UNL     1     111.612 126.789 141.837  0.00  0.00    +0.000 OA
ATOM     28  O   UNL     1     113.300 126.864 141.015  0.00  0.00    +0.000 OA
ATOM     29  O   UNL     1     113.429 127.036 139.148  0.00  0.00    +0.000 OA
ATOM     30  O   UNL     1     111.152 127.035 139.166  0.00  0.00    +0.000 OA
ENDBRANCH  21  26
ENDBRANCH   9  21
TORSDOF 3
ENDMDL
MODEL 3
REMARK VINA RESULT:      -8.7      1.279      4.204
REMARK  Name = 
REMARK  3 active torsions:
REMARK  status: ('A' for Active; 'I' for Inactive)
REMARK    1  A    between atoms: C_8  and  C_18
REMARK    2  A    between atoms: C_19  and  O_30
REMARK    3  A    between atoms: C_20  and  O_30
REMARK                            x       y       z     vdW  Elec       q    Type
REMARK                         _______ _______ _______ _____ _____    ______ ____
ROOT
ATOM      1  C   UNL     1     108.860 127.681 135.897  0.00  0.00    +0.000 A 
ATOM      2  C   UNL     1     109.687 129.199 135.794  0.00  0.00    +0.000 A 
ATOM      3  C   UNL     1     108.834 128.678 135.832  0.00  0.00    +0.000 A 
ATOM      4  C   UNL     1     109.738 127.204 135.922  0.00  0.00    +0.000 A 
ATOM      5  C   UNL     1     110.566 128.722 135.819  0.00  0.00    +0.000 A 
ATOM      6  C   UNL     1     110.591 127.724 135.883  0.00  0.00    +0.000 A 
ATOM      7  C   UNL     1     111.469 127.247 135.909  0.00  0.00    +0.000 A 
ATOM      8  C   UNL     1     112.297 128.765 135.806  0.00  0.00    +0.000 A 
ATOM      9  C   UNL     1     112.322 127.767 135.870  0.00  0.00    +0.000 A 
ATOM     10  O   UNL     1     107.956 129.156 135.807  0.00  0.00    +0.000 OA
ATOM     11  O   UNL     1     109.763 126.206 135.987  0.00  0.00    +0.000 OA
ATOM     12  O   UNL     1     111.495 126.249 135.973  0.00  0.00    +0.000 OA
ATOM     13  O   UNL     1     111.419 129.242 135.780  0.00  0.00    +0.000 OA
ENDROOT
BRANCH   8  18
ATOM     14  C   UNL     1     113.454 129.807 136.564  0.00  0.00    +0.000 A 
ATOM     15  C   UNL     1     113.699 129.284 134.931  0.00  0.00    +0.000 A 
ATOM     16  C   UNL     1     114.307 130.328 136.525  0.00  0.00    +0.000 A 
ATOM     17  C   UNL     1     114.552 129.804 134.893  0.00  0.00    +0.000 A 
ATOM     18  C   UNL     1     113.150 129.285 135.767  0.00  0.00    +0.000 A 
ATOM     19  C   UNL     1     114.856 130.326 135.690  0.00  0.00    +0.000 A 
ATOM     20  O   UNL     1     115.709 130.846 135.651  0.00  0.00    +0.000 OA
ENDBRANCH   8  18
BRANCH   9  21
ATOM     21  O   UNL     1     113.201 127.290 135.896  0.00  0.00    +0.000 OA
BRANCH  21  26
ATOM     22  C   UNL     1     114.534 125.481 136.265  0.00  0.00    +0.000 C 
ATOM     23  C   UNL     1     114.588 125.197 137.222  0.00  0.00    +0.000 C 
ATOM     24  C   UNL     1     114.080 125.699 137.922  0.00  0.00    +0.000 C 
ATOM     25  C   UNL     1     113.518 126.485 137.665  0.00  0.00    +0.000 C 
ATOM     26  C   UNL     1     113.463 126.769 136.708  0.00  0.00    +0.000 C 
ATOM     27  O   UNL     1     114.851 124.676 138.034  0.00  0.00    +0.000 OA
ATOM     28  O   UNL     1     113.725 125.959 138.820  0.00  0.00    +0.000 OA
ATOM     29  O   UNL     1     112.900 127.266 137.751  0.00  0.00    +0.000 OA
ATOM     30  O   UNL     1     113.972 126.267 136.008  0.00  0.00    +0.000 OA
ENDBRANCH  21  26
ENDBRANCH   9  21
TORSDOF 3
ENDMDL
MODEL 4
REMARK VINA RESULT:      -8.7      1.271      3.583
REMARK  Name = 
REMARK  3 active torsions:
REMARK  status: ('A' for Active; 'I' for Inactive)
REMARK    1  A    between atoms: C_8  and  C_18
REMARK    2  A    between atoms: C_19  and  O_30
REMARK    3  A    between atoms: C_20  and  O_30
REMARK                            x       y       z     vdW  Elec       q    Type
REMARK                         _______ _______ _______ _____ _____    ______ ____
ROOT
ATOM      1  C   UNL     1     113.035 124.360 136.752  0.00  0.00    +0.000 A 
ATOM      2  C   UNL     1     111.407 124.774 136.328  0.00  0.00    +0.000 A 
ATOM      3  C   UNL     1     112.099 124.082 136.536  0.00  0.00    +0.000 A 
ATOM      4  C   UNL     1     113.280 125.330 136.759  0.00  0.00    +0.000 A 
ATOM      5  C   UNL     1     111.652 125.743 136.335  0.00  0.00    +0.000 A 
ATOM      6  C   UNL     1     112.588 126.021 136.550  0.00  0.00    +0.000 A 
ATOM      7  C   UNL     1     112.833 126.991 136.557  0.00  0.00    +0.000 A 
ATOM      8  C   UNL     1     111.205 127.405 136.133  0.00  0.00    +0.000 A 
ATOM      9  C   UNL     1     112.141 127.682 136.349  0.00  0.00    +0.000 A 
ATOM     10  O   UNL     1     111.854 123.113 136.529  0.00  0.00    +0.000 OA
ATOM     11  O   UNL     1     114.216 125.607 136.974  0.00  0.00    +0.000 OA
ATOM     12  O   UNL     1     113.769 127.269 136.773  0.00  0.00    +0.000 OA
ATOM     13  O   UNL     1     110.961 126.435 136.126  0.00  0.00    +0.000 OA
ENDROOT
BRANCH   8  18
ATOM     14  C   UNL     1     109.804 128.311 136.596  0.00  0.00    +0.000 A 
ATOM     15  C   UNL     1     110.532 128.573 135.046  0.00  0.00    +0.000 A 
ATOM     16  C   UNL     1     109.112 129.003 136.387  0.00  0.00    +0.000 A 
ATOM     17  C   UNL     1     109.841 129.264 134.838  0.00  0.00    +0.000 A 
ATOM     18  C   UNL     1     110.514 128.096 135.925  0.00  0.00    +0.000 A 
ATOM     19  C   UNL     1     109.131 129.480 135.508  0.00  0.00    +0.000 A 
ATOM     20  O   UNL     1     108.439 130.171 135.300  0.00  0.00    +0.000 OA
ENDBRANCH   8  18
BRANCH   9  21
ATOM     21  O   UNL     1     112.386 128.652 136.356  0.00  0.00    +0.000 OA
BRANCH  21  26
ATOM     22  C   UNL     1     113.755 130.399 136.867  0.00  0.00    +0.000 C 
ATOM     23  C   UNL     1     113.835 130.588 137.845  0.00  0.00    +0.000 C 
ATOM     24  C   UNL     1     113.335 130.028 138.505  0.00  0.00    +0.000 C 
ATOM     25  C   UNL     1     112.754 129.278 138.187  0.00  0.00    +0.000 C 
ATOM     26  C   UNL     1     112.674 129.089 137.208  0.00  0.00    +0.000 C 
ATOM     27  O   UNL     1     114.123 131.025 138.697  0.00  0.00    +0.000 OA
ATOM     28  O   UNL     1     112.995 129.687 139.382  0.00  0.00    +0.000 OA
ATOM     29  O   UNL     1     112.126 128.501 138.211  0.00  0.00    +0.000 OA
ATOM     30  O   UNL     1     113.175 129.649 136.548  0.00  0.00    +0.000 OA
ENDBRANCH  21  26
ENDBRANCH   9  21
TORSDOF 3
ENDMDL
MODEL 5
REMARK VINA RESULT:      -8.6      1.652      4.561
REMARK  Name = 
REMARK  3 active torsions:
REMARK  status: ('A' for Active; 'I' for Inactive)
REMARK    1  A    between atoms: C_8  and  C_18
REMARK    2  A    between atoms: C_19  and  O_30
REMARK    3  A    between atoms: C_20  and  O_30
REMARK                            x       y       z     vdW  Elec       q    Type
REMARK                         _______ _______ _______ _____ _____    ______ ____
ROOT
ATOM      1  C   UNL     1     114.579 130.740 136.076  0.00  0.00    +0.000 A 
ATOM      2  C   UNL     1     114.575 129.190 135.304  0.00  0.00    +0.000 A 
ATOM      3  C   UNL     1     114.876 130.143 135.331  0.00  0.00    +0.000 A 
ATOM      4  C   UNL     1     113.982 130.384 136.795  0.00  0.00    +0.000 A 
ATOM      5  C   UNL     1     113.977 128.834 136.023  0.00  0.00    +0.000 A 
ATOM      6  C   UNL     1     113.681 129.431 136.768  0.00  0.00    +0.000 A 
ATOM      7  C   UNL     1     113.084 129.075 137.487  0.00  0.00    +0.000 A 
ATOM      8  C   UNL     1     113.079 127.525 136.715  0.00  0.00    +0.000 A 
ATOM      9  C   UNL     1     112.783 128.122 137.460  0.00  0.00    +0.000 A 
ATOM     10  O   UNL     1     115.473 130.499 134.612  0.00  0.00    +0.000 OA
ATOM     11  O   UNL     1     113.686 130.982 137.540  0.00  0.00    +0.000 OA
ATOM     12  O   UNL     1     112.787 129.673 138.232  0.00  0.00    +0.000 OA
ATOM     13  O   UNL     1     113.676 127.881 135.996  0.00  0.00    +0.000 OA
ENDROOT
BRANCH   8  18
ATOM     14  C   UNL     1     112.030 126.300 136.083  0.00  0.00    +0.000 A 
ATOM     15  C   UNL     1     113.225 125.890 137.267  0.00  0.00    +0.000 A 
ATOM     16  C   UNL     1     111.729 125.347 136.056  0.00  0.00    +0.000 A 
ATOM     17  C   UNL     1     112.924 124.936 137.241  0.00  0.00    +0.000 A 
ATOM     18  C   UNL     1     112.778 126.571 136.688  0.00  0.00    +0.000 A 
ATOM     19  C   UNL     1     112.176 124.665 136.635  0.00  0.00    +0.000 A 
ATOM     20  O   UNL     1     111.875 123.712 136.608  0.00  0.00    +0.000 OA
ENDBRANCH   8  18
BRANCH   9  21
ATOM     21  O   UNL     1     112.185 127.766 138.179  0.00  0.00    +0.000 OA
BRANCH  21  26
ATOM     22  C   UNL     1     110.759 127.971 139.943  0.00  0.00    +0.000 C 
ATOM     23  C   UNL     1     109.887 128.403 139.720  0.00  0.00    +0.000 C 
ATOM     24  C   UNL     1     109.702 128.704 138.784  0.00  0.00    +0.000 C 
ATOM     25  C   UNL     1     110.391 128.572 138.071  0.00  0.00    +0.000 C 
ATOM     26  C   UNL     1     111.265 128.139 138.294  0.00  0.00    +0.000 C 
ATOM     27  O   UNL     1     108.966 128.777 139.835  0.00  0.00    +0.000 OA
ATOM     28  O   UNL     1     109.220 129.099 138.001  0.00  0.00    +0.000 OA
ATOM     29  O   UNL     1     110.830 128.593 137.173  0.00  0.00    +0.000 OA
ATOM     30  O   UNL     1     111.449 127.839 139.230  0.00  0.00    +0.000 OA
ENDBRANCH  21  26
ENDBRANCH   9  21
TORSDOF 3
ENDMDL
