MODEL 1
REMARK VINA RESULT:      -8.3      0.000      0.000
REMARK  Name = null
REMARK  3 active torsions:
REMARK  status: ('A' for Active; 'I' for Inactive)
REMARK    1  A    between atoms: O_2  and  C_3
REMARK    2  A    between atoms: C_8  and  C_9
REMARK    3  A    between atoms: C_16  and  O_20
REMARK                            x       y       z     vdW  Elec       q    Type
REMARK                         _______ _______ _______ _____ _____    ______ ____
ROOT
ATOM      1  C   UNL     1     111.448 125.247 136.066  0.00  0.00    +0.000 A 
ATOM      2  C   UNL     1     111.427 124.450 136.284  0.00  0.00    +0.000 A 
ATOM      3  C   UNL     1     112.099 124.093 136.603  0.00  0.00    +0.000 A 
ATOM      4  O   UNL     1     112.078 123.298 136.822  0.00  0.00    +0.000 OA
ATOM      5  C   UNL     1     112.791 124.530 136.704  0.00  0.00    +0.000 A 
ATOM      6  C   UNL     1     112.812 125.326 136.485  0.00  0.00    +0.000 A 
ATOM      7  O   UNL     1     112.141 125.683 136.166  0.00  0.00    +0.000 OA
ATOM      8  C   UNL     1     113.504 125.763 136.586  0.00  0.00    +0.000 A 
ATOM      9  C   UNL     1     114.175 125.405 136.905  0.00  0.00    +0.000 A 
ATOM     10  C   UNL     1     114.154 124.609 137.124  0.00  0.00    +0.000 A 
ATOM     11  C   UNL     1     113.462 124.172 137.023  0.00  0.00    +0.000 A 
ENDROOT
BRANCH   1  17
ATOM     12  C   UNL     1     110.234 125.978 136.242  0.00  0.00    +0.000 A 
ATOM     13  C   UNL     1     109.563 126.336 135.923  0.00  0.00    +0.000 A 
ATOM     14  C   UNL     1     109.434 126.320 135.108  0.00  0.00    +0.000 A 
ATOM     15  C   UNL     1     109.977 125.945 134.612  0.00  0.00    +0.000 A 
ATOM     16  C   UNL     1     110.649 125.587 134.932  0.00  0.00    +0.000 A 
ATOM     17  C   UNL     1     110.777 125.604 135.747  0.00  0.00    +0.000 A 
BRANCH  12  19
ATOM     18  C   UNL     1     109.825 126.379 137.552  0.00  0.00    +0.000 C 
ATOM     19  O   UNL     1     110.363 125.995 137.057  0.00  0.00    +0.000 OA
ENDBRANCH  12  19
ENDBRANCH   1  17
BRANCH   8  20
ATOM     20  O   UNL     1     113.525 126.558 136.368  0.00  0.00    +0.000 OA
ATOM     21  C   UNL     1     114.224 126.989 136.444  0.00  0.00    +0.000 C 
ENDBRANCH   8  20
TORSDOF 3
ENDMDL
MODEL 2
REMARK VINA RESULT:      -7.7      1.411      3.325
REMARK  Name = null
REMARK  3 active torsions:
REMARK  status: ('A' for Active; 'I' for Inactive)
REMARK    1  A    between atoms: O_2  and  C_3
REMARK    2  A    between atoms: C_8  and  C_9
REMARK    3  A    between atoms: C_16  and  O_20
REMARK                            x       y       z     vdW  Elec       q    Type
REMARK                         _______ _______ _______ _____ _____    ______ ____
ROOT
ATOM      1  C   UNL     1     112.517 125.601 136.464  0.00  0.00    +0.000 A 
ATOM      2  C   UNL     1     112.012 124.956 136.359  0.00  0.00    +0.000 A 
ATOM      3  C   UNL     1     111.315 125.044 135.925  0.00  0.00    +0.000 A 
ATOM      4  O   UNL     1     110.811 124.400 135.820  0.00  0.00    +0.000 OA
ATOM      5  C   UNL     1     111.123 125.776 135.597  0.00  0.00    +0.000 A 
ATOM      6  C   UNL     1     111.628 126.421 135.702  0.00  0.00    +0.000 A 
ATOM      7  O   UNL     1     112.324 126.333 136.135  0.00  0.00    +0.000 OA
ATOM      8  C   UNL     1     111.436 127.152 135.373  0.00  0.00    +0.000 A 
ATOM      9  C   UNL     1     110.740 127.240 134.940  0.00  0.00    +0.000 A 
ATOM     10  C   UNL     1     110.235 126.595 134.835  0.00  0.00    +0.000 A 
ATOM     11  C   UNL     1     110.427 125.864 135.163  0.00  0.00    +0.000 A 
ENDROOT
BRANCH   1  17
ATOM     12  C   UNL     1     113.224 125.696 137.701  0.00  0.00    +0.000 A 
ATOM     13  C   UNL     1     113.920 125.608 138.135  0.00  0.00    +0.000 A 
ATOM     14  C   UNL     1     114.606 125.337 137.764  0.00  0.00    +0.000 A 
ATOM     15  C   UNL     1     114.595 125.154 136.959  0.00  0.00    +0.000 A 
ATOM     16  C   UNL     1     113.898 125.242 136.526  0.00  0.00    +0.000 A 
ATOM     17  C   UNL     1     113.213 125.513 136.897  0.00  0.00    +0.000 A 
BRANCH  12  19
ATOM     18  C   UNL     1     112.558 126.181 138.869  0.00  0.00    +0.000 C 
ATOM     19  O   UNL     1     112.538 125.967 138.073  0.00  0.00    +0.000 OA
ENDBRANCH  12  19
ENDBRANCH   1  17
BRANCH   8  20
ATOM     20  O   UNL     1     111.940 127.797 135.478  0.00  0.00    +0.000 OA
ATOM     21  C   UNL     1     111.756 128.525 135.137  0.00  0.00    +0.000 C 
ENDBRANCH   8  20
TORSDOF 3
ENDMDL
MODEL 3
REMARK VINA RESULT:      -7.6     10.202     11.943
REMARK  Name = null
REMARK  3 active torsions:
REMARK  status: ('A' for Active; 'I' for Inactive)
REMARK    1  A    between atoms: O_2  and  C_3
REMARK    2  A    between atoms: C_8  and  C_9
REMARK    3  A    between atoms: C_16  and  O_20
REMARK                            x       y       z     vdW  Elec       q    Type
REMARK                         _______ _______ _______ _____ _____    ______ ____
ROOT
ATOM      1  C   UNL     1     102.349 130.860 141.546  0.00  0.00    +0.000 A 
ATOM      2  C   UNL     1     102.283 130.482 140.815  0.00  0.00    +0.000 A 
ATOM      3  C   UNL     1     102.723 129.801 140.662  0.00  0.00    +0.000 A 
ATOM      4  O   UNL     1     102.657 129.423 139.932  0.00  0.00    +0.000 OA
ATOM      5  C   UNL     1     103.228 129.497 141.239  0.00  0.00    +0.000 A 
ATOM      6  C   UNL     1     103.294 129.875 141.970  0.00  0.00    +0.000 A 
ATOM      7  O   UNL     1     102.854 130.556 142.123  0.00  0.00    +0.000 OA
ATOM      8  C   UNL     1     103.800 129.572 142.547  0.00  0.00    +0.000 A 
ATOM      9  C   UNL     1     104.239 128.891 142.394  0.00  0.00    +0.000 A 
ATOM     10  C   UNL     1     104.173 128.513 141.662  0.00  0.00    +0.000 A 
ATOM     11  C   UNL     1     103.668 128.816 141.086  0.00  0.00    +0.000 A 
ENDROOT
BRANCH   1  17
ATOM     12  C   UNL     1     102.221 132.282 141.519  0.00  0.00    +0.000 A 
ATOM     13  C   UNL     1     101.781 132.964 141.672  0.00  0.00    +0.000 A 
ATOM     14  C   UNL     1     101.029 132.902 142.006  0.00  0.00    +0.000 A 
ATOM     15  C   UNL     1     100.717 132.160 142.187  0.00  0.00    +0.000 A 
ATOM     16  C   UNL     1     101.157 131.479 142.033  0.00  0.00    +0.000 A 
ATOM     17  C   UNL     1     101.909 131.541 141.699  0.00  0.00    +0.000 A 
BRANCH  12  19
ATOM     18  C   UNL     1     103.291 133.087 141.016  0.00  0.00    +0.000 C 
ATOM     19  O   UNL     1     102.973 132.343 141.184  0.00  0.00    +0.000 OA
ENDBRANCH  12  19
ENDBRANCH   1  17
BRANCH   8  20
ATOM     20  O   UNL     1     103.865 129.950 143.277  0.00  0.00    +0.000 OA
ATOM     21  C   UNL     1     104.410 129.679 143.834  0.00  0.00    +0.000 C 
ENDBRANCH   8  20
TORSDOF 3
ENDMDL
MODEL 4
REMARK VINA RESULT:      -7.5      1.334      3.127
REMARK  Name = null
REMARK  3 active torsions:
REMARK  status: ('A' for Active; 'I' for Inactive)
REMARK    1  A    between atoms: O_2  and  C_3
REMARK    2  A    between atoms: C_8  and  C_9
REMARK    3  A    between atoms: C_16  and  O_20
REMARK                            x       y       z     vdW  Elec       q    Type
REMARK                         _______ _______ _______ _____ _____    ______ ____
ROOT
ATOM      1  C   UNL     1     113.436 126.671 136.630  0.00  0.00    +0.000 A 
ATOM      2  C   UNL     1     114.046 126.233 136.974  0.00  0.00    +0.000 A 
ATOM      3  C   UNL     1     113.964 125.417 137.070  0.00  0.00    +0.000 A 
ATOM      4  O   UNL     1     114.573 124.980 137.413  0.00  0.00    +0.000 OA
ATOM      5  C   UNL     1     113.273 125.039 136.824  0.00  0.00    +0.000 A 
ATOM      6  C   UNL     1     112.663 125.478 136.481  0.00  0.00    +0.000 A 
ATOM      7  O   UNL     1     112.745 126.293 136.384  0.00  0.00    +0.000 OA
ATOM      8  C   UNL     1     111.972 125.101 136.235  0.00  0.00    +0.000 A 
ATOM      9  C   UNL     1     111.891 124.286 136.331  0.00  0.00    +0.000 A 
ATOM     10  C   UNL     1     112.501 123.848 136.674  0.00  0.00    +0.000 A 
ATOM     11  C   UNL     1     113.191 124.225 136.920  0.00  0.00    +0.000 A 
ENDROOT
BRANCH   1  17
ATOM     12  C   UNL     1     113.248 128.000 137.119  0.00  0.00    +0.000 A 
ATOM     13  C   UNL     1     113.330 128.815 137.023  0.00  0.00    +0.000 A 
ATOM     14  C   UNL     1     113.682 129.116 136.341  0.00  0.00    +0.000 A 
ATOM     15  C   UNL     1     113.953 128.602 135.754  0.00  0.00    +0.000 A 
ATOM     16  C   UNL     1     113.870 127.787 135.852  0.00  0.00    +0.000 A 
ATOM     17  C   UNL     1     113.518 127.486 136.534  0.00  0.00    +0.000 A 
BRANCH  12  19
ATOM     18  C   UNL     1     112.617 128.213 138.384  0.00  0.00    +0.000 C 
ATOM     19  O   UNL     1     112.895 127.698 137.803  0.00  0.00    +0.000 OA
ENDBRANCH  12  19
ENDBRANCH   1  17
BRANCH   8  20
ATOM     20  O   UNL     1     111.363 125.539 135.892  0.00  0.00    +0.000 OA
ATOM     21  C   UNL     1     110.680 125.159 135.627  0.00  0.00    +0.000 C 
ENDBRANCH   8  20
TORSDOF 3
ENDMDL
MODEL 5
REMARK VINA RESULT:      -7.4     11.431     12.806
REMARK  Name = null
REMARK  3 active torsions:
REMARK  status: ('A' for Active; 'I' for Inactive)
REMARK    1  A    between atoms: O_2  and  C_3
REMARK    2  A    between atoms: C_8  and  C_9
REMARK    3  A    between atoms: C_16  and  O_20
REMARK                            x       y       z     vdW  Elec       q    Type
REMARK                         _______ _______ _______ _____ _____    ______ ____
ROOT
ATOM      1  C   UNL     1     105.145 124.685 146.812  0.00  0.00    +0.000 A 
ATOM      2  C   UNL     1     105.516 125.102 146.203  0.00  0.00    +0.000 A 
ATOM      3  C   UNL     1     106.299 125.346 146.288  0.00  0.00    +0.000 A 
ATOM      4  O   UNL     1     106.669 125.763 145.679  0.00  0.00    +0.000 OA
ATOM      5  C   UNL     1     106.714 125.174 146.980  0.00  0.00    +0.000 A 
ATOM      6  C   UNL     1     106.344 124.757 147.589  0.00  0.00    +0.000 A 
ATOM      7  O   UNL     1     105.560 124.513 147.505  0.00  0.00    +0.000 OA
ATOM      8  C   UNL     1     106.757 124.584 148.281  0.00  0.00    +0.000 A 
ATOM      9  C   UNL     1     107.540 124.828 148.365  0.00  0.00    +0.000 A 
ATOM     10  C   UNL     1     107.910 125.246 147.756  0.00  0.00    +0.000 A 
ATOM     11  C   UNL     1     107.497 125.418 147.064  0.00  0.00    +0.000 A 
ENDROOT
BRANCH   1  17
ATOM     12  C   UNL     1     103.753 124.889 147.055  0.00  0.00    +0.000 A 
ATOM     13  C   UNL     1     102.969 124.645 146.971  0.00  0.00    +0.000 A 
ATOM     14  C   UNL     1     102.796 123.952 146.559  0.00  0.00    +0.000 A 
ATOM     15  C   UNL     1     103.406 123.503 146.231  0.00  0.00    +0.000 A 
ATOM     16  C   UNL     1     104.189 123.747 146.316  0.00  0.00    +0.000 A 
ATOM     17  C   UNL     1     104.363 124.441 146.728  0.00  0.00    +0.000 A 
BRANCH  12  19
ATOM     18  C   UNL     1     103.323 126.003 147.842  0.00  0.00    +0.000 C 
ATOM     19  O   UNL     1     103.927 125.583 147.468  0.00  0.00    +0.000 OA
ENDBRANCH  12  19
ENDBRANCH   1  17
BRANCH   8  20
ATOM     20  O   UNL     1     106.388 124.167 148.890  0.00  0.00    +0.000 OA
ATOM     21  C   UNL     1     106.772 124.063 149.612  0.00  0.00    +0.000 C 
ENDBRANCH   8  20
TORSDOF 3
ENDMDL
MODEL 6
REMARK VINA RESULT:      -7.4      2.627      4.027
REMARK  Name = null
REMARK  3 active torsions:
REMARK  status: ('A' for Active; 'I' for Inactive)
REMARK    1  A    between atoms: O_2  and  C_3
REMARK    2  A    between atoms: C_8  and  C_9
REMARK    3  A    between atoms: C_16  and  O_20
REMARK                            x       y       z     vdW  Elec       q    Type
REMARK                         _______ _______ _______ _____ _____    ______ ____
ROOT
ATOM      1  C   UNL     1     113.316 125.966 138.254  0.00  0.00    +0.000 A 
ATOM      2  C   UNL     1     112.499 125.848 138.216  0.00  0.00    +0.000 A 
ATOM      3  C   UNL     1     112.020 126.075 138.849  0.00  0.00    +0.000 A 
ATOM      4  O   UNL     1     111.204 125.957 138.811  0.00  0.00    +0.000 OA
ATOM      5  C   UNL     1     112.356 126.419 139.520  0.00  0.00    +0.000 A 
ATOM      6  C   UNL     1     113.172 126.537 139.558  0.00  0.00    +0.000 A 
ATOM      7  O   UNL     1     113.651 126.310 138.925  0.00  0.00    +0.000 OA
ATOM      8  C   UNL     1     113.508 126.880 140.228  0.00  0.00    +0.000 A 
ATOM      9  C   UNL     1     113.029 127.107 140.859  0.00  0.00    +0.000 A 
ATOM     10  C   UNL     1     112.213 126.989 140.821  0.00  0.00    +0.000 A 
ATOM     11  C   UNL     1     111.877 126.645 140.151  0.00  0.00    +0.000 A 
ENDROOT
BRANCH   1  17
ATOM     12  C   UNL     1     113.910 126.253 136.988  0.00  0.00    +0.000 A 
ATOM     13  C   UNL     1     114.389 126.027 136.355  0.00  0.00    +0.000 A 
ATOM     14  C   UNL     1     114.753 125.287 136.358  0.00  0.00    +0.000 A 
ATOM     15  C   UNL     1     114.638 124.772 136.994  0.00  0.00    +0.000 A 
ATOM     16  C   UNL     1     114.159 125.000 137.626  0.00  0.00    +0.000 A 
ATOM     17  C   UNL     1     113.795 125.740 137.623  0.00  0.00    +0.000 A 
BRANCH  12  19
ATOM     18  C   UNL     1     113.665 127.509 136.351  0.00  0.00    +0.000 C 
ATOM     19  O   UNL     1     113.545 126.994 136.985  0.00  0.00    +0.000 OA
ENDBRANCH  12  19
ENDBRANCH   1  17
BRANCH   8  20
ATOM     20  O   UNL     1     114.324 126.998 140.266  0.00  0.00    +0.000 OA
ATOM     21  C   UNL     1     114.667 127.294 140.955  0.00  0.00    +0.000 C 
ENDBRANCH   8  20
TORSDOF 3
ENDMDL
MODEL 7
REMARK VINA RESULT:      -7.3     11.578     13.485
REMARK  Name = null
REMARK  3 active torsions:
REMARK  status: ('A' for Active; 'I' for Inactive)
REMARK    1  A    between atoms: O_2  and  C_3
REMARK    2  A    between atoms: C_8  and  C_9
REMARK    3  A    between atoms: C_16  and  O_20
REMARK                            x       y       z     vdW  Elec       q    Type
REMARK                         _______ _______ _______ _____ _____    ______ ____
ROOT
ATOM      1  C   UNL     1     105.343 124.930 147.775  0.00  0.00    +0.000 A 
ATOM      2  C   UNL     1     104.850 125.410 148.232  0.00  0.00    +0.000 A 
ATOM      3  C   UNL     1     104.032 125.376 148.129  0.00  0.00    +0.000 A 
ATOM      4  O   UNL     1     103.539 125.855 148.585  0.00  0.00    +0.000 OA
ATOM      5  C   UNL     1     103.706 124.862 147.571  0.00  0.00    +0.000 A 
ATOM      6  C   UNL     1     104.199 124.383 147.114  0.00  0.00    +0.000 A 
ATOM      7  O   UNL     1     105.017 124.417 147.217  0.00  0.00    +0.000 OA
ATOM      8  C   UNL     1     103.874 123.870 146.557  0.00  0.00    +0.000 A 
ATOM      9  C   UNL     1     103.057 123.836 146.455  0.00  0.00    +0.000 A 
ATOM     10  C   UNL     1     102.563 124.316 146.912  0.00  0.00    +0.000 A 
ATOM     11  C   UNL     1     102.889 124.828 147.469  0.00  0.00    +0.000 A 
ENDROOT
BRANCH   1  17
ATOM     12  C   UNL     1     106.616 125.455 147.395  0.00  0.00    +0.000 A 
ATOM     13  C   UNL     1     107.434 125.489 147.497  0.00  0.00    +0.000 A 
ATOM     14  C   UNL     1     107.797 125.032 148.081  0.00  0.00    +0.000 A 
ATOM     15  C   UNL     1     107.341 124.541 148.563  0.00  0.00    +0.000 A 
ATOM     16  C   UNL     1     106.523 124.508 148.460  0.00  0.00    +0.000 A 
ATOM     17  C   UNL     1     106.161 124.964 147.877  0.00  0.00    +0.000 A 
BRANCH  12  19
ATOM     18  C   UNL     1     106.709 126.408 146.334  0.00  0.00    +0.000 C 
ATOM     19  O   UNL     1     106.254 125.912 146.811  0.00  0.00    +0.000 OA
ENDBRANCH  12  19
ENDBRANCH   1  17
BRANCH   8  20
ATOM     20  O   UNL     1     104.367 123.391 146.101  0.00  0.00    +0.000 OA
ATOM     21  C   UNL     1     104.053 122.948 145.480  0.00  0.00    +0.000 C 
ENDBRANCH   8  20
TORSDOF 3
ENDMDL
MODEL 8
REMARK VINA RESULT:      -7.3     10.416     12.253
REMARK  Name = null
REMARK  3 active torsions:
REMARK  status: ('A' for Active; 'I' for Inactive)
REMARK    1  A    between atoms: O_2  and  C_3
REMARK    2  A    between atoms: C_8  and  C_9
REMARK    3  A    between atoms: C_16  and  O_20
REMARK                            x       y       z     vdW  Elec       q    Type
REMARK                         _______ _______ _______ _____ _____    ______ ____
ROOT
ATOM      1  C   UNL     1     106.960 125.753 147.232  0.00  0.00    +0.000 A 
ATOM      2  C   UNL     1     107.025 126.576 147.259  0.00  0.00    +0.000 A 
ATOM      3  C   UNL     1     106.803 127.028 146.605  0.00  0.00    +0.000 A 
ATOM      4  O   UNL     1     106.868 127.850 146.632  0.00  0.00    +0.000 OA
ATOM      5  C   UNL     1     106.515 126.659 145.925  0.00  0.00    +0.000 A 
ATOM      6  C   UNL     1     106.450 125.836 145.899  0.00  0.00    +0.000 A 
ATOM      7  O   UNL     1     106.672 125.384 146.552  0.00  0.00    +0.000 OA
ATOM      8  C   UNL     1     106.163 125.467 145.220  0.00  0.00    +0.000 A 
ATOM      9  C   UNL     1     105.941 125.919 144.567  0.00  0.00    +0.000 A 
ATOM     10  C   UNL     1     106.006 126.742 144.593  0.00  0.00    +0.000 A 
ATOM     11  C   UNL     1     106.293 127.111 145.273  0.00  0.00    +0.000 A 
ENDROOT
BRANCH   1  17
ATOM     12  C   UNL     1     106.617 125.077 148.443  0.00  0.00    +0.000 A 
ATOM     13  C   UNL     1     106.839 124.625 149.097  0.00  0.00    +0.000 A 
ATOM     14  C   UNL     1     107.626 124.396 149.191  0.00  0.00    +0.000 A 
ATOM     15  C   UNL     1     108.191 124.620 148.633  0.00  0.00    +0.000 A 
ATOM     16  C   UNL     1     107.968 125.072 147.980  0.00  0.00    +0.000 A 
ATOM     17  C   UNL     1     107.182 125.301 147.885  0.00  0.00    +0.000 A 
BRANCH  12  19
ATOM     18  C   UNL     1     105.262 125.069 148.899  0.00  0.00    +0.000 C 
ATOM     19  O   UNL     1     105.830 125.306 148.348  0.00  0.00    +0.000 OA
ENDBRANCH  12  19
ENDBRANCH   1  17
BRANCH   8  20
ATOM     20  O   UNL     1     106.098 124.645 145.193  0.00  0.00    +0.000 OA
ATOM     21  C   UNL     1     105.617 124.287 144.627  0.00  0.00    +0.000 C 
ENDBRANCH   8  20
TORSDOF 3
ENDMDL
MODEL 9
REMARK VINA RESULT:      -7.3     10.955     12.556
REMARK  Name = null
REMARK  3 active torsions:
REMARK  status: ('A' for Active; 'I' for Inactive)
REMARK    1  A    between atoms: O_2  and  C_3
REMARK    2  A    between atoms: C_8  and  C_9
REMARK    3  A    between atoms: C_16  and  O_20
REMARK                            x       y       z     vdW  Elec       q    Type
REMARK                         _______ _______ _______ _____ _____    ______ ____
ROOT
ATOM      1  C   UNL     1     106.693 125.817 147.126  0.00  0.00    +0.000 A 
ATOM      2  C   UNL     1     107.510 125.694 147.105  0.00  0.00    +0.000 A 
ATOM      3  C   UNL     1     107.876 125.259 147.702  0.00  0.00    +0.000 A 
ATOM      4  O   UNL     1     108.692 125.135 147.681  0.00  0.00    +0.000 OA
ATOM      5  C   UNL     1     107.429 124.947 148.322  0.00  0.00    +0.000 A 
ATOM      6  C   UNL     1     106.612 125.070 148.343  0.00  0.00    +0.000 A 
ATOM      7  O   UNL     1     106.246 125.505 147.746  0.00  0.00    +0.000 OA
ATOM      8  C   UNL     1     106.165 124.759 148.962  0.00  0.00    +0.000 A 
ATOM      9  C   UNL     1     106.532 124.325 149.558  0.00  0.00    +0.000 A 
ATOM     10  C   UNL     1     107.348 124.201 149.537  0.00  0.00    +0.000 A 
ATOM     11  C   UNL     1     107.796 124.512 148.918  0.00  0.00    +0.000 A 
ENDROOT
BRANCH   1  17
ATOM     12  C   UNL     1     106.042 125.870 145.857  0.00  0.00    +0.000 A 
ATOM     13  C   UNL     1     105.675 126.305 145.259  0.00  0.00    +0.000 A 
ATOM     14  C   UNL     1     105.592 127.122 145.335  0.00  0.00    +0.000 A 
ATOM     15  C   UNL     1     105.876 127.505 146.010  0.00  0.00    +0.000 A 
ATOM     16  C   UNL     1     106.243 127.069 146.606  0.00  0.00    +0.000 A 
ATOM     17  C   UNL     1     106.326 126.252 146.530  0.00  0.00    +0.000 A 
BRANCH  12  19
ATOM     18  C   UNL     1     105.793 124.663 145.133  0.00  0.00    +0.000 C 
ATOM     19  O   UNL     1     106.125 125.052 145.780  0.00  0.00    +0.000 OA
ENDBRANCH  12  19
ENDBRANCH   1  17
BRANCH   8  20
ATOM     20  O   UNL     1     105.349 124.883 148.983  0.00  0.00    +0.000 OA
ATOM     21  C   UNL     1     104.903 124.586 149.611  0.00  0.00    +0.000 C 
ENDBRANCH   8  20
TORSDOF 3
ENDMDL
MODEL 10
REMARK VINA RESULT:      -7.3      0.847      3.669
REMARK  Name = null
REMARK  3 active torsions:
REMARK  status: ('A' for Active; 'I' for Inactive)
REMARK    1  A    between atoms: O_2  and  C_3
REMARK    2  A    between atoms: C_8  and  C_9
REMARK    3  A    between atoms: C_16  and  O_20
REMARK                            x       y       z     vdW  Elec       q    Type
REMARK                         _______ _______ _______ _____ _____    ______ ____
ROOT
ATOM      1  C   UNL     1     111.409 125.208 136.378  0.00  0.00    +0.000 A 
ATOM      2  C   UNL     1     111.162 125.257 135.591  0.00  0.00    +0.000 A 
ATOM      3  C   UNL     1     110.487 125.690 135.398  0.00  0.00    +0.000 A 
ATOM      4  O   UNL     1     110.240 125.740 134.612  0.00  0.00    +0.000 OA
ATOM      5  C   UNL     1     110.058 126.074 135.989  0.00  0.00    +0.000 A 
ATOM      6  C   UNL     1     110.305 126.025 136.776  0.00  0.00    +0.000 A 
ATOM      7  O   UNL     1     110.980 125.592 136.969  0.00  0.00    +0.000 OA
ATOM      8  C   UNL     1     109.877 126.409 137.367  0.00  0.00    +0.000 A 
ATOM      9  C   UNL     1     109.203 126.841 137.173  0.00  0.00    +0.000 A 
ATOM     10  C   UNL     1     108.956 126.891 136.386  0.00  0.00    +0.000 A 
ATOM     11  C   UNL     1     109.384 126.507 135.795  0.00  0.00    +0.000 A 
ENDROOT
BRANCH   1  17
ATOM     12  C   UNL     1     112.817 125.149 136.611  0.00  0.00    +0.000 A 
ATOM     13  C   UNL     1     113.492 124.717 136.805  0.00  0.00    +0.000 A 
ATOM     14  C   UNL     1     113.433 123.908 136.959  0.00  0.00    +0.000 A 
ATOM     15  C   UNL     1     112.699 123.533 136.919  0.00  0.00    +0.000 A 
ATOM     16  C   UNL     1     112.024 123.967 136.725  0.00  0.00    +0.000 A 
ATOM     17  C   UNL     1     112.083 124.775 136.571  0.00  0.00    +0.000 A 
BRANCH  12  19
ATOM     18  C   UNL     1     113.602 126.342 136.537  0.00  0.00    +0.000 C 
ATOM     19  O   UNL     1     112.876 125.959 136.457  0.00  0.00    +0.000 OA
ENDBRANCH  12  19
ENDBRANCH   1  17
BRANCH   8  20
ATOM     20  O   UNL     1     110.124 126.359 138.152  0.00  0.00    +0.000 OA
ATOM     21  C   UNL     1     109.664 126.690 138.751  0.00  0.00    +0.000 C 
ENDBRANCH   8  20
TORSDOF 3
ENDMDL
