MODEL 1
REMARK VINA RESULT:      -9.5      0.000      0.000
REMARK  Name = 44259924
REMARK  8 active torsions:
REMARK  status: ('A' for Active; 'I' for Inactive)
REMARK    1  A    between atoms: O_1  and  C_18
REMARK    2  A    between atoms: O_1  and  C_21
REMARK    3  A    between atoms: O_4  and  C_23
REMARK    4  A    between atoms: O_4  and  C_30
REMARK    5  A    between atoms: O_14  and  C_37
REMARK    6  A    between atoms: C_24  and  C_28
REMARK    7  A    between atoms: C_27  and  C_29
REMARK    8  A    between atoms: C_31  and  C_35
REMARK                            x       y       z     vdW  Elec       q    Type
REMARK                         _______ _______ _______ _____ _____    ______ ____
ROOT
ATOM      1  O   UNL     1     111.269 127.817 136.937  0.00  0.00    +0.000 OA
ENDROOT
BRANCH   1   6
ATOM      2  O   UNL     1     112.838 126.431 136.320  0.00  0.00    +0.000 OA
ATOM      3  O   UNL     1     110.708 126.405 137.582  0.00  0.00    +0.000 OA
ATOM      4  O   UNL     1     110.834 124.988 137.823  0.00  0.00    +0.000 OA
ATOM      5  O   UNL     1     113.159 123.571 136.768  0.00  0.00    +0.000 OA
ATOM      6  C   UNL     1     111.698 127.119 136.839  0.00  0.00    +0.000 A 
ATOM      7  C   UNL     1     112.408 127.128 136.418  0.00  0.00    +0.000 A 
ATOM      8  C   UNL     1     111.418 126.414 137.161  0.00  0.00    +0.000 A 
ATOM      9  C   UNL     1     111.847 125.717 137.063  0.00  0.00    +0.000 A 
ATOM     10  C   UNL     1     112.557 125.724 136.643  0.00  0.00    +0.000 A 
ATOM     11  C   UNL     1     111.545 124.987 137.404  0.00  0.00    +0.000 A 
ATOM     12  C   UNL     1     113.014 125.005 136.534  0.00  0.00    +0.000 A 
ATOM     13  C   UNL     1     111.988 124.258 137.305  0.00  0.00    +0.000 A 
ATOM     14  C   UNL     1     112.727 124.267 136.868  0.00  0.00    +0.000 A 
BRANCH   7  16
ATOM     15  O   UNL     1     113.530 129.951 135.127  0.00  0.00    +0.000 OA
ATOM     16  C   UNL     1     112.688 127.833 136.096  0.00  0.00    +0.000 A 
ATOM     17  C   UNL     1     112.382 128.111 135.382  0.00  0.00    +0.000 A 
ATOM     18  C   UNL     1     113.276 128.262 136.487  0.00  0.00    +0.000 A 
ATOM     19  C   UNL     1     112.662 128.817 135.059  0.00  0.00    +0.000 A 
ATOM     20  C   UNL     1     113.556 128.967 136.164  0.00  0.00    +0.000 A 
ATOM     21  C   UNL     1     113.249 129.244 135.450  0.00  0.00    +0.000 A 
ENDBRANCH   7  16
BRANCH  12  22
ATOM     22  O   UNL     1     113.723 125.022 136.112  0.00  0.00    +0.000 OA
ATOM     23  C   UNL     1     114.422 124.771 136.471  0.00  0.00    +0.000 C 
ENDBRANCH  12  22
ENDBRANCH   1   6
BRANCH   1  30
ATOM     24  O   UNL     1     111.604 128.025 138.310  0.00  0.00    +0.000 OA
ATOM     25  O   UNL     1     109.333 128.914 138.730  0.00  0.00    +0.000 OA
ATOM     26  O   UNL     1     110.425 128.825 139.963  0.00  0.00    +0.000 OA
ATOM     27  C   UNL     1     110.300 128.365 137.833  0.00  0.00    +0.000 C 
ATOM     28  C   UNL     1     110.090 128.617 138.590  0.00  0.00    +0.000 C 
ATOM     29  C   UNL     1     110.636 128.573 139.207  0.00  0.00    +0.000 C 
ATOM     30  C   UNL     1     111.057 128.069 137.693  0.00  0.00    +0.000 C 
ATOM     31  C   UNL     1     111.393 128.277 139.066  0.00  0.00    +0.000 C 
BRANCH  31  33
ATOM     32  O   UNL     1     112.656 128.641 139.628  0.00  0.00    +0.000 OA
ATOM     33  C   UNL     1     111.940 128.233 139.682  0.00  0.00    +0.000 C 
ENDBRANCH  31  33
BRANCH  27  34
ATOM     34  O   UNL     1     109.754 128.409 137.217  0.00  0.00    +0.000 OA
BRANCH  34  39
ATOM     35  O   UNL     1     110.012 129.809 137.085  0.00  0.00    +0.000 OA
ATOM     36  O   UNL     1     108.570 128.520 136.073  0.00  0.00    +0.000 OA
ATOM     37  O   UNL     1     108.236 129.975 135.370  0.00  0.00    +0.000 OA
ATOM     38  O   UNL     1     109.086 131.319 135.811  0.00  0.00    +0.000 OA
ATOM     39  C   UNL     1     109.587 129.137 136.865  0.00  0.00    +0.000 C 
ATOM     40  C   UNL     1     108.995 129.192 136.293  0.00  0.00    +0.000 C 
ATOM     41  C   UNL     1     108.827 129.920 135.941  0.00  0.00    +0.000 C 
ATOM     42  C   UNL     1     109.253 130.591 136.162  0.00  0.00    +0.000 C 
ATOM     43  C   UNL     1     109.844 130.536 136.734  0.00  0.00    +0.000 C 
BRANCH  43  45
ATOM     44  O   UNL     1     111.059 131.289 136.731  0.00  0.00    +0.000 OA
ATOM     45  C   UNL     1     110.270 131.208 136.954  0.00  0.00    +0.000 C 
ENDBRANCH  43  45
ENDBRANCH  34  39
ENDBRANCH  27  34
ENDBRANCH   1  30
TORSDOF 8
ENDMDL
MODEL 2
REMARK VINA RESULT:      -9.4      1.675      3.098
REMARK  Name = 44259924
REMARK  8 active torsions:
REMARK  status: ('A' for Active; 'I' for Inactive)
REMARK    1  A    between atoms: O_1  and  C_18
REMARK    2  A    between atoms: O_1  and  C_21
REMARK    3  A    between atoms: O_4  and  C_23
REMARK    4  A    between atoms: O_4  and  C_30
REMARK    5  A    between atoms: O_14  and  C_37
REMARK    6  A    between atoms: C_24  and  C_28
REMARK    7  A    between atoms: C_27  and  C_29
REMARK    8  A    between atoms: C_31  and  C_35
REMARK                            x       y       z     vdW  Elec       q    Type
REMARK                         _______ _______ _______ _____ _____    ______ ____
ROOT
ATOM      1  O   UNL     1     111.250 129.266 136.948  0.00  0.00    +0.000 OA
ENDROOT
BRANCH   1   6
ATOM      2  O   UNL     1     110.757 127.552 135.690  0.00  0.00    +0.000 OA
ATOM      3  O   UNL     1     112.187 128.095 137.636  0.00  0.00    +0.000 OA
ATOM      4  O   UNL     1     112.669 126.736 137.698  0.00  0.00    +0.000 OA
ATOM      5  O   UNL     1     111.684 124.791 135.755  0.00  0.00    +0.000 OA
ATOM      6  C   UNL     1     111.242 128.499 136.643  0.00  0.00    +0.000 A 
ATOM      7  C   UNL     1     110.765 128.318 135.995  0.00  0.00    +0.000 A 
ATOM      8  C   UNL     1     111.710 127.914 136.987  0.00  0.00    +0.000 A 
ATOM      9  C   UNL     1     111.702 127.147 136.683  0.00  0.00    +0.000 A 
ATOM     10  C   UNL     1     111.226 126.965 136.034  0.00  0.00    +0.000 A 
ATOM     11  C   UNL     1     112.195 126.545 137.050  0.00  0.00    +0.000 A 
ATOM     12  C   UNL     1     111.208 126.171 135.708  0.00  0.00    +0.000 A 
ATOM     13  C   UNL     1     112.190 125.745 136.737  0.00  0.00    +0.000 A 
ATOM     14  C   UNL     1     111.694 125.557 136.062  0.00  0.00    +0.000 A 
BRANCH   7  16
ATOM     15  O   UNL     1     108.891 130.660 134.618  0.00  0.00    +0.000 OA
ATOM     16  C   UNL     1     110.297 128.903 135.651  0.00  0.00    +0.000 A 
ATOM     17  C   UNL     1     109.562 129.088 135.977  0.00  0.00    +0.000 A 
ATOM     18  C   UNL     1     110.563 129.304 134.980  0.00  0.00    +0.000 A 
ATOM     19  C   UNL     1     109.093 129.674 135.633  0.00  0.00    +0.000 A 
ATOM     20  C   UNL     1     110.095 129.889 134.636  0.00  0.00    +0.000 A 
ATOM     21  C   UNL     1     109.360 130.074 134.963  0.00  0.00    +0.000 A 
ENDBRANCH   7  16
BRANCH  12  22
ATOM     22  O   UNL     1     110.729 125.999 135.059  0.00  0.00    +0.000 OA
ATOM     23  C   UNL     1     110.185 125.380 135.102  0.00  0.00    +0.000 C 
ENDBRANCH  12  22
ENDBRANCH   1   6
BRANCH   1  30
ATOM     24  O   UNL     1     112.551 129.602 136.461  0.00  0.00    +0.000 OA
ATOM     25  O   UNL     1     112.943 130.994 138.469  0.00  0.00    +0.000 OA
ATOM     26  O   UNL     1     114.112 130.866 137.312  0.00  0.00    +0.000 OA
ATOM     27  C   UNL     1     112.097 130.130 137.709  0.00  0.00    +0.000 C 
ATOM     28  C   UNL     1     112.813 130.530 137.799  0.00  0.00    +0.000 C 
ATOM     29  C   UNL     1     113.397 130.467 137.222  0.00  0.00    +0.000 C 
ATOM     30  C   UNL     1     111.966 129.666 137.039  0.00  0.00    +0.000 C 
ATOM     31  C   UNL     1     113.266 130.002 136.552  0.00  0.00    +0.000 C 
BRANCH  31  33
ATOM     32  O   UNL     1     113.681 130.143 135.192  0.00  0.00    +0.000 OA
ATOM     33  C   UNL     1     113.851 129.938 135.973  0.00  0.00    +0.000 C 
ENDBRANCH  31  33
BRANCH  27  34
ATOM     34  O   UNL     1     111.512 130.194 138.287  0.00  0.00    +0.000 OA
BRANCH  34  39
ATOM     35  O   UNL     1     111.148 131.478 137.777  0.00  0.00    +0.000 OA
ATOM     36  O   UNL     1     110.344 130.323 139.445  0.00  0.00    +0.000 OA
ATOM     37  O   UNL     1     109.397 131.672 139.515  0.00  0.00    +0.000 OA
ATOM     38  O   UNL     1     109.617 132.892 138.426  0.00  0.00    +0.000 OA
ATOM     39  C   UNL     1     111.038 130.868 138.321  0.00  0.00    +0.000 C 
ATOM     40  C   UNL     1     110.454 130.933 138.901  0.00  0.00    +0.000 C 
ATOM     41  C   UNL     1     109.980 131.608 138.936  0.00  0.00    +0.000 C 
ATOM     42  C   UNL     1     110.091 132.217 138.391  0.00  0.00    +0.000 C 
ATOM     43  C   UNL     1     110.674 132.153 137.812  0.00  0.00    +0.000 C 
BRANCH  43  45
ATOM     44  O   UNL     1     110.507 132.682 136.495  0.00  0.00    +0.000 OA
ATOM     45  C   UNL     1     110.785 132.763 137.267  0.00  0.00    +0.000 C 
ENDBRANCH  43  45
ENDBRANCH  34  39
ENDBRANCH  27  34
ENDBRANCH   1  30
TORSDOF 8
ENDMDL
MODEL 3
REMARK VINA RESULT:      -9.3      1.838      3.955
REMARK  Name = 44259924
REMARK  8 active torsions:
REMARK  status: ('A' for Active; 'I' for Inactive)
REMARK    1  A    between atoms: O_1  and  C_18
REMARK    2  A    between atoms: O_1  and  C_21
REMARK    3  A    between atoms: O_4  and  C_23
REMARK    4  A    between atoms: O_4  and  C_30
REMARK    5  A    between atoms: O_14  and  C_37
REMARK    6  A    between atoms: C_24  and  C_28
REMARK    7  A    between atoms: C_27  and  C_29
REMARK    8  A    between atoms: C_31  and  C_35
REMARK                            x       y       z     vdW  Elec       q    Type
REMARK                         _______ _______ _______ _____ _____    ______ ____
ROOT
ATOM      1  O   UNL     1     112.061 127.260 137.782  0.00  0.00    +0.000 OA
ENDROOT
BRANCH   1   6
ATOM      2  O   UNL     1     113.318 128.912 138.455  0.00  0.00    +0.000 OA
ATOM      3  O   UNL     1     112.366 126.804 139.338  0.00  0.00    +0.000 OA
ATOM      4  O   UNL     1     112.984 127.030 140.623  0.00  0.00    +0.000 OA
ATOM      5  O   UNL     1     114.594 129.432 141.021  0.00  0.00    +0.000 OA
ATOM      6  C   UNL     1     112.531 127.735 138.266  0.00  0.00    +0.000 A 
ATOM      7  C   UNL     1     112.848 128.437 137.971  0.00  0.00    +0.000 A 
ATOM      8  C   UNL     1     112.683 127.507 139.043  0.00  0.00    +0.000 A 
ATOM      9  C   UNL     1     113.153 127.982 139.528  0.00  0.00    +0.000 A 
ATOM     10  C   UNL     1     113.471 128.684 139.234  0.00  0.00    +0.000 A 
ATOM     11  C   UNL     1     113.305 127.734 140.337  0.00  0.00    +0.000 A 
ATOM     12  C   UNL     1     113.962 129.188 139.728  0.00  0.00    +0.000 A 
ATOM     13  C   UNL     1     113.794 128.224 140.845  0.00  0.00    +0.000 A 
ATOM     14  C   UNL     1     114.124 128.956 140.539  0.00  0.00    +0.000 A 
BRANCH   7  16
ATOM     15  O   UNL     1     112.237 129.349 134.859  0.00  0.00    +0.000 OA
ATOM     16  C   UNL     1     112.696 128.665 137.194  0.00  0.00    +0.000 A 
ATOM     17  C   UNL     1     111.997 129.063 137.010  0.00  0.00    +0.000 A 
ATOM     18  C   UNL     1     113.241 128.495 136.599  0.00  0.00    +0.000 A 
ATOM     19  C   UNL     1     111.844 129.292 136.231  0.00  0.00    +0.000 A 
ATOM     20  C   UNL     1     113.089 128.722 135.821  0.00  0.00    +0.000 A 
ATOM     21  C   UNL     1     112.390 129.121 135.638  0.00  0.00    +0.000 A 
ENDBRANCH   7  16
BRANCH  12  22
ATOM     22  O   UNL     1     114.275 129.888 139.425  0.00  0.00    +0.000 OA
ATOM     23  C   UNL     1     114.202 130.590 139.853  0.00  0.00    +0.000 C 
ENDBRANCH  12  22
ENDBRANCH   1   6
BRANCH   1  30
ATOM     24  O   UNL     1     113.039 126.241 137.562  0.00  0.00    +0.000 OA
ATOM     25  O   UNL     1     111.254 124.527 137.566  0.00  0.00    +0.000 OA
ATOM     26  O   UNL     1     112.826 124.081 137.345  0.00  0.00    +0.000 OA
ATOM     27  C   UNL     1     111.657 125.893 137.674  0.00  0.00    +0.000 C 
ATOM     28  C   UNL     1     111.849 125.098 137.564  0.00  0.00    +0.000 C 
ATOM     29  C   UNL     1     112.635 124.875 137.454  0.00  0.00    +0.000 C 
ATOM     30  C   UNL     1     112.252 126.465 137.673  0.00  0.00    +0.000 C 
ATOM     31  C   UNL     1     113.230 125.446 137.452  0.00  0.00    +0.000 C 
BRANCH  31  33
ATOM     32  O   UNL     1     114.439 125.512 136.694  0.00  0.00    +0.000 OA
ATOM     33  C   UNL     1     114.016 125.224 137.342  0.00  0.00    +0.000 C 
ENDBRANCH  31  33
BRANCH  27  34
ATOM     34  O   UNL     1     110.871 126.117 137.785  0.00  0.00    +0.000 OA
BRANCH  34  39
ATOM     35  O   UNL     1     110.630 125.988 136.382  0.00  0.00    +0.000 OA
ATOM     36  O   UNL     1     109.364 126.758 137.984  0.00  0.00    +0.000 OA
ATOM     37  O   UNL     1     108.370 126.950 136.681  0.00  0.00    +0.000 OA
ATOM     38  O   UNL     1     108.883 126.500 135.179  0.00  0.00    +0.000 OA
ATOM     39  C   UNL     1     110.374 126.213 137.133  0.00  0.00    +0.000 C 
ATOM     40  C   UNL     1     109.620 126.534 137.233  0.00  0.00    +0.000 C 
ATOM     41  C   UNL     1     109.123 126.629 136.581  0.00  0.00    +0.000 C 
ATOM     42  C   UNL     1     109.380 126.404 135.830  0.00  0.00    +0.000 C 
ATOM     43  C   UNL     1     110.133 126.084 135.730  0.00  0.00    +0.000 C 
BRANCH  43  45
ATOM     44  O   UNL     1     111.009 126.264 134.616  0.00  0.00    +0.000 OA
ATOM     45  C   UNL     1     110.390 125.858 134.979  0.00  0.00    +0.000 C 
ENDBRANCH  43  45
ENDBRANCH  34  39
ENDBRANCH  27  34
ENDBRANCH   1  30
TORSDOF 8
ENDMDL
MODEL 4
REMARK VINA RESULT:      -9.2      1.019      2.208
REMARK  Name = 44259924
REMARK  8 active torsions:
REMARK  status: ('A' for Active; 'I' for Inactive)
REMARK    1  A    between atoms: O_1  and  C_18
REMARK    2  A    between atoms: O_1  and  C_21
REMARK    3  A    between atoms: O_4  and  C_23
REMARK    4  A    between atoms: O_4  and  C_30
REMARK    5  A    between atoms: O_14  and  C_37
REMARK    6  A    between atoms: C_24  and  C_28
REMARK    7  A    between atoms: C_27  and  C_29
REMARK    8  A    between atoms: C_31  and  C_35
REMARK                            x       y       z     vdW  Elec       q    Type
REMARK                         _______ _______ _______ _____ _____    ______ ____
ROOT
ATOM      1  O   UNL     1     111.639 128.124 137.287  0.00  0.00    +0.000 OA
ENDROOT
BRANCH   1   6
ATOM      2  O   UNL     1     113.202 126.762 136.603  0.00  0.00    +0.000 OA
ATOM      3  O   UNL     1     111.021 126.672 137.770  0.00  0.00    +0.000 OA
ATOM      4  O   UNL     1     111.106 125.236 137.878  0.00  0.00    +0.000 OA
ATOM      5  O   UNL     1     113.441 123.866 136.785  0.00  0.00    +0.000 OA
ATOM      6  C   UNL     1     112.057 127.428 137.139  0.00  0.00    +0.000 A 
ATOM      7  C   UNL     1     112.784 127.458 136.750  0.00  0.00    +0.000 A 
ATOM      8  C   UNL     1     111.748 126.703 137.381  0.00  0.00    +0.000 A 
ATOM      9  C   UNL     1     112.166 126.007 137.233  0.00  0.00    +0.000 A 
ATOM     10  C   UNL     1     112.893 126.036 136.844  0.00  0.00    +0.000 A 
ATOM     11  C   UNL     1     111.834 125.256 137.490  0.00  0.00    +0.000 A 
ATOM     12  C   UNL     1     113.338 125.319 136.685  0.00  0.00    +0.000 A 
ATOM     13  C   UNL     1     112.264 124.528 137.339  0.00  0.00    +0.000 A 
ATOM     14  C   UNL     1     113.021 124.560 136.934  0.00  0.00    +0.000 A 
BRANCH   7  16
ATOM     15  O   UNL     1     114.021 130.361 135.784  0.00  0.00    +0.000 OA
ATOM     16  C   UNL     1     113.093 128.183 136.509  0.00  0.00    +0.000 A 
ATOM     17  C   UNL     1     113.019 128.422 135.723  0.00  0.00    +0.000 A 
ATOM     18  C   UNL     1     113.477 128.671 137.053  0.00  0.00    +0.000 A 
ATOM     19  C   UNL     1     113.329 129.148 135.481  0.00  0.00    +0.000 A 
ATOM     20  C   UNL     1     113.786 129.396 136.812  0.00  0.00    +0.000 A 
ATOM     21  C   UNL     1     113.712 129.635 136.026  0.00  0.00    +0.000 A 
ENDBRANCH   7  16
BRANCH  12  22
ATOM     22  O   UNL     1     114.064 125.358 136.295  0.00  0.00    +0.000 OA
ATOM     23  C   UNL     1     114.728 124.995 136.624  0.00  0.00    +0.000 C 
ENDBRANCH  12  22
ENDBRANCH   1   6
BRANCH   1  30
ATOM     24  O   UNL     1     110.639 127.904 136.291  0.00  0.00    +0.000 OA
ATOM     25  O   UNL     1     108.961 129.017 137.731  0.00  0.00    +0.000 OA
ATOM     26  O   UNL     1     108.520 128.426 136.255  0.00  0.00    +0.000 OA
ATOM     27  C   UNL     1     110.300 128.570 137.509  0.00  0.00    +0.000 C 
ATOM     28  C   UNL     1     109.520 128.646 137.251  0.00  0.00    +0.000 C 
ATOM     29  C   UNL     1     109.300 128.351 136.513  0.00  0.00    +0.000 C 
ATOM     30  C   UNL     1     110.860 128.200 137.029  0.00  0.00    +0.000 C 
ATOM     31  C   UNL     1     109.859 127.980 136.033  0.00  0.00    +0.000 C 
BRANCH  31  33
ATOM     32  O   UNL     1     110.008 127.966 134.612  0.00  0.00    +0.000 OA
ATOM     33  C   UNL     1     109.639 127.684 135.295  0.00  0.00    +0.000 C 
ENDBRANCH  31  33
BRANCH  27  34
ATOM     34  O   UNL     1     110.521 128.865 138.247  0.00  0.00    +0.000 OA
BRANCH  34  39
ATOM     35  O   UNL     1     110.531 130.192 137.715  0.00  0.00    +0.000 OA
ATOM     36  O   UNL     1     110.854 129.465 139.748  0.00  0.00    +0.000 OA
ATOM     37  O   UNL     1     111.031 131.091 139.966  0.00  0.00    +0.000 OA
ATOM     38  O   UNL     1     110.875 132.117 138.684  0.00  0.00    +0.000 OA
ATOM     39  C   UNL     1     110.609 129.678 138.356  0.00  0.00    +0.000 C 
ATOM     40  C   UNL     1     110.776 129.978 139.107  0.00  0.00    +0.000 C 
ATOM     41  C   UNL     1     110.864 130.791 139.216  0.00  0.00    +0.000 C 
ATOM     42  C   UNL     1     110.786 131.304 138.575  0.00  0.00    +0.000 C 
ATOM     43  C   UNL     1     110.620 131.005 137.825  0.00  0.00    +0.000 C 
BRANCH  43  45
ATOM     44  O   UNL     1     111.129 131.549 136.605  0.00  0.00    +0.000 OA
ATOM     45  C   UNL     1     110.542 131.518 137.183  0.00  0.00    +0.000 C 
ENDBRANCH  43  45
ENDBRANCH  34  39
ENDBRANCH  27  34
ENDBRANCH   1  30
TORSDOF 8
ENDMDL
MODEL 5
REMARK VINA RESULT:      -9.2      1.361      2.655
REMARK  Name = 44259924
REMARK  8 active torsions:
REMARK  status: ('A' for Active; 'I' for Inactive)
REMARK    1  A    between atoms: O_1  and  C_18
REMARK    2  A    between atoms: O_1  and  C_21
REMARK    3  A    between atoms: O_4  and  C_23
REMARK    4  A    between atoms: O_4  and  C_30
REMARK    5  A    between atoms: O_14  and  C_37
REMARK    6  A    between atoms: C_24  and  C_28
REMARK    7  A    between atoms: C_27  and  C_29
REMARK    8  A    between atoms: C_31  and  C_35
REMARK                            x       y       z     vdW  Elec       q    Type
REMARK                         _______ _______ _______ _____ _____    ______ ____
ROOT
ATOM      1  O   UNL     1     111.576 128.115 137.064  0.00  0.00    +0.000 OA
ENDROOT
BRANCH   1   6
ATOM      2  O   UNL     1     112.264 126.060 137.320  0.00  0.00    +0.000 OA
ATOM      3  O   UNL     1     113.079 128.203 136.389  0.00  0.00    +0.000 OA
ATOM      4  O   UNL     1     114.332 127.595 136.010  0.00  0.00    +0.000 OA
ATOM      5  O   UNL     1     114.767 124.766 136.584  0.00  0.00    +0.000 OA
ATOM      6  C   UNL     1     112.056 127.445 137.037  0.00  0.00    +0.000 A 
ATOM      7  C   UNL     1     111.784 126.730 137.347  0.00  0.00    +0.000 A 
ATOM      8  C   UNL     1     112.807 127.489 136.699  0.00  0.00    +0.000 A 
ATOM      9  C   UNL     1     113.287 126.818 136.672  0.00  0.00    +0.000 A 
ATOM     10  C   UNL     1     113.016 126.104 136.982  0.00  0.00    +0.000 A 
ATOM     11  C   UNL     1     114.068 126.876 136.318  0.00  0.00    +0.000 A 
ATOM     12  C   UNL     1     113.505 125.398 136.960  0.00  0.00    +0.000 A 
ATOM     13  C   UNL     1     114.572 126.181 136.287  0.00  0.00    +0.000 A 
ATOM     14  C   UNL     1     114.289 125.438 136.610  0.00  0.00    +0.000 A 
BRANCH   7  16
ATOM     15  O   UNL     1     108.778 126.554 138.698  0.00  0.00    +0.000 OA
ATOM     16  C   UNL     1     111.033 126.686 137.685  0.00  0.00    +0.000 A 
ATOM     17  C   UNL     1     110.945 126.737 138.503  0.00  0.00    +0.000 A 
ATOM     18  C   UNL     1     110.369 126.592 137.204  0.00  0.00    +0.000 A 
ATOM     19  C   UNL     1     110.193 126.693 138.842  0.00  0.00    +0.000 A 
ATOM     20  C   UNL     1     109.618 126.548 137.541  0.00  0.00    +0.000 A 
ATOM     21  C   UNL     1     109.530 126.598 138.360  0.00  0.00    +0.000 A 
ENDBRANCH   7  16
BRANCH  12  22
ATOM     22  O   UNL     1     113.225 124.688 137.273  0.00  0.00    +0.000 OA
ATOM     23  C   UNL     1     113.210 124.009 136.804  0.00  0.00    +0.000 C 
ENDBRANCH  12  22
ENDBRANCH   1   6
BRANCH   1  30
ATOM     24  O   UNL     1     112.304 128.781 138.098  0.00  0.00    +0.000 OA
ATOM     25  O   UNL     1     111.819 130.963 137.035  0.00  0.00    +0.000 OA
ATOM     26  O   UNL     1     112.708 130.901 138.422  0.00  0.00    +0.000 OA
ATOM     27  C   UNL     1     111.697 129.539 137.049  0.00  0.00    +0.000 C 
ATOM     28  C   UNL     1     111.981 130.236 137.389  0.00  0.00    +0.000 C 
ATOM     29  C   UNL     1     112.425 130.205 138.083  0.00  0.00    +0.000 C 
ATOM     30  C   UNL     1     111.859 128.812 137.403  0.00  0.00    +0.000 C 
ATOM     31  C   UNL     1     112.587 129.478 138.437  0.00  0.00    +0.000 C 
BRANCH  31  33
ATOM     32  O   UNL     1     112.705 129.119 139.815  0.00  0.00    +0.000 OA
ATOM     33  C   UNL     1     113.032 129.446 139.131  0.00  0.00    +0.000 C 
ENDBRANCH  31  33
BRANCH  27  34
ATOM     34  O   UNL     1     111.253 129.570 136.355  0.00  0.00    +0.000 OA
BRANCH  34  39
ATOM     35  O   UNL     1     110.112 129.992 137.105  0.00  0.00    +0.000 OA
ATOM     36  O   UNL     1     110.362 129.630 134.967  0.00  0.00    +0.000 OA
ATOM     37  O   UNL     1     108.776 130.082 135.023  0.00  0.00    +0.000 OA
ATOM     38  O   UNL     1     108.081 130.475 136.467  0.00  0.00    +0.000 OA
ATOM     39  C   UNL     1     110.460 129.796 136.383  0.00  0.00    +0.000 C 
ATOM     40  C   UNL     1     110.014 129.826 135.689  0.00  0.00    +0.000 C 
ATOM     41  C   UNL     1     109.221 130.052 135.717  0.00  0.00    +0.000 C 
ATOM     42  C   UNL     1     108.874 130.248 136.439  0.00  0.00    +0.000 C 
ATOM     43  C   UNL     1     109.319 130.219 137.133  0.00  0.00    +0.000 C 
BRANCH  43  45
ATOM     44  O   UNL     1     108.827 129.829 138.416  0.00  0.00    +0.000 OA
ATOM     45  C   UNL     1     108.972 130.415 137.855  0.00  0.00    +0.000 C 
ENDBRANCH  43  45
ENDBRANCH  34  39
ENDBRANCH  27  34
ENDBRANCH   1  30
TORSDOF 8
ENDMDL
MODEL 6
REMARK VINA RESULT:      -9.2      1.474      3.106
REMARK  Name = 44259924
REMARK  8 active torsions:
REMARK  status: ('A' for Active; 'I' for Inactive)
REMARK    1  A    between atoms: O_1  and  C_18
REMARK    2  A    between atoms: O_1  and  C_21
REMARK    3  A    between atoms: O_4  and  C_23
REMARK    4  A    between atoms: O_4  and  C_30
REMARK    5  A    between atoms: O_14  and  C_37
REMARK    6  A    between atoms: C_24  and  C_28
REMARK    7  A    between atoms: C_27  and  C_29
REMARK    8  A    between atoms: C_31  and  C_35
REMARK                            x       y       z     vdW  Elec       q    Type
REMARK                         _______ _______ _______ _____ _____    ______ ____
ROOT
ATOM      1  O   UNL     1     112.212 128.391 137.056  0.00  0.00    +0.000 OA
ENDROOT
BRANCH   1   6
ATOM      2  O   UNL     1     111.805 126.389 136.287  0.00  0.00    +0.000 OA
ATOM      3  O   UNL     1     113.456 127.540 137.728  0.00  0.00    +0.000 OA
ATOM      4  O   UNL     1     114.176 126.308 137.938  0.00  0.00    +0.000 OA
ATOM      5  O   UNL     1     113.206 123.864 136.667  0.00  0.00    +0.000 OA
ATOM      6  C   UNL     1     112.284 127.582 136.912  0.00  0.00    +0.000 A 
ATOM      7  C   UNL     1     111.733 127.198 136.431  0.00  0.00    +0.000 A 
ATOM      8  C   UNL     1     112.905 127.157 137.247  0.00  0.00    +0.000 A 
ATOM      9  C   UNL     1     112.977 126.348 137.103  0.00  0.00    +0.000 A 
ATOM     10  C   UNL     1     112.427 125.963 136.623  0.00  0.00    +0.000 A 
ATOM     11  C   UNL     1     113.630 125.915 137.459  0.00  0.00    +0.000 A 
ATOM     12  C   UNL     1     112.491 125.121 136.465  0.00  0.00    +0.000 A 
ATOM     13  C   UNL     1     113.709 125.073 137.312  0.00  0.00    +0.000 A 
ATOM     14  C   UNL     1     113.136 124.673 136.813  0.00  0.00    +0.000 A 
BRANCH   7  16
ATOM     15  O   UNL     1     109.244 128.899 135.087  0.00  0.00    +0.000 OA
ATOM     16  C   UNL     1     111.112 127.623 136.095  0.00  0.00    +0.000 A 
ATOM     17  C   UNL     1     110.439 127.793 136.543  0.00  0.00    +0.000 A 
ATOM     18  C   UNL     1     111.161 127.878 135.312  0.00  0.00    +0.000 A 
ATOM     19  C   UNL     1     109.817 128.219 136.206  0.00  0.00    +0.000 A 
ATOM     20  C   UNL     1     110.539 128.303 134.976  0.00  0.00    +0.000 A 
ATOM     21  C   UNL     1     109.867 128.473 135.424  0.00  0.00    +0.000 A 
ENDBRANCH   7  16
BRANCH  12  22
ATOM     22  O   UNL     1     111.936 124.746 135.984  0.00  0.00    +0.000 OA
ATOM     23  C   UNL     1     111.559 124.061 136.247  0.00  0.00    +0.000 C 
ENDBRANCH  12  22
ENDBRANCH   1   6
BRANCH   1  30
ATOM     24  O   UNL     1     113.277 128.807 136.199  0.00  0.00    +0.000 OA
ATOM     25  O   UNL     1     113.874 130.591 137.807  0.00  0.00    +0.000 OA
ATOM     26  O   UNL     1     114.740 130.412 136.414  0.00  0.00    +0.000 OA
ATOM     27  C   UNL     1     113.043 129.491 137.432  0.00  0.00    +0.000 C 
ATOM     28  C   UNL     1     113.675 129.996 137.271  0.00  0.00    +0.000 C 
ATOM     29  C   UNL     1     114.108 129.907 136.575  0.00  0.00    +0.000 C 
ATOM     30  C   UNL     1     112.844 128.897 136.896  0.00  0.00    +0.000 C 
ATOM     31  C   UNL     1     113.909 129.313 136.039  0.00  0.00    +0.000 C 
BRANCH  31  33
ATOM     32  O   UNL     1     113.978 129.353 134.612  0.00  0.00    +0.000 OA
ATOM     33  C   UNL     1     114.341 129.223 135.342  0.00  0.00    +0.000 C 
ENDBRANCH  31  33
BRANCH  27  34
ATOM     34  O   UNL     1     112.610 129.580 138.128  0.00  0.00    +0.000 OA
BRANCH  34  39
ATOM     35  O   UNL     1     111.902 130.681 137.554  0.00  0.00    +0.000 OA
ATOM     36  O   UNL     1     111.879 129.868 139.579  0.00  0.00    +0.000 OA
ATOM     37  O   UNL     1     110.806 131.112 139.730  0.00  0.00    +0.000 OA
ATOM     38  O   UNL     1     110.464 132.068 138.429  0.00  0.00    +0.000 OA
ATOM     39  C   UNL     1     112.074 130.202 138.203  0.00  0.00    +0.000 C 
ATOM     40  C   UNL     1     111.708 130.346 138.929  0.00  0.00    +0.000 C 
ATOM     41  C   UNL     1     111.171 130.968 139.005  0.00  0.00    +0.000 C 
ATOM     42  C   UNL     1     111.001 131.446 138.354  0.00  0.00    +0.000 C 
ATOM     43  C   UNL     1     111.366 131.303 137.629  0.00  0.00    +0.000 C 
BRANCH  43  45
ATOM     44  O   UNL     1     110.720 131.494 136.368  0.00  0.00    +0.000 OA
ATOM     45  C   UNL     1     111.195 131.781 136.978  0.00  0.00    +0.000 C 
ENDBRANCH  43  45
ENDBRANCH  34  39
ENDBRANCH  27  34
ENDBRANCH   1  30
TORSDOF 8
ENDMDL
MODEL 7
REMARK VINA RESULT:      -9.2      1.519      5.085
REMARK  Name = 44259924
REMARK  8 active torsions:
REMARK  status: ('A' for Active; 'I' for Inactive)
REMARK    1  A    between atoms: O_1  and  C_18
REMARK    2  A    between atoms: O_1  and  C_21
REMARK    3  A    between atoms: O_4  and  C_23
REMARK    4  A    between atoms: O_4  and  C_30
REMARK    5  A    between atoms: O_14  and  C_37
REMARK    6  A    between atoms: C_24  and  C_28
REMARK    7  A    between atoms: C_27  and  C_29
REMARK    8  A    between atoms: C_31  and  C_35
REMARK                            x       y       z     vdW  Elec       q    Type
REMARK                         _______ _______ _______ _____ _____    ______ ____
ROOT
ATOM      1  O   UNL     1     111.400 127.533 136.812  0.00  0.00    +0.000 OA
ENDROOT
BRANCH   1   6
ATOM      2  O   UNL     1     110.109 128.939 135.754  0.00  0.00    +0.000 OA
ATOM      3  O   UNL     1     111.862 128.959 137.501  0.00  0.00    +0.000 OA
ATOM      4  O   UNL     1     111.759 130.392 137.629  0.00  0.00    +0.000 OA
ATOM      5  O   UNL     1     109.846 131.832 135.958  0.00  0.00    +0.000 OA
ATOM      6  C   UNL     1     111.047 128.239 136.574  0.00  0.00    +0.000 A 
ATOM      7  C   UNL     1     110.462 128.232 135.992  0.00  0.00    +0.000 A 
ATOM      8  C   UNL     1     111.278 128.952 136.918  0.00  0.00    +0.000 A 
ATOM      9  C   UNL     1     110.925 129.658 136.681  0.00  0.00    +0.000 A 
ATOM     10  C   UNL     1     110.340 129.653 136.099  0.00  0.00    +0.000 A 
ATOM     11  C   UNL     1     111.174 130.395 137.047  0.00  0.00    +0.000 A 
ATOM     12  C   UNL     1     109.964 130.381 135.842  0.00  0.00    +0.000 A 
ATOM     13  C   UNL     1     110.810 131.134 136.804  0.00  0.00    +0.000 A 
ATOM     14  C   UNL     1     110.201 131.127 136.198  0.00  0.00    +0.000 A 
BRANCH   7  16
ATOM     15  O   UNL     1     109.537 125.381 134.612  0.00  0.00    +0.000 OA
ATOM     16  C   UNL     1     110.231 127.520 135.647  0.00  0.00    +0.000 A 
ATOM     17  C   UNL     1     110.687 127.185 135.047  0.00  0.00    +0.000 A 
ATOM     18  C   UNL     1     109.543 127.141 135.902  0.00  0.00    +0.000 A 
ATOM     19  C   UNL     1     110.456 126.471 134.701  0.00  0.00    +0.000 A 
ATOM     20  C   UNL     1     109.312 126.429 135.558  0.00  0.00    +0.000 A 
ATOM     21  C   UNL     1     109.768 126.094 134.957  0.00  0.00    +0.000 A 
ENDBRANCH   7  16
BRANCH  12  22
ATOM     22  O   UNL     1     109.381 130.366 135.260  0.00  0.00    +0.000 OA
ATOM     23  C   UNL     1     109.368 130.946 134.674  0.00  0.00    +0.000 C 
ENDBRANCH  12  22
ENDBRANCH   1   6
BRANCH   1  30
ATOM     24  O   UNL     1     110.716 127.432 138.062  0.00  0.00    +0.000 OA
ATOM     25  O   UNL     1     112.735 126.433 139.086  0.00  0.00    +0.000 OA
ATOM     26  O   UNL     1     111.379 126.665 139.995  0.00  0.00    +0.000 OA
ATOM     27  C   UNL     1     112.068 126.982 137.949  0.00  0.00    +0.000 C 
ATOM     28  C   UNL     1     112.062 126.766 138.745  0.00  0.00    +0.000 C 
ATOM     29  C   UNL     1     111.384 126.882 139.199  0.00  0.00    +0.000 C 
ATOM     30  C   UNL     1     111.395 127.316 137.607  0.00  0.00    +0.000 C 
ATOM     31  C   UNL     1     110.711 127.215 138.858  0.00  0.00    +0.000 C 
BRANCH  31  33
ATOM     32  O   UNL     1     109.326 126.960 139.100  0.00  0.00    +0.000 OA
ATOM     33  C   UNL     1     110.032 127.332 139.312  0.00  0.00    +0.000 C 
ENDBRANCH  31  33
BRANCH  27  34
ATOM     34  O   UNL     1     112.746 126.866 137.494  0.00  0.00    +0.000 OA
BRANCH  34  39
ATOM     35  O   UNL     1     112.426 125.479 137.368  0.00  0.00    +0.000 OA
ATOM     36  O   UNL     1     114.155 126.615 136.674  0.00  0.00    +0.000 OA
ATOM     37  O   UNL     1     114.540 125.102 136.138  0.00  0.00    +0.000 OA
ATOM     38  O   UNL     1     113.514 123.841 136.422  0.00  0.00    +0.000 OA
ATOM     39  C   UNL     1     112.938 126.110 137.226  0.00  0.00    +0.000 C 
ATOM     40  C   UNL     1     113.643 125.984 136.816  0.00  0.00    +0.000 C 
ATOM     41  C   UNL     1     113.835 125.228 136.548  0.00  0.00    +0.000 C 
ATOM     42  C   UNL     1     113.322 124.597 136.690  0.00  0.00    +0.000 C 
ATOM     43  C   UNL     1     112.618 124.723 137.100  0.00  0.00    +0.000 C 
BRANCH  43  45
ATOM     44  O   UNL     1     111.429 123.998 136.781  0.00  0.00    +0.000 OA
ATOM     45  C   UNL     1     112.105 124.092 137.243  0.00  0.00    +0.000 C 
ENDBRANCH  43  45
ENDBRANCH  34  39
ENDBRANCH  27  34
ENDBRANCH   1  30
TORSDOF 8
ENDMDL
MODEL 8
REMARK VINA RESULT:      -9.2      1.559      5.403
REMARK  Name = 44259924
REMARK  8 active torsions:
REMARK  status: ('A' for Active; 'I' for Inactive)
REMARK    1  A    between atoms: O_1  and  C_18
REMARK    2  A    between atoms: O_1  and  C_21
REMARK    3  A    between atoms: O_4  and  C_23
REMARK    4  A    between atoms: O_4  and  C_30
REMARK    5  A    between atoms: O_14  and  C_37
REMARK    6  A    between atoms: C_24  and  C_28
REMARK    7  A    between atoms: C_27  and  C_29
REMARK    8  A    between atoms: C_31  and  C_35
REMARK                            x       y       z     vdW  Elec       q    Type
REMARK                         _______ _______ _______ _____ _____    ______ ____
ROOT
ATOM      1  O   UNL     1     111.691 127.594 137.378  0.00  0.00    +0.000 OA
ENDROOT
BRANCH   1   6
ATOM      2  O   UNL     1     111.373 129.293 138.712  0.00  0.00    +0.000 OA
ATOM      3  O   UNL     1     111.588 128.830 136.290  0.00  0.00    +0.000 OA
ATOM      4  O   UNL     1     111.415 130.228 135.978  0.00  0.00    +0.000 OA
ATOM      5  O   UNL     1     111.016 132.129 138.158  0.00  0.00    +0.000 OA
ATOM      6  C   UNL     1     111.568 128.366 137.641  0.00  0.00    +0.000 A 
ATOM      7  C   UNL     1     111.496 128.520 138.449  0.00  0.00    +0.000 A 
ATOM      8  C   UNL     1     111.517 128.984 137.097  0.00  0.00    +0.000 A 
ATOM      9  C   UNL     1     111.394 129.756 137.360  0.00  0.00    +0.000 A 
ATOM     10  C   UNL     1     111.322 129.911 138.167  0.00  0.00    +0.000 A 
ATOM     11  C   UNL     1     111.342 130.392 136.783  0.00  0.00    +0.000 A 
ATOM     12  C   UNL     1     111.194 130.711 138.454  0.00  0.00    +0.000 A 
ATOM     13  C   UNL     1     111.214 131.198 137.051  0.00  0.00    +0.000 A 
ATOM     14  C   UNL     1     111.139 131.358 137.892  0.00  0.00    +0.000 A 
BRANCH   7  16
ATOM     15  O   UNL     1     111.701 126.049 140.627  0.00  0.00    +0.000 OA
ATOM     16  C   UNL     1     111.548 127.903 138.993  0.00  0.00    +0.000 A 
ATOM     17  C   UNL     1     110.860 127.556 139.289  0.00  0.00    +0.000 A 
ATOM     18  C   UNL     1     112.286 127.631 139.241  0.00  0.00    +0.000 A 
ATOM     19  C   UNL     1     110.911 126.938 139.834  0.00  0.00    +0.000 A 
ATOM     20  C   UNL     1     112.337 127.014 139.785  0.00  0.00    +0.000 A 
ATOM     21  C   UNL     1     111.650 126.668 140.082  0.00  0.00    +0.000 A 
ENDBRANCH   7  16
BRANCH  12  22
ATOM     22  O   UNL     1     111.123 130.855 139.263  0.00  0.00    +0.000 OA
ATOM     23  C   UNL     1     110.448 131.226 139.558  0.00  0.00    +0.000 C 
ENDBRANCH  12  22
ENDBRANCH   1   6
BRANCH   1  30
ATOM     24  O   UNL     1     110.370 127.405 136.867  0.00  0.00    +0.000 OA
ATOM     25  O   UNL     1     111.275 125.980 135.057  0.00  0.00    +0.000 OA
ATOM     26  O   UNL     1     109.653 126.265 135.150  0.00  0.00    +0.000 OA
ATOM     27  C   UNL     1     111.484 126.787 136.217  0.00  0.00    +0.000 C 
ATOM     28  C   UNL     1     110.973 126.455 135.660  0.00  0.00    +0.000 C 
ATOM     29  C   UNL     1     110.163 126.597 135.706  0.00  0.00    +0.000 C 
ATOM     30  C   UNL     1     111.182 127.262 136.821  0.00  0.00    +0.000 C 
ATOM     31  C   UNL     1     109.861 127.072 136.310  0.00  0.00    +0.000 C 
BRANCH  31  33
ATOM     32  O   UNL     1     108.622 126.951 137.012  0.00  0.00    +0.000 OA
ATOM     33  C   UNL     1     109.050 127.215 136.357  0.00  0.00    +0.000 C 
ENDBRANCH  31  33
BRANCH  27  34
ATOM     34  O   UNL     1     112.294 126.645 136.171  0.00  0.00    +0.000 OA
BRANCH  34  39
ATOM     35  O   UNL     1     112.097 125.331 136.698  0.00  0.00    +0.000 OA
ATOM     36  O   UNL     1     113.928 126.417 136.217  0.00  0.00    +0.000 OA
ATOM     37  O   UNL     1     114.547 124.989 136.766  0.00  0.00    +0.000 OA
ATOM     38  O   UNL     1     113.532 123.790 137.269  0.00  0.00    +0.000 OA
ATOM     39  C   UNL     1     112.604 125.931 136.446  0.00  0.00    +0.000 C 
ATOM     40  C   UNL     1     113.421 125.817 136.468  0.00  0.00    +0.000 C 
ATOM     41  C   UNL     1     113.731 125.103 136.743  0.00  0.00    +0.000 C 
ATOM     42  C   UNL     1     113.223 124.503 136.995  0.00  0.00    +0.000 C 
ATOM     43  C   UNL     1     112.407 124.617 136.972  0.00  0.00    +0.000 C 
BRANCH  43  45
ATOM     44  O   UNL     1     111.455 124.114 137.912  0.00  0.00    +0.000 OA
ATOM     45  C   UNL     1     111.899 124.017 137.224  0.00  0.00    +0.000 C 
ENDBRANCH  43  45
ENDBRANCH  34  39
ENDBRANCH  27  34
ENDBRANCH   1  30
TORSDOF 8
ENDMDL
MODEL 9
REMARK VINA RESULT:      -9.2      1.678      4.151
REMARK  Name = 44259924
REMARK  8 active torsions:
REMARK  status: ('A' for Active; 'I' for Inactive)
REMARK    1  A    between atoms: O_1  and  C_18
REMARK    2  A    between atoms: O_1  and  C_21
REMARK    3  A    between atoms: O_4  and  C_23
REMARK    4  A    between atoms: O_4  and  C_30
REMARK    5  A    between atoms: O_14  and  C_37
REMARK    6  A    between atoms: C_24  and  C_28
REMARK    7  A    between atoms: C_27  and  C_29
REMARK    8  A    between atoms: C_31  and  C_35
REMARK                            x       y       z     vdW  Elec       q    Type
REMARK                         _______ _______ _______ _____ _____    ______ ____
ROOT
ATOM      1  O   UNL     1     111.852 127.989 137.462  0.00  0.00    +0.000 OA
ENDROOT
BRANCH   1   6
ATOM      2  O   UNL     1     112.963 127.556 139.290  0.00  0.00    +0.000 OA
ATOM      3  O   UNL     1     112.261 129.512 137.945  0.00  0.00    +0.000 OA
ATOM      4  O   UNL     1     112.902 130.415 138.870  0.00  0.00    +0.000 OA
ATOM      5  O   UNL     1     114.280 129.318 141.199  0.00  0.00    +0.000 OA
ATOM      6  C   UNL     1     112.290 128.099 138.152  0.00  0.00    +0.000 A 
ATOM      7  C   UNL     1     112.524 127.446 138.600  0.00  0.00    +0.000 A 
ATOM      8  C   UNL     1     112.495 128.860 138.393  0.00  0.00    +0.000 A 
ATOM      9  C   UNL     1     112.934 128.970 139.083  0.00  0.00    +0.000 A 
ATOM     10  C   UNL     1     113.168 128.319 139.532  0.00  0.00    +0.000 A 
ATOM     11  C   UNL     1     113.141 129.769 139.325  0.00  0.00    +0.000 A 
ATOM     12  C   UNL     1     113.625 128.420 140.252  0.00  0.00    +0.000 A 
ATOM     13  C   UNL     1     113.598 129.890 140.042  0.00  0.00    +0.000 A 
ATOM     14  C   UNL     1     113.841 129.211 140.509  0.00  0.00    +0.000 A 
BRANCH   7  16
ATOM     15  O   UNL     1     111.707 124.399 137.634  0.00  0.00    +0.000 OA
ATOM     16  C   UNL     1     112.320 126.685 138.359  0.00  0.00    +0.000 A 
ATOM     17  C   UNL     1     112.857 126.231 137.928  0.00  0.00    +0.000 A 
ATOM     18  C   UNL     1     111.578 126.377 138.548  0.00  0.00    +0.000 A 
ATOM     19  C   UNL     1     112.653 125.468 137.686  0.00  0.00    +0.000 A 
ATOM     20  C   UNL     1     111.374 125.615 138.307  0.00  0.00    +0.000 A 
ATOM     21  C   UNL     1     111.911 125.161 137.876  0.00  0.00    +0.000 A 
ENDBRANCH   7  16
BRANCH  12  22
ATOM     22  O   UNL     1     113.855 127.762 140.694  0.00  0.00    +0.000 OA
ATOM     23  C   UNL     1     114.654 127.628 140.847  0.00  0.00    +0.000 C 
ENDBRANCH  12  22
ENDBRANCH   1   6
BRANCH   1  30
ATOM     24  O   UNL     1     112.919 128.313 136.569  0.00  0.00    +0.000 OA
ATOM     25  O   UNL     1     111.292 129.281 134.975  0.00  0.00    +0.000 OA
ATOM     26  O   UNL     1     112.901 129.283 134.615  0.00  0.00    +0.000 OA
ATOM     27  C   UNL     1     111.571 128.635 136.219  0.00  0.00    +0.000 C 
ATOM     28  C   UNL     1     111.834 128.959 135.507  0.00  0.00    +0.000 C 
ATOM     29  C   UNL     1     112.638 128.960 135.326  0.00  0.00    +0.000 C 
ATOM     30  C   UNL     1     112.113 128.312 136.750  0.00  0.00    +0.000 C 
ATOM     31  C   UNL     1     113.181 128.637 135.857  0.00  0.00    +0.000 C 
BRANCH  31  33
ATOM     32  O   UNL     1     114.404 127.926 135.657  0.00  0.00    +0.000 OA
ATOM     33  C   UNL     1     113.986 128.638 135.677  0.00  0.00    +0.000 C 
ENDBRANCH  31  33
BRANCH  27  34
ATOM     34  O   UNL     1     110.767 128.634 136.400  0.00  0.00    +0.000 OA
BRANCH  34  39
ATOM     35  O   UNL     1     110.565 127.537 135.506  0.00  0.00    +0.000 OA
ATOM     36  O   UNL     1     109.179 128.562 136.844  0.00  0.00    +0.000 OA
ATOM     37  O   UNL     1     108.185 127.430 136.173  0.00  0.00    +0.000 OA
ATOM     38  O   UNL     1     108.778 126.369 135.057  0.00  0.00    +0.000 OA
ATOM     39  C   UNL     1     110.269 128.068 136.064  0.00  0.00    +0.000 C 
ATOM     40  C   UNL     1     109.475 128.032 136.286  0.00  0.00    +0.000 C 
ATOM     41  C   UNL     1     108.978 127.465 135.951  0.00  0.00    +0.000 C 
ATOM     42  C   UNL     1     109.275 126.935 135.393  0.00  0.00    +0.000 C 
ATOM     43  C   UNL     1     110.068 126.971 135.170  0.00  0.00    +0.000 C 
BRANCH  43  45
ATOM     44  O   UNL     1     110.840 125.811 134.853  0.00  0.00    +0.000 OA
ATOM     45  C   UNL     1     110.365 126.440 134.612  0.00  0.00    +0.000 C 
ENDBRANCH  43  45
ENDBRANCH  34  39
ENDBRANCH  27  34
ENDBRANCH   1  30
TORSDOF 8
ENDMDL
MODEL 10
REMARK VINA RESULT:      -9.2      1.229      4.609
REMARK  Name = 44259924
REMARK  8 active torsions:
REMARK  status: ('A' for Active; 'I' for Inactive)
REMARK    1  A    between atoms: O_1  and  C_18
REMARK    2  A    between atoms: O_1  and  C_21
REMARK    3  A    between atoms: O_4  and  C_23
REMARK    4  A    between atoms: O_4  and  C_30
REMARK    5  A    between atoms: O_14  and  C_37
REMARK    6  A    between atoms: C_24  and  C_28
REMARK    7  A    between atoms: C_27  and  C_29
REMARK    8  A    between atoms: C_31  and  C_35
REMARK                            x       y       z     vdW  Elec       q    Type
REMARK                         _______ _______ _______ _____ _____    ______ ____
ROOT
ATOM      1  O   UNL     1     111.707 127.839 137.582  0.00  0.00    +0.000 OA
ENDROOT
BRANCH   1   6
ATOM      2  O   UNL     1     111.345 129.887 136.920  0.00  0.00    +0.000 OA
ATOM      3  O   UNL     1     110.295 128.175 138.368  0.00  0.00    +0.000 OA
ATOM      4  O   UNL     1     109.211 129.071 138.691  0.00  0.00    +0.000 OA
ATOM      5  O   UNL     1     109.189 131.749 137.527  0.00  0.00    +0.000 OA
ATOM      6  C   UNL     1     111.351 128.577 137.493  0.00  0.00    +0.000 A 
ATOM      7  C   UNL     1     111.701 129.148 137.010  0.00  0.00    +0.000 A 
ATOM      8  C   UNL     1     110.645 128.745 137.885  0.00  0.00    +0.000 A 
ATOM      9  C   UNL     1     110.289 129.484 137.796  0.00  0.00    +0.000 A 
ATOM     10  C   UNL     1     110.638 130.055 137.314  0.00  0.00    +0.000 A 
ATOM     11  C   UNL     1     109.554 129.648 138.211  0.00  0.00    +0.000 A 
ATOM     12  C   UNL     1     110.278 130.828 137.212  0.00  0.00    +0.000 A 
ATOM     13  C   UNL     1     109.179 130.415 138.121  0.00  0.00    +0.000 A 
ATOM     14  C   UNL     1     109.543 131.009 137.619  0.00  0.00    +0.000 A 
BRANCH   7  16
ATOM     15  O   UNL     1     114.523 128.475 135.437  0.00  0.00    +0.000 OA
ATOM     16  C   UNL     1     112.406 128.980 136.617  0.00  0.00    +0.000 A 
ATOM     17  C   UNL     1     112.393 128.551 135.913  0.00  0.00    +0.000 A 
ATOM     18  C   UNL     1     113.124 129.240 136.928  0.00  0.00    +0.000 A 
ATOM     19  C   UNL     1     113.099 128.383 135.519  0.00  0.00    +0.000 A 
ATOM     20  C   UNL     1     113.829 129.073 136.536  0.00  0.00    +0.000 A 
ATOM     21  C   UNL     1     113.817 128.644 135.831  0.00  0.00    +0.000 A 
ENDBRANCH   7  16
BRANCH  12  22
ATOM     22  O   UNL     1     110.635 131.393 136.728  0.00  0.00    +0.000 OA
ATOM     23  C   UNL     1     110.771 132.154 137.014  0.00  0.00    +0.000 C 
ENDBRANCH  12  22
ENDBRANCH   1   6
BRANCH   1  30
ATOM     24  O   UNL     1     112.197 128.053 138.907  0.00  0.00    +0.000 OA
ATOM     25  O   UNL     1     111.742 125.683 139.459  0.00  0.00    +0.000 OA
ATOM     26  O   UNL     1     112.384 126.687 140.599  0.00  0.00    +0.000 OA
ATOM     27  C   UNL     1     111.724 126.760 138.520  0.00  0.00    +0.000 C 
ATOM     28  C   UNL     1     111.893 126.473 139.275  0.00  0.00    +0.000 C 
ATOM     29  C   UNL     1     112.214 126.975 139.845  0.00  0.00    +0.000 C 
ATOM     30  C   UNL     1     111.876 127.550 138.336  0.00  0.00    +0.000 C 
ATOM     31  C   UNL     1     112.366 127.764 139.661  0.00  0.00    +0.000 C 
BRANCH  31  33
ATOM     32  O   UNL     1     113.409 128.642 140.091  0.00  0.00    +0.000 OA
ATOM     33  C   UNL     1     112.687 128.267 140.231  0.00  0.00    +0.000 C 
ENDBRANCH  31  33
BRANCH  27  34
ATOM     34  O   UNL     1     111.403 126.259 137.950  0.00  0.00    +0.000 OA
BRANCH  34  39
ATOM     35  O   UNL     1     112.694 125.693 137.717  0.00  0.00    +0.000 OA
ATOM     36  O   UNL     1     110.738 125.170 136.904  0.00  0.00    +0.000 OA
ATOM     37  O   UNL     1     111.697 124.060 136.149  0.00  0.00    +0.000 OA
ATOM     38  O   UNL     1     113.321 124.039 136.439  0.00  0.00    +0.000 OA
ATOM     39  C   UNL     1     111.882 125.704 137.572  0.00  0.00    +0.000 C 
ATOM     40  C   UNL     1     111.550 125.159 137.049  0.00  0.00    +0.000 C 
ATOM     41  C   UNL     1     112.029 124.604 136.671  0.00  0.00    +0.000 C 
ATOM     42  C   UNL     1     112.841 124.594 136.817  0.00  0.00    +0.000 C 
ATOM     43  C   UNL     1     113.174 125.138 137.339  0.00  0.00    +0.000 C 
BRANCH  43  45
ATOM     44  O   UNL     1     114.473 125.700 137.146  0.00  0.00    +0.000 OA
ATOM     45  C   UNL     1     113.986 125.128 137.485  0.00  0.00    +0.000 C 
ENDBRANCH  43  45
ENDBRANCH  34  39
ENDBRANCH  27  34
ENDBRANCH   1  30
TORSDOF 8
ENDMDL
