MODEL 1
REMARK VINA RESULT:      -7.3      0.000      0.000
REMARK  Name = null
REMARK  6 active torsions:
REMARK  status: ('A' for Active; 'I' for Inactive)
REMARK    1  A    between atoms: O_2  and  C_3
REMARK    2  A    between atoms: C_4  and  O_25
REMARK    3  A    between atoms: C_8  and  C_11
REMARK    4  A    between atoms: C_12  and  O_21
REMARK    5  A    between atoms: C_13  and  O_19
REMARK    6  A    between atoms: C_14  and  O_17
REMARK                            x       y       z     vdW  Elec       q    Type
REMARK                         _______ _______ _______ _____ _____    ______ ____
ROOT
ATOM      1  C   UNL     1     112.159 124.948 136.574  0.00  0.00    +0.000 A 
ATOM      2  C   UNL     1     111.775 125.646 136.358  0.00  0.00    +0.000 A 
ATOM      3  C   UNL     1     112.198 126.353 136.313  0.00  0.00    +0.000 A 
ATOM      4  C   UNL     1     113.006 126.362 136.484  0.00  0.00    +0.000 A 
ATOM      5  C   UNL     1     113.429 127.068 136.439  0.00  0.00    +0.000 C 
ATOM      6  C   UNL     1     113.046 127.766 136.224  0.00  0.00    +0.000 C 
ATOM      7  C   UNL     1     112.238 127.757 136.054  0.00  0.00    +0.000 C 
ATOM      8  O   UNL     1     111.815 127.051 136.098  0.00  0.00    +0.000 OA
ATOM      9  C   UNL     1     113.390 125.664 136.699  0.00  0.00    +0.000 A 
ATOM     10  C   UNL     1     112.967 124.956 136.744  0.00  0.00    +0.000 A 
ENDROOT
BRANCH   6  11
ATOM     11  C   UNL     1     113.469 128.473 136.179  0.00  0.00    +0.000 A 
ATOM     12  C   UNL     1     113.402 129.032 136.783  0.00  0.00    +0.000 A 
ATOM     13  C   UNL     1     113.825 129.739 136.739  0.00  0.00    +0.000 A 
ATOM     14  C   UNL     1     114.314 129.887 136.091  0.00  0.00    +0.000 A 
ATOM     15  C   UNL     1     114.381 129.328 135.488  0.00  0.00    +0.000 A 
ATOM     16  C   UNL     1     113.958 128.621 135.533  0.00  0.00    +0.000 A 
BRANCH  14  17
ATOM     17  O   UNL     1     114.736 130.594 136.047  0.00  0.00    +0.000 OA
ATOM     18  C   UNL     1     115.341 130.680 135.494  0.00  0.00    +0.000 C 
ENDBRANCH  14  17
BRANCH  13  19
ATOM     19  O   UNL     1     113.758 130.297 137.341  0.00  0.00    +0.000 OA
ATOM     20  C   UNL     1     113.328 130.991 137.216  0.00  0.00    +0.000 C 
ENDBRANCH  13  19
BRANCH  12  21
ATOM     21  O   UNL     1     112.913 128.883 137.431  0.00  0.00    +0.000 OA
ATOM     22  C   UNL     1     113.189 129.019 138.195  0.00  0.00    +0.000 C 
ENDBRANCH  12  21
ENDBRANCH   6  11
BRANCH   1  24
ATOM     23  C   UNL     1     112.076 123.579 136.972  0.00  0.00    +0.000 C 
ATOM     24  O   UNL     1     111.736 124.241 136.618  0.00  0.00    +0.000 OA
ENDBRANCH   1  24
BRANCH   2  25
ATOM     25  O   UNL     1     110.968 125.637 136.188  0.00  0.00    +0.000 OA
ATOM     26  C   UNL     1     110.706 125.386 135.446  0.00  0.00    +0.000 C 
ENDBRANCH   2  25
TORSDOF 6
ENDMDL
MODEL 2
REMARK VINA RESULT:      -7.1      0.549      4.781
REMARK  Name = null
REMARK  6 active torsions:
REMARK  status: ('A' for Active; 'I' for Inactive)
REMARK    1  A    between atoms: O_2  and  C_3
REMARK    2  A    between atoms: C_4  and  O_25
REMARK    3  A    between atoms: C_8  and  C_11
REMARK    4  A    between atoms: C_12  and  O_21
REMARK    5  A    between atoms: C_13  and  O_19
REMARK    6  A    between atoms: C_14  and  O_17
REMARK                            x       y       z     vdW  Elec       q    Type
REMARK                         _______ _______ _______ _____ _____    ______ ____
ROOT
ATOM      1  C   UNL     1     114.545 130.180 135.798  0.00  0.00    +0.000 A 
ATOM      2  C   UNL     1     114.139 129.904 136.461  0.00  0.00    +0.000 A 
ATOM      3  C   UNL     1     113.816 129.145 136.462  0.00  0.00    +0.000 A 
ATOM      4  C   UNL     1     113.900 128.660 135.798  0.00  0.00    +0.000 A 
ATOM      5  C   UNL     1     113.577 127.901 135.799  0.00  0.00    +0.000 C 
ATOM      6  C   UNL     1     113.172 127.626 136.462  0.00  0.00    +0.000 C 
ATOM      7  C   UNL     1     113.089 128.111 137.126  0.00  0.00    +0.000 C 
ATOM      8  O   UNL     1     113.411 128.869 137.125  0.00  0.00    +0.000 OA
ATOM      9  C   UNL     1     114.306 128.936 135.135  0.00  0.00    +0.000 A 
ATOM     10  C   UNL     1     114.629 129.695 135.134  0.00  0.00    +0.000 A 
ENDROOT
BRANCH   6  11
ATOM     11  C   UNL     1     112.849 126.867 136.463  0.00  0.00    +0.000 A 
ATOM     12  C   UNL     1     112.060 126.754 136.250  0.00  0.00    +0.000 A 
ATOM     13  C   UNL     1     111.736 125.996 136.251  0.00  0.00    +0.000 A 
ATOM     14  C   UNL     1     112.202 125.349 136.465  0.00  0.00    +0.000 A 
ATOM     15  C   UNL     1     112.991 125.461 136.677  0.00  0.00    +0.000 A 
ATOM     16  C   UNL     1     113.314 126.220 136.676  0.00  0.00    +0.000 A 
BRANCH  14  17
ATOM     17  O   UNL     1     111.878 124.590 136.465  0.00  0.00    +0.000 OA
ATOM     18  C   UNL     1     112.295 123.964 136.801  0.00  0.00    +0.000 C 
ENDBRANCH  14  17
BRANCH  13  19
ATOM     19  O   UNL     1     110.947 125.884 136.039  0.00  0.00    +0.000 OA
ATOM     20  C   UNL     1     110.760 125.555 135.305  0.00  0.00    +0.000 C 
ENDBRANCH  13  19
BRANCH  12  21
ATOM     21  O   UNL     1     111.593 127.401 136.037  0.00  0.00    +0.000 OA
ATOM     22  C   UNL     1     110.842 127.493 136.362  0.00  0.00    +0.000 C 
ENDBRANCH  12  21
ENDBRANCH   6  11
BRANCH   1  24
ATOM     23  C   UNL     1     115.405 131.158 135.212  0.00  0.00    +0.000 C 
ATOM     24  O   UNL     1     114.868 130.939 135.797  0.00  0.00    +0.000 OA
ENDBRANCH   1  24
BRANCH   2  25
ATOM     25  O   UNL     1     114.056 130.388 137.124  0.00  0.00    +0.000 OA
ATOM     26  C   UNL     1     113.479 130.978 137.135  0.00  0.00    +0.000 C 
ENDBRANCH   2  25
TORSDOF 6
ENDMDL
MODEL 3
REMARK VINA RESULT:      -7.1     12.756     14.556
REMARK  Name = null
REMARK  6 active torsions:
REMARK  status: ('A' for Active; 'I' for Inactive)
REMARK    1  A    between atoms: O_2  and  C_3
REMARK    2  A    between atoms: C_4  and  O_25
REMARK    3  A    between atoms: C_8  and  C_11
REMARK    4  A    between atoms: C_12  and  O_21
REMARK    5  A    between atoms: C_13  and  O_19
REMARK    6  A    between atoms: C_14  and  O_17
REMARK                            x       y       z     vdW  Elec       q    Type
REMARK                         _______ _______ _______ _____ _____    ______ ____
ROOT
ATOM      1  C   UNL     1     107.070 125.267 147.270  0.00  0.00    +0.000 A 
ATOM      2  C   UNL     1     106.508 125.471 146.701  0.00  0.00    +0.000 A 
ATOM      3  C   UNL     1     105.733 125.193 146.766  0.00  0.00    +0.000 A 
ATOM      4  C   UNL     1     105.521 124.710 147.401  0.00  0.00    +0.000 A 
ATOM      5  C   UNL     1     104.747 124.433 147.466  0.00  0.00    +0.000 C 
ATOM      6  C   UNL     1     104.186 124.637 146.898  0.00  0.00    +0.000 C 
ATOM      7  C   UNL     1     104.399 125.120 146.263  0.00  0.00    +0.000 C 
ATOM      8  O   UNL     1     105.172 125.398 146.198  0.00  0.00    +0.000 OA
ATOM      9  C   UNL     1     106.083 124.506 147.970  0.00  0.00    +0.000 A 
ATOM     10  C   UNL     1     106.857 124.784 147.905  0.00  0.00    +0.000 A 
ENDROOT
BRANCH   6  11
ATOM     11  C   UNL     1     103.412 124.360 146.963  0.00  0.00    +0.000 A 
ATOM     12  C   UNL     1     103.122 123.816 146.414  0.00  0.00    +0.000 A 
ATOM     13  C   UNL     1     102.348 123.538 146.478  0.00  0.00    +0.000 A 
ATOM     14  C   UNL     1     101.863 123.804 147.092  0.00  0.00    +0.000 A 
ATOM     15  C   UNL     1     102.154 124.347 147.640  0.00  0.00    +0.000 A 
ATOM     16  C   UNL     1     102.928 124.625 147.575  0.00  0.00    +0.000 A 
BRANCH  14  17
ATOM     17  O   UNL     1     101.090 123.525 147.156  0.00  0.00    +0.000 OA
ATOM     18  C   UNL     1     100.718 123.505 147.891  0.00  0.00    +0.000 C 
ENDBRANCH  14  17
BRANCH  13  19
ATOM     19  O   UNL     1     102.058 122.995 145.930  0.00  0.00    +0.000 OA
ATOM     20  C   UNL     1     101.462 123.217 145.404  0.00  0.00    +0.000 C 
ENDBRANCH  13  19
BRANCH  12  21
ATOM     21  O   UNL     1     103.606 123.550 145.801  0.00  0.00    +0.000 OA
ATOM     22  C   UNL     1     103.646 122.746 145.626  0.00  0.00    +0.000 C 
ENDBRANCH  12  21
ENDBRANCH   6  11
BRANCH   1  24
ATOM     23  C   UNL     1     108.435 125.235 147.688  0.00  0.00    +0.000 C 
ATOM     24  O   UNL     1     107.843 125.544 147.204  0.00  0.00    +0.000 OA
ENDBRANCH   1  24
BRANCH   2  25
ATOM     25  O   UNL     1     106.721 125.954 146.066  0.00  0.00    +0.000 OA
ATOM     26  C   UNL     1     106.715 126.775 146.152  0.00  0.00    +0.000 C 
ENDBRANCH   2  25
TORSDOF 6
ENDMDL
MODEL 4
REMARK VINA RESULT:      -6.8     11.196     12.392
REMARK  Name = null
REMARK  6 active torsions:
REMARK  status: ('A' for Active; 'I' for Inactive)
REMARK    1  A    between atoms: O_2  and  C_3
REMARK    2  A    between atoms: C_4  and  O_25
REMARK    3  A    between atoms: C_8  and  C_11
REMARK    4  A    between atoms: C_12  and  O_21
REMARK    5  A    between atoms: C_13  and  O_19
REMARK    6  A    between atoms: C_14  and  O_17
REMARK                            x       y       z     vdW  Elec       q    Type
REMARK                         _______ _______ _______ _____ _____    ______ ____
ROOT
ATOM      1  C   UNL     1     106.997 124.641 148.534  0.00  0.00    +0.000 A 
ATOM      2  C   UNL     1     106.251 124.652 148.182  0.00  0.00    +0.000 A 
ATOM      3  C   UNL     1     106.143 125.021 147.452  0.00  0.00    +0.000 A 
ATOM      4  C   UNL     1     106.782 125.381 147.074  0.00  0.00    +0.000 A 
ATOM      5  C   UNL     1     106.675 125.750 146.344  0.00  0.00    +0.000 C 
ATOM      6  C   UNL     1     105.929 125.761 145.993  0.00  0.00    +0.000 C 
ATOM      7  C   UNL     1     105.289 125.401 146.372  0.00  0.00    +0.000 C 
ATOM      8  O   UNL     1     105.397 125.032 147.101  0.00  0.00    +0.000 OA
ATOM      9  C   UNL     1     107.529 125.370 147.426  0.00  0.00    +0.000 A 
ATOM     10  C   UNL     1     107.637 125.001 148.155  0.00  0.00    +0.000 A 
ENDROOT
BRANCH   6  11
ATOM     11  C   UNL     1     105.821 126.131 145.263  0.00  0.00    +0.000 A 
ATOM     12  C   UNL     1     105.860 125.688 144.568  0.00  0.00    +0.000 A 
ATOM     13  C   UNL     1     105.752 126.057 143.838  0.00  0.00    +0.000 A 
ATOM     14  C   UNL     1     105.605 126.869 143.803  0.00  0.00    +0.000 A 
ATOM     15  C   UNL     1     105.566 127.311 144.499  0.00  0.00    +0.000 A 
ATOM     16  C   UNL     1     105.674 126.941 145.229  0.00  0.00    +0.000 A 
BRANCH  14  17
ATOM     17  O   UNL     1     105.497 127.237 143.073  0.00  0.00    +0.000 OA
ATOM     18  C   UNL     1     105.184 127.998 143.038  0.00  0.00    +0.000 C 
ENDBRANCH  14  17
BRANCH  13  19
ATOM     19  O   UNL     1     105.791 125.615 143.143  0.00  0.00    +0.000 OA
ATOM     20  C   UNL     1     106.442 125.691 142.641  0.00  0.00    +0.000 C 
ENDBRANCH  13  19
BRANCH  12  21
ATOM     21  O   UNL     1     106.007 124.877 144.602  0.00  0.00    +0.000 OA
ATOM     22  C   UNL     1     105.557 124.357 144.148  0.00  0.00    +0.000 C 
ENDBRANCH  12  21
ENDBRANCH   6  11
BRANCH   1  24
ATOM     23  C   UNL     1     107.852 124.255 149.611  0.00  0.00    +0.000 C 
ATOM     24  O   UNL     1     107.104 124.271 149.263  0.00  0.00    +0.000 OA
ENDBRANCH   1  24
BRANCH   2  25
ATOM     25  O   UNL     1     105.612 124.292 148.560  0.00  0.00    +0.000 OA
ATOM     26  C   UNL     1     105.229 124.678 149.182  0.00  0.00    +0.000 C 
ENDBRANCH   2  25
TORSDOF 6
ENDMDL
MODEL 5
REMARK VINA RESULT:      -6.8     11.400     12.805
REMARK  Name = null
REMARK  6 active torsions:
REMARK  status: ('A' for Active; 'I' for Inactive)
REMARK    1  A    between atoms: O_2  and  C_3
REMARK    2  A    between atoms: C_4  and  O_25
REMARK    3  A    between atoms: C_8  and  C_11
REMARK    4  A    between atoms: C_12  and  O_21
REMARK    5  A    between atoms: C_13  and  O_19
REMARK    6  A    between atoms: C_14  and  O_17
REMARK                            x       y       z     vdW  Elec       q    Type
REMARK                         _______ _______ _______ _____ _____    ______ ____
ROOT
ATOM      1  C   UNL     1     105.583 127.116 143.998  0.00  0.00    +0.000 A 
ATOM      2  C   UNL     1     105.773 126.322 144.117  0.00  0.00    +0.000 A 
ATOM      3  C   UNL     1     105.975 126.053 144.870  0.00  0.00    +0.000 A 
ATOM      4  C   UNL     1     105.987 126.579 145.507  0.00  0.00    +0.000 A 
ATOM      5  C   UNL     1     106.189 126.310 146.259  0.00  0.00    +0.000 C 
ATOM      6  C   UNL     1     106.379 125.516 146.377  0.00  0.00    +0.000 C 
ATOM      7  C   UNL     1     106.366 124.990 145.740  0.00  0.00    +0.000 C 
ATOM      8  O   UNL     1     106.164 125.259 144.988  0.00  0.00    +0.000 OA
ATOM      9  C   UNL     1     105.798 127.373 145.388  0.00  0.00    +0.000 A 
ATOM     10  C   UNL     1     105.596 127.643 144.635  0.00  0.00    +0.000 A 
ENDROOT
BRANCH   6  11
ATOM     11  C   UNL     1     106.581 125.247 147.130  0.00  0.00    +0.000 A 
ATOM     12  C   UNL     1     105.995 124.967 147.639  0.00  0.00    +0.000 A 
ATOM     13  C   UNL     1     106.195 124.697 148.392  0.00  0.00    +0.000 A 
ATOM     14  C   UNL     1     106.984 124.708 148.637  0.00  0.00    +0.000 A 
ATOM     15  C   UNL     1     107.570 124.988 148.129  0.00  0.00    +0.000 A 
ATOM     16  C   UNL     1     107.368 125.258 147.375  0.00  0.00    +0.000 A 
BRANCH  14  17
ATOM     17  O   UNL     1     107.185 124.439 149.390  0.00  0.00    +0.000 OA
ATOM     18  C   UNL     1     107.977 124.383 149.611  0.00  0.00    +0.000 C 
ENDBRANCH  14  17
BRANCH  13  19
ATOM     19  O   UNL     1     105.610 124.417 148.900  0.00  0.00    +0.000 OA
ATOM     20  C   UNL     1     105.358 124.881 149.535  0.00  0.00    +0.000 C 
ENDBRANCH  13  19
BRANCH  12  21
ATOM     21  O   UNL     1     105.206 124.956 147.394  0.00  0.00    +0.000 OA
ATOM     22  C   UNL     1     104.755 124.273 147.487  0.00  0.00    +0.000 C 
ENDBRANCH  12  21
ENDBRANCH   6  11
BRANCH   1  24
ATOM     23  C   UNL     1     105.114 128.158 143.141  0.00  0.00    +0.000 C 
ATOM     24  O   UNL     1     105.381 127.385 143.246  0.00  0.00    +0.000 OA
ENDBRANCH   1  24
BRANCH   2  25
ATOM     25  O   UNL     1     105.760 125.796 143.481  0.00  0.00    +0.000 OA
ATOM     26  C   UNL     1     106.343 125.840 142.897  0.00  0.00    +0.000 C 
ENDBRANCH   2  25
TORSDOF 6
ENDMDL
MODEL 6
REMARK VINA RESULT:      -6.6      2.323      4.566
REMARK  Name = null
REMARK  6 active torsions:
REMARK  status: ('A' for Active; 'I' for Inactive)
REMARK    1  A    between atoms: O_2  and  C_3
REMARK    2  A    between atoms: C_4  and  O_25
REMARK    3  A    between atoms: C_8  and  C_11
REMARK    4  A    between atoms: C_12  and  O_21
REMARK    5  A    between atoms: C_13  and  O_19
REMARK    6  A    between atoms: C_14  and  O_17
REMARK                            x       y       z     vdW  Elec       q    Type
REMARK                         _______ _______ _______ _____ _____    ______ ____
ROOT
ATOM      1  C   UNL     1     110.306 129.441 135.470  0.00  0.00    +0.000 A 
ATOM      2  C   UNL     1     110.266 128.990 136.161  0.00  0.00    +0.000 A 
ATOM      3  C   UNL     1     110.773 128.347 136.265  0.00  0.00    +0.000 A 
ATOM      4  C   UNL     1     111.321 128.155 135.678  0.00  0.00    +0.000 A 
ATOM      5  C   UNL     1     111.827 127.512 135.781  0.00  0.00    +0.000 C 
ATOM      6  C   UNL     1     111.787 127.063 136.471  0.00  0.00    +0.000 C 
ATOM      7  C   UNL     1     111.239 127.256 137.058  0.00  0.00    +0.000 C 
ATOM      8  O   UNL     1     110.733 127.898 136.955  0.00  0.00    +0.000 OA
ATOM      9  C   UNL     1     111.361 128.605 134.987  0.00  0.00    +0.000 A 
ATOM     10  C   UNL     1     110.854 129.248 134.883  0.00  0.00    +0.000 A 
ENDROOT
BRANCH   6  11
ATOM     11  C   UNL     1     112.294 126.420 136.575  0.00  0.00    +0.000 A 
ATOM     12  C   UNL     1     112.017 125.653 136.450  0.00  0.00    +0.000 A 
ATOM     13  C   UNL     1     112.522 125.009 136.554  0.00  0.00    +0.000 A 
ATOM     14  C   UNL     1     113.306 125.133 136.784  0.00  0.00    +0.000 A 
ATOM     15  C   UNL     1     113.583 125.900 136.909  0.00  0.00    +0.000 A 
ATOM     16  C   UNL     1     113.076 126.543 136.804  0.00  0.00    +0.000 A 
BRANCH  14  17
ATOM     17  O   UNL     1     113.811 124.490 136.887  0.00  0.00    +0.000 OA
ATOM     18  C   UNL     1     114.605 124.614 137.071  0.00  0.00    +0.000 C 
ENDBRANCH  14  17
BRANCH  13  19
ATOM     19  O   UNL     1     112.246 124.243 136.430  0.00  0.00    +0.000 OA
ATOM     20  C   UNL     1     112.072 123.756 137.074  0.00  0.00    +0.000 C 
ENDBRANCH  13  19
BRANCH  12  21
ATOM     21  O   UNL     1     111.233 125.528 136.221  0.00  0.00    +0.000 OA
ATOM     22  C   UNL     1     111.061 125.007 135.607  0.00  0.00    +0.000 C 
ENDBRANCH  12  21
ENDBRANCH   6  11
BRANCH   1  24
ATOM     23  C   UNL     1     109.670 130.388 134.612  0.00  0.00    +0.000 C 
ATOM     24  O   UNL     1     109.800 130.083 135.367  0.00  0.00    +0.000 OA
ENDBRANCH   1  24
BRANCH   2  25
ATOM     25  O   UNL     1     109.719 129.183 136.747  0.00  0.00    +0.000 OA
ATOM     26  C   UNL     1     109.888 129.784 137.288  0.00  0.00    +0.000 C 
ENDBRANCH   2  25
TORSDOF 6
ENDMDL
