MODEL 1
REMARK VINA RESULT:     -10.8      0.000      0.000
REMARK  Name = 131751355
REMARK  7 active torsions:
REMARK  status: ('A' for Active; 'I' for Inactive)
REMARK    1  A    between atoms: O_5  and  C_21
REMARK    2  A    between atoms: O_5  and  C_28
REMARK    3  A    between atoms: C_18  and  C_20
REMARK    4  A    between atoms: C_19  and  C_21
REMARK    5  A    between atoms: C_28  and  C_32
REMARK    6  A    between atoms: C_30  and  C_31
REMARK    7  A    between atoms: C_35  and  C_39
REMARK                            x       y       z     vdW  Elec       q    Type
REMARK                         _______ _______ _______ _____ _____    ______ ____
ROOT
ATOM      1  O   UNL     1     105.690 127.136 143.105  0.00  0.00    +0.000 OA
ATOM      2  O   UNL     1     107.751 127.120 141.734  0.00  0.00    +0.000 OA
ATOM      3  O   UNL     1     106.711 128.398 141.644  0.00  0.00    +0.000 OA
ATOM      4  O   UNL     1     107.417 125.853 142.738  0.00  0.00    +0.000 OA
ATOM      5  C   UNL     1     107.064 127.125 142.191  0.00  0.00    +0.000 C 
ATOM      6  C   UNL     1     106.544 127.764 142.147  0.00  0.00    +0.000 C 
ATOM      7  C   UNL     1     106.897 126.492 142.693  0.00  0.00    +0.000 C 
ATOM      8  C   UNL     1     105.857 127.769 142.603  0.00  0.00    +0.000 C 
ATOM      9  C   UNL     1     106.210 126.497 143.150  0.00  0.00    +0.000 C 
ENDROOT
BRANCH   8  14
ATOM     10  O   UNL     1     104.691 127.805 141.436  0.00  0.00    +0.000 OA
ATOM     11  O   UNL     1     105.984 129.013 143.680  0.00  0.00    +0.000 OA
ATOM     12  O   UNL     1     103.763 130.359 142.432  0.00  0.00    +0.000 OA
ATOM     13  O   UNL     1     103.575 128.446 140.783  0.00  0.00    +0.000 OA
ATOM     14  C   UNL     1     105.337 128.409 142.558  0.00  0.00    +0.000 A 
ATOM     15  C   UNL     1     104.754 128.426 141.975  0.00  0.00    +0.000 A 
ATOM     16  C   UNL     1     105.400 129.030 143.096  0.00  0.00    +0.000 A 
ATOM     17  C   UNL     1     104.234 129.066 141.930  0.00  0.00    +0.000 A 
ATOM     18  C   UNL     1     104.881 129.670 143.052  0.00  0.00    +0.000 A 
ATOM     19  C   UNL     1     104.298 129.687 142.468  0.00  0.00    +0.000 A 
ATOM     20  C   UNL     1     103.632 129.072 141.318  0.00  0.00    +0.000 A 
ATOM     21  C   UNL     1     103.087 129.736 141.266  0.00  0.00    +0.000 A 
ATOM     22  C   UNL     1     103.153 130.383 141.826  0.00  0.00    +0.000 A 
BRANCH  22  25
ATOM     23  O   UNL     1     102.621 133.092 141.087  0.00  0.00    +0.000 OA
ATOM     24  O   UNL     1     101.081 132.946 141.662  0.00  0.00    +0.000 OA
ATOM     25  C   UNL     1     102.636 131.024 141.785  0.00  0.00    +0.000 A 
ATOM     26  C   UNL     1     102.888 131.738 141.456  0.00  0.00    +0.000 A 
ATOM     27  C   UNL     1     101.866 130.950 142.072  0.00  0.00    +0.000 A 
ATOM     28  C   UNL     1     102.369 132.378 141.416  0.00  0.00    +0.000 A 
ATOM     29  C   UNL     1     101.348 131.591 142.031  0.00  0.00    +0.000 A 
ATOM     30  C   UNL     1     101.599 132.305 141.703  0.00  0.00    +0.000 A 
ENDBRANCH  22  25
ENDBRANCH   8  14
BRANCH   9  31
ATOM     31  C   UNL     1     106.044 125.864 143.651  0.00  0.00    +0.000 C 
BRANCH  31  32
ATOM     32  O   UNL     1     105.879 126.000 144.448  0.00  0.00    +0.000 OA
BRANCH  32  34
ATOM     33  O   UNL     1     105.045 124.895 144.800  0.00  0.00    +0.000 OA
ATOM     34  C   UNL     1     105.705 125.368 144.948  0.00  0.00    +0.000 C 
BRANCH  34  35
ATOM     35  C   UNL     1     106.190 125.208 145.596  0.00  0.00    +0.000 C 
ATOM     36  C   UNL     1     105.905 125.317 146.362  0.00  0.00    +0.000 C 
BRANCH  36  39
ATOM     37  O   UNL     1     106.275 124.154 148.946  0.00  0.00    +0.000 OA
ATOM     38  O   UNL     1     107.841 124.674 148.955  0.00  0.00    +0.000 OA
ATOM     39  C   UNL     1     106.389 125.156 147.010  0.00  0.00    +0.000 A 
ATOM     40  C   UNL     1     106.091 124.736 147.654  0.00  0.00    +0.000 A 
ATOM     41  C   UNL     1     107.172 125.416 147.015  0.00  0.00    +0.000 A 
ATOM     42  C   UNL     1     106.574 124.575 148.303  0.00  0.00    +0.000 A 
ATOM     43  C   UNL     1     107.656 125.255 147.663  0.00  0.00    +0.000 A 
ATOM     44  C   UNL     1     107.357 124.835 148.306  0.00  0.00    +0.000 A 
ENDBRANCH  36  39
ENDBRANCH  34  35
ENDBRANCH  32  34
ENDBRANCH  31  32
ENDBRANCH   9  31
TORSDOF 7
ENDMDL
MODEL 2
REMARK VINA RESULT:     -10.7      4.276      7.056
REMARK  Name = 131751355
REMARK  7 active torsions:
REMARK  status: ('A' for Active; 'I' for Inactive)
REMARK    1  A    between atoms: O_5  and  C_21
REMARK    2  A    between atoms: O_5  and  C_28
REMARK    3  A    between atoms: C_18  and  C_20
REMARK    4  A    between atoms: C_19  and  C_21
REMARK    5  A    between atoms: C_28  and  C_32
REMARK    6  A    between atoms: C_30  and  C_31
REMARK    7  A    between atoms: C_35  and  C_39
REMARK                            x       y       z     vdW  Elec       q    Type
REMARK                         _______ _______ _______ _____ _____    ______ ____
ROOT
ATOM      1  O   UNL     1     106.938 126.414 141.360  0.00  0.00    +0.000 OA
ATOM      2  O   UNL     1     106.419 126.080 143.757  0.00  0.00    +0.000 OA
ATOM      3  O   UNL     1     105.389 125.508 142.603  0.00  0.00    +0.000 OA
ATOM      4  O   UNL     1     107.795 126.876 143.314  0.00  0.00    +0.000 OA
ATOM      5  C   UNL     1     106.592 126.192 142.958  0.00  0.00    +0.000 C 
ATOM      6  C   UNL     1     106.078 125.906 142.381  0.00  0.00    +0.000 C 
ATOM      7  C   UNL     1     107.281 126.590 142.736  0.00  0.00    +0.000 C 
ATOM      8  C   UNL     1     106.251 126.017 141.582  0.00  0.00    +0.000 C 
ATOM      9  C   UNL     1     107.454 126.701 141.937  0.00  0.00    +0.000 C 
ENDROOT
BRANCH   8  14
ATOM     10  O   UNL     1     106.429 124.482 141.003  0.00  0.00    +0.000 OA
ATOM     11  O   UNL     1     105.041 126.980 141.006  0.00  0.00    +0.000 OA
ATOM     12  O   UNL     1     104.160 124.872 139.251  0.00  0.00    +0.000 OA
ATOM     13  O   UNL     1     106.019 123.401 140.139  0.00  0.00    +0.000 OA
ATOM     14  C   UNL     1     105.735 125.730 141.005  0.00  0.00    +0.000 A 
ATOM     15  C   UNL     1     105.824 124.963 140.716  0.00  0.00    +0.000 A 
ATOM     16  C   UNL     1     105.130 126.212 140.717  0.00  0.00    +0.000 A 
ATOM     17  C   UNL     1     105.308 124.677 140.139  0.00  0.00    +0.000 A 
ATOM     18  C   UNL     1     104.614 125.926 140.140  0.00  0.00    +0.000 A 
ATOM     19  C   UNL     1     104.703 125.158 139.851  0.00  0.00    +0.000 A 
ATOM     20  C   UNL     1     105.412 123.876 139.846  0.00  0.00    +0.000 A 
ATOM     21  C   UNL     1     104.877 123.572 139.245  0.00  0.00    +0.000 A 
ATOM     22  C   UNL     1     104.247 124.073 138.945  0.00  0.00    +0.000 A 
BRANCH  22  25
ATOM     23  O   UNL     1     101.587 123.498 138.073  0.00  0.00    +0.000 OA
ATOM     24  O   UNL     1     102.178 122.944 136.636  0.00  0.00    +0.000 OA
ATOM     25  C   UNL     1     103.730 123.791 138.369  0.00  0.00    +0.000 A 
ATOM     26  C   UNL     1     102.917 123.786 138.509  0.00  0.00    +0.000 A 
ATOM     27  C   UNL     1     104.026 123.514 137.650  0.00  0.00    +0.000 A 
ATOM     28  C   UNL     1     102.400 123.503 137.932  0.00  0.00    +0.000 A 
ATOM     29  C   UNL     1     103.509 123.231 137.072  0.00  0.00    +0.000 A 
ATOM     30  C   UNL     1     102.696 123.226 137.213  0.00  0.00    +0.000 A 
ENDBRANCH  22  25
ENDBRANCH   8  14
BRANCH   9  31
ATOM     31  C   UNL     1     108.141 127.098 141.716  0.00  0.00    +0.000 C 
BRANCH  31  32
ATOM     32  O   UNL     1     108.567 126.850 141.054  0.00  0.00    +0.000 OA
BRANCH  32  34
ATOM     33  O   UNL     1     109.138 128.133 140.795  0.00  0.00    +0.000 OA
ATOM     34  C   UNL     1     109.187 127.310 140.766  0.00  0.00    +0.000 C 
BRANCH  34  35
ATOM     35  C   UNL     1     109.858 126.949 140.448  0.00  0.00    +0.000 C 
ATOM     36  C   UNL     1     110.043 127.052 139.651  0.00  0.00    +0.000 C 
BRANCH  36  39
ATOM     37  O   UNL     1     111.242 124.893 138.213  0.00  0.00    +0.000 OA
ATOM     38  O   UNL     1     112.722 125.604 138.378  0.00  0.00    +0.000 OA
ATOM     39  C   UNL     1     110.713 126.690 139.333  0.00  0.00    +0.000 A 
ATOM     40  C   UNL     1     110.643 125.973 138.932  0.00  0.00    +0.000 A 
ATOM     41  C   UNL     1     111.453 127.046 139.416  0.00  0.00    +0.000 A 
ATOM     42  C   UNL     1     111.312 125.610 138.614  0.00  0.00    +0.000 A 
ATOM     43  C   UNL     1     112.122 126.684 139.098  0.00  0.00    +0.000 A 
ATOM     44  C   UNL     1     112.052 125.966 138.697  0.00  0.00    +0.000 A 
ENDBRANCH  36  39
ENDBRANCH  34  35
ENDBRANCH  32  34
ENDBRANCH  31  32
ENDBRANCH   9  31
TORSDOF 7
ENDMDL
MODEL 3
REMARK VINA RESULT:     -10.7      3.207      5.220
REMARK  Name = 131751355
REMARK  7 active torsions:
REMARK  status: ('A' for Active; 'I' for Inactive)
REMARK    1  A    between atoms: O_5  and  C_21
REMARK    2  A    between atoms: O_5  and  C_28
REMARK    3  A    between atoms: C_18  and  C_20
REMARK    4  A    between atoms: C_19  and  C_21
REMARK    5  A    between atoms: C_28  and  C_32
REMARK    6  A    between atoms: C_30  and  C_31
REMARK    7  A    between atoms: C_35  and  C_39
REMARK                            x       y       z     vdW  Elec       q    Type
REMARK                         _______ _______ _______ _____ _____    ______ ____
ROOT
ATOM      1  O   UNL     1     105.988 126.119 141.963  0.00  0.00    +0.000 OA
ATOM      2  O   UNL     1     108.442 126.433 142.013  0.00  0.00    +0.000 OA
ATOM      3  O   UNL     1     107.448 127.612 142.599  0.00  0.00    +0.000 OA
ATOM      4  O   UNL     1     107.801 125.045 141.395  0.00  0.00    +0.000 OA
ATOM      5  C   UNL     1     107.624 126.328 141.997  0.00  0.00    +0.000 C 
ATOM      6  C   UNL     1     107.126 126.917 142.289  0.00  0.00    +0.000 C 
ATOM      7  C   UNL     1     107.303 125.634 141.687  0.00  0.00    +0.000 C 
ATOM      8  C   UNL     1     106.308 126.813 142.272  0.00  0.00    +0.000 C 
ATOM      9  C   UNL     1     106.485 125.529 141.670  0.00  0.00    +0.000 C 
ENDROOT
BRANCH   8  14
ATOM     10  O   UNL     1     105.721 127.976 141.260  0.00  0.00    +0.000 OA
ATOM     11  O   UNL     1     105.901 126.829 143.871  0.00  0.00    +0.000 OA
ATOM     12  O   UNL     1     104.301 129.191 143.470  0.00  0.00    +0.000 OA
ATOM     13  O   UNL     1     104.931 129.159 141.017  0.00  0.00    +0.000 OA
ATOM     14  C   UNL     1     105.811 127.403 142.565  0.00  0.00    +0.000 A 
ATOM     15  C   UNL     1     105.518 127.984 142.060  0.00  0.00    +0.000 A 
ATOM     16  C   UNL     1     105.608 127.411 143.365  0.00  0.00    +0.000 A 
ATOM     17  C   UNL     1     105.021 128.574 142.352  0.00  0.00    +0.000 A 
ATOM     18  C   UNL     1     105.111 128.000 143.658  0.00  0.00    +0.000 A 
ATOM     19  C   UNL     1     104.818 128.582 143.152  0.00  0.00    +0.000 A 
ATOM     20  C   UNL     1     104.722 129.174 141.815  0.00  0.00    +0.000 A 
ATOM     21  C   UNL     1     104.204 129.792 142.115  0.00  0.00    +0.000 A 
ATOM     22  C   UNL     1     103.992 129.800 142.947  0.00  0.00    +0.000 A 
BRANCH  22  25
ATOM     23  O   UNL     1     103.315 131.661 145.007  0.00  0.00    +0.000 OA
ATOM     24  O   UNL     1     102.004 132.151 144.134  0.00  0.00    +0.000 OA
ATOM     25  C   UNL     1     103.496 130.387 143.244  0.00  0.00    +0.000 A 
ATOM     26  C   UNL     1     103.654 130.731 143.978  0.00  0.00    +0.000 A 
ATOM     27  C   UNL     1     102.840 130.632 142.807  0.00  0.00    +0.000 A 
ATOM     28  C   UNL     1     103.157 131.318 144.274  0.00  0.00    +0.000 A 
ATOM     29  C   UNL     1     102.343 131.220 143.103  0.00  0.00    +0.000 A 
ATOM     30  C   UNL     1     102.501 131.563 143.837  0.00  0.00    +0.000 A 
ENDBRANCH  22  25
ENDBRANCH   8  14
BRANCH   9  31
ATOM     31  C   UNL     1     106.165 124.835 141.361  0.00  0.00    +0.000 C 
BRANCH  31  32
ATOM     32  O   UNL     1     105.490 124.867 140.887  0.00  0.00    +0.000 OA
BRANCH  32  34
ATOM     33  O   UNL     1     105.296 123.454 140.976  0.00  0.00    +0.000 OA
ATOM     34  C   UNL     1     105.160 124.171 140.591  0.00  0.00    +0.000 C 
BRANCH  34  35
ATOM     35  C   UNL     1     104.695 124.192 139.910  0.00  0.00    +0.000 C 
ATOM     36  C   UNL     1     104.286 123.518 139.668  0.00  0.00    +0.000 C 
BRANCH  36  39
ATOM     37  O   UNL     1     104.044 123.285 136.830  0.00  0.00    +0.000 OA
ATOM     38  O   UNL     1     102.428 123.600 136.942  0.00  0.00    +0.000 OA
ATOM     39  C   UNL     1     103.821 123.539 138.987  0.00  0.00    +0.000 A 
ATOM     40  C   UNL     1     104.164 123.402 138.249  0.00  0.00    +0.000 A 
ATOM     41  C   UNL     1     103.014 123.696 139.043  0.00  0.00    +0.000 A 
ATOM     42  C   UNL     1     103.701 123.422 137.568  0.00  0.00    +0.000 A 
ATOM     43  C   UNL     1     102.550 123.717 138.362  0.00  0.00    +0.000 A 
ATOM     44  C   UNL     1     102.893 123.579 137.624  0.00  0.00    +0.000 A 
ENDBRANCH  36  39
ENDBRANCH  34  35
ENDBRANCH  32  34
ENDBRANCH  31  32
ENDBRANCH   9  31
TORSDOF 7
ENDMDL
MODEL 4
REMARK VINA RESULT:     -10.6      3.454      6.824
REMARK  Name = 131751355
REMARK  7 active torsions:
REMARK  status: ('A' for Active; 'I' for Inactive)
REMARK    1  A    between atoms: O_5  and  C_21
REMARK    2  A    between atoms: O_5  and  C_28
REMARK    3  A    between atoms: C_18  and  C_20
REMARK    4  A    between atoms: C_19  and  C_21
REMARK    5  A    between atoms: C_28  and  C_32
REMARK    6  A    between atoms: C_30  and  C_31
REMARK    7  A    between atoms: C_35  and  C_39
REMARK                            x       y       z     vdW  Elec       q    Type
REMARK                         _______ _______ _______ _____ _____    ______ ____
ROOT
ATOM      1  O   UNL     1     106.160 125.512 142.403  0.00  0.00    +0.000 OA
ATOM      2  O   UNL     1     108.089 126.873 141.660  0.00  0.00    +0.000 OA
ATOM      3  O   UNL     1     107.399 127.155 143.132  0.00  0.00    +0.000 OA
ATOM      4  O   UNL     1     107.493 125.684 140.683  0.00  0.00    +0.000 OA
ATOM      5  C   UNL     1     107.446 126.419 141.907  0.00  0.00    +0.000 C 
ATOM      6  C   UNL     1     107.100 126.560 142.643  0.00  0.00    +0.000 C 
ATOM      7  C   UNL     1     107.148 125.824 141.419  0.00  0.00    +0.000 C 
ATOM      8  C   UNL     1     106.457 126.106 142.891  0.00  0.00    +0.000 C 
ATOM      9  C   UNL     1     106.504 125.371 141.667  0.00  0.00    +0.000 C 
ENDROOT
BRANCH   8  14
ATOM     10  O   UNL     1     106.835 125.146 144.178  0.00  0.00    +0.000 OA
ATOM     11  O   UNL     1     105.390 127.351 143.075  0.00  0.00    +0.000 OA
ATOM     12  O   UNL     1     105.057 126.690 145.860  0.00  0.00    +0.000 OA
ATOM     13  O   UNL     1     106.696 124.782 145.568  0.00  0.00    +0.000 OA
ATOM     14  C   UNL     1     106.113 126.248 143.627  0.00  0.00    +0.000 A 
ATOM     15  C   UNL     1     106.301 125.768 144.270  0.00  0.00    +0.000 A 
ATOM     16  C   UNL     1     105.579 126.870 143.719  0.00  0.00    +0.000 A 
ATOM     17  C   UNL     1     105.957 125.910 145.007  0.00  0.00    +0.000 A 
ATOM     18  C   UNL     1     105.234 127.013 144.455  0.00  0.00    +0.000 A 
ATOM     19  C   UNL     1     105.423 126.532 145.099  0.00  0.00    +0.000 A 
ATOM     20  C   UNL     1     106.161 125.402 145.669  0.00  0.00    +0.000 A 
ATOM     21  C   UNL     1     105.805 125.545 146.438  0.00  0.00    +0.000 A 
ATOM     22  C   UNL     1     105.250 126.193 146.534  0.00  0.00    +0.000 A 
BRANCH  22  25
ATOM     23  O   UNL     1     105.172 127.649 148.993  0.00  0.00    +0.000 OA
ATOM     24  O   UNL     1     103.859 126.772 149.471  0.00  0.00    +0.000 OA
ATOM     25  C   UNL     1     104.903 126.338 147.268  0.00  0.00    +0.000 A 
ATOM     26  C   UNL     1     105.211 126.922 147.764  0.00  0.00    +0.000 A 
ATOM     27  C   UNL     1     104.246 125.900 147.507  0.00  0.00    +0.000 A 
ATOM     28  C   UNL     1     104.863 127.066 148.497  0.00  0.00    +0.000 A 
ATOM     29  C   UNL     1     103.898 126.044 148.241  0.00  0.00    +0.000 A 
ATOM     30  C   UNL     1     104.207 126.627 148.736  0.00  0.00    +0.000 A 
ENDBRANCH  22  25
ENDBRANCH   8  14
BRANCH   9  31
ATOM     31  C   UNL     1     106.207 124.777 141.179  0.00  0.00    +0.000 C 
BRANCH  31  32
ATOM     32  O   UNL     1     105.427 124.813 140.912  0.00  0.00    +0.000 OA
BRANCH  32  34
ATOM     33  O   UNL     1     105.145 123.418 141.029  0.00  0.00    +0.000 OA
ATOM     34  C   UNL     1     105.055 124.134 140.629  0.00  0.00    +0.000 C 
BRANCH  34  35
ATOM     35  C   UNL     1     104.593 124.169 139.946  0.00  0.00    +0.000 C 
ATOM     36  C   UNL     1     104.260 123.481 139.637  0.00  0.00    +0.000 C 
BRANCH  36  39
ATOM     37  O   UNL     1     101.698 123.711 138.392  0.00  0.00    +0.000 OA
ATOM     38  O   UNL     1     102.411 123.623 136.907  0.00  0.00    +0.000 OA
ATOM     39  C   UNL     1     103.798 123.517 138.954  0.00  0.00    +0.000 A 
ATOM     40  C   UNL     1     102.979 123.596 139.014  0.00  0.00    +0.000 A 
ATOM     41  C   UNL     1     104.155 123.473 138.212  0.00  0.00    +0.000 A 
ATOM     42  C   UNL     1     102.517 123.632 138.332  0.00  0.00    +0.000 A 
ATOM     43  C   UNL     1     103.693 123.508 137.530  0.00  0.00    +0.000 A 
ATOM     44  C   UNL     1     102.874 123.588 137.590  0.00  0.00    +0.000 A 
ENDBRANCH  36  39
ENDBRANCH  34  35
ENDBRANCH  32  34
ENDBRANCH  31  32
ENDBRANCH   9  31
TORSDOF 7
ENDMDL
MODEL 5
REMARK VINA RESULT:     -10.5      8.179     10.167
REMARK  Name = 131751355
REMARK  7 active torsions:
REMARK  status: ('A' for Active; 'I' for Inactive)
REMARK    1  A    between atoms: O_5  and  C_21
REMARK    2  A    between atoms: O_5  and  C_28
REMARK    3  A    between atoms: C_18  and  C_20
REMARK    4  A    between atoms: C_19  and  C_21
REMARK    5  A    between atoms: C_28  and  C_32
REMARK    6  A    between atoms: C_30  and  C_31
REMARK    7  A    between atoms: C_35  and  C_39
REMARK                            x       y       z     vdW  Elec       q    Type
REMARK                         _______ _______ _______ _____ _____    ______ ____
ROOT
ATOM      1  O   UNL     1     110.120 128.547 136.685  0.00  0.00    +0.000 OA
ATOM      2  O   UNL     1     108.167 130.048 136.438  0.00  0.00    +0.000 OA
ATOM      3  O   UNL     1     109.495 130.553 137.278  0.00  0.00    +0.000 OA
ATOM      4  O   UNL     1     108.142 128.542 135.763  0.00  0.00    +0.000 OA
ATOM      5  C   UNL     1     108.818 129.547 136.521  0.00  0.00    +0.000 C 
ATOM      6  C   UNL     1     109.482 129.799 136.940  0.00  0.00    +0.000 C 
ATOM      7  C   UNL     1     108.806 128.794 136.183  0.00  0.00    +0.000 C 
ATOM      8  C   UNL     1     110.133 129.299 137.022  0.00  0.00    +0.000 C 
ATOM      9  C   UNL     1     109.457 128.294 136.265  0.00  0.00    +0.000 C 
ENDROOT
BRANCH   8  14
ATOM     10  O   UNL     1     110.310 128.894 138.612  0.00  0.00    +0.000 OA
ATOM     11  O   UNL     1     111.285 130.212 136.271  0.00  0.00    +0.000 OA
ATOM     12  O   UNL     1     112.820 130.330 138.706  0.00  0.00    +0.000 OA
ATOM     13  O   UNL     1     111.049 128.929 139.851  0.00  0.00    +0.000 OA
ATOM     14  C   UNL     1     110.797 129.553 137.442  0.00  0.00    +0.000 A 
ATOM     15  C   UNL     1     110.885 129.350 138.236  0.00  0.00    +0.000 A 
ATOM     16  C   UNL     1     111.373 130.009 137.067  0.00  0.00    +0.000 A 
ATOM     17  C   UNL     1     111.549 129.603 138.656  0.00  0.00    +0.000 A 
ATOM     18  C   UNL     1     112.036 130.263 137.486  0.00  0.00    +0.000 A 
ATOM     19  C   UNL     1     112.124 130.060 138.281  0.00  0.00    +0.000 A 
ATOM     20  C   UNL     1     111.629 129.385 139.483  0.00  0.00    +0.000 A 
ATOM     21  C   UNL     1     112.318 129.647 139.926  0.00  0.00    +0.000 A 
ATOM     22  C   UNL     1     112.918 130.122 139.535  0.00  0.00    +0.000 A 
BRANCH  22  25
ATOM     23  O   UNL     1     114.074 131.387 141.823  0.00  0.00    +0.000 OA
ATOM     24  O   UNL     1     115.580 131.143 141.196  0.00  0.00    +0.000 OA
ATOM     25  C   UNL     1     113.583 130.377 139.951  0.00  0.00    +0.000 A 
ATOM     26  C   UNL     1     113.495 130.754 140.679  0.00  0.00    +0.000 A 
ATOM     27  C   UNL     1     114.336 130.255 139.637  0.00  0.00    +0.000 A 
ATOM     28  C   UNL     1     114.161 131.009 141.094  0.00  0.00    +0.000 A 
ATOM     29  C   UNL     1     115.002 130.510 140.052  0.00  0.00    +0.000 A 
ATOM     30  C   UNL     1     114.914 130.887 140.780  0.00  0.00    +0.000 A 
ENDBRANCH  22  25
ENDBRANCH   8  14
BRANCH   9  31
ATOM     31  C   UNL     1     109.444 127.542 135.928  0.00  0.00    +0.000 C 
BRANCH  31  32
ATOM     32  O   UNL     1     110.151 127.144 135.777  0.00  0.00    +0.000 OA
BRANCH  32  34
ATOM     33  O   UNL     1     109.600 125.954 135.213  0.00  0.00    +0.000 OA
ATOM     34  C   UNL     1     110.155 126.324 135.698  0.00  0.00    +0.000 C 
BRANCH  34  35
ATOM     35  C   UNL     1     110.713 125.872 136.104  0.00  0.00    +0.000 C 
ATOM     36  C   UNL     1     111.222 125.374 135.689  0.00  0.00    +0.000 C 
BRANCH  36  39
ATOM     37  O   UNL     1     111.930 122.978 137.078  0.00  0.00    +0.000 OA
ATOM     38  O   UNL     1     113.454 123.565 137.314  0.00  0.00    +0.000 OA
ATOM     39  C   UNL     1     111.781 124.922 136.095  0.00  0.00    +0.000 A 
ATOM     40  C   UNL     1     111.577 124.177 136.383  0.00  0.00    +0.000 A 
ATOM     41  C   UNL     1     112.542 125.215 136.213  0.00  0.00    +0.000 A 
ATOM     42  C   UNL     1     112.134 123.724 136.790  0.00  0.00    +0.000 A 
ATOM     43  C   UNL     1     113.100 124.764 136.619  0.00  0.00    +0.000 A 
ATOM     44  C   UNL     1     112.896 124.018 136.907  0.00  0.00    +0.000 A 
ENDBRANCH  36  39
ENDBRANCH  34  35
ENDBRANCH  32  34
ENDBRANCH  31  32
ENDBRANCH   9  31
TORSDOF 7
ENDMDL
MODEL 6
REMARK VINA RESULT:     -10.5      6.530     10.043
REMARK  Name = 131751355
REMARK  7 active torsions:
REMARK  status: ('A' for Active; 'I' for Inactive)
REMARK    1  A    between atoms: O_5  and  C_21
REMARK    2  A    between atoms: O_5  and  C_28
REMARK    3  A    between atoms: C_18  and  C_20
REMARK    4  A    between atoms: C_19  and  C_21
REMARK    5  A    between atoms: C_28  and  C_32
REMARK    6  A    between atoms: C_30  and  C_31
REMARK    7  A    between atoms: C_35  and  C_39
REMARK                            x       y       z     vdW  Elec       q    Type
REMARK                         _______ _______ _______ _____ _____    ______ ____
ROOT
ATOM      1  O   UNL     1     112.895 129.946 141.178  0.00  0.00    +0.000 OA
ATOM      2  O   UNL     1     114.909 131.385 141.222  0.00  0.00    +0.000 OA
ATOM      3  O   UNL     1     114.804 130.145 140.139  0.00  0.00    +0.000 OA
ATOM      4  O   UNL     1     113.671 131.666 142.276  0.00  0.00    +0.000 OA
ATOM      5  C   UNL     1     114.237 130.906 141.207  0.00  0.00    +0.000 C 
ATOM      6  C   UNL     1     114.185 130.285 140.666  0.00  0.00    +0.000 C 
ATOM      7  C   UNL     1     113.618 131.046 141.735  0.00  0.00    +0.000 C 
ATOM      8  C   UNL     1     113.513 129.806 140.651  0.00  0.00    +0.000 C 
ATOM      9  C   UNL     1     112.947 130.567 141.720  0.00  0.00    +0.000 C 
ENDROOT
BRANCH   8  14
ATOM     10  O   UNL     1     113.976 128.284 141.090  0.00  0.00    +0.000 OA
ATOM     11  O   UNL     1     112.947 130.089 139.128  0.00  0.00    +0.000 OA
ATOM     12  O   UNL     1     113.299 127.310 138.451  0.00  0.00    +0.000 OA
ATOM     13  O   UNL     1     114.168 126.885 140.791  0.00  0.00    +0.000 OA
ATOM     14  C   UNL     1     113.462 129.186 140.109  0.00  0.00    +0.000 A 
ATOM     15  C   UNL     1     113.693 128.426 140.328  0.00  0.00    +0.000 A 
ATOM     16  C   UNL     1     113.178 129.327 139.348  0.00  0.00    +0.000 A 
ATOM     17  C   UNL     1     113.641 127.805 139.786  0.00  0.00    +0.000 A 
ATOM     18  C   UNL     1     113.126 128.708 138.805  0.00  0.00    +0.000 A 
ATOM     19  C   UNL     1     113.358 127.947 139.025  0.00  0.00    +0.000 A 
ATOM     20  C   UNL     1     113.886 127.018 140.027  0.00  0.00    +0.000 A 
ATOM     21  C   UNL     1     113.834 126.368 139.466  0.00  0.00    +0.000 A 
ATOM     22  C   UNL     1     113.539 126.515 138.673  0.00  0.00    +0.000 A 
BRANCH  22  25
ATOM     23  O   UNL     1     111.968 124.605 137.241  0.00  0.00    +0.000 OA
ATOM     24  O   UNL     1     113.328 124.048 136.492  0.00  0.00    +0.000 OA
ATOM     25  C   UNL     1     113.485 125.899 138.128  0.00  0.00    +0.000 A 
ATOM     26  C   UNL     1     112.753 125.560 137.957  0.00  0.00    +0.000 A 
ATOM     27  C   UNL     1     114.166 125.621 137.754  0.00  0.00    +0.000 A 
ATOM     28  C   UNL     1     112.701 124.943 137.412  0.00  0.00    +0.000 A 
ATOM     29  C   UNL     1     114.114 125.004 137.208  0.00  0.00    +0.000 A 
ATOM     30  C   UNL     1     113.381 124.665 137.037  0.00  0.00    +0.000 A 
ENDBRANCH  22  25
ENDBRANCH   8  14
BRANCH   9  31
ATOM     31  C   UNL     1     112.328 130.707 142.247  0.00  0.00    +0.000 C 
BRANCH  31  32
ATOM     32  O   UNL     1     111.609 130.314 142.154  0.00  0.00    +0.000 OA
BRANCH  32  34
ATOM     33  O   UNL     1     111.073 130.466 143.469  0.00  0.00    +0.000 OA
ATOM     34  C   UNL     1     110.975 130.490 142.651  0.00  0.00    +0.000 C 
BRANCH  34  35
ATOM     35  C   UNL     1     110.242 130.691 142.330  0.00  0.00    +0.000 C 
ATOM     36  C   UNL     1     109.602 130.177 142.408  0.00  0.00    +0.000 C 
BRANCH  36  39
ATOM     37  O   UNL     1     107.847 130.340 140.159  0.00  0.00    +0.000 OA
ATOM     38  O   UNL     1     106.670 130.980 141.122  0.00  0.00    +0.000 OA
ATOM     39  C   UNL     1     108.868 130.378 142.087  0.00  0.00    +0.000 A 
ATOM     40  C   UNL     1     108.724 130.259 141.284  0.00  0.00    +0.000 A 
ATOM     41  C   UNL     1     108.281 130.698 142.569  0.00  0.00    +0.000 A 
ATOM     42  C   UNL     1     107.991 130.459 140.962  0.00  0.00    +0.000 A 
ATOM     43  C   UNL     1     107.548 130.899 142.248  0.00  0.00    +0.000 A 
ATOM     44  C   UNL     1     107.404 130.779 141.444  0.00  0.00    +0.000 A 
ENDBRANCH  36  39
ENDBRANCH  34  35
ENDBRANCH  32  34
ENDBRANCH  31  32
ENDBRANCH   9  31
TORSDOF 7
ENDMDL
MODEL 7
REMARK VINA RESULT:     -10.4      3.663      6.569
REMARK  Name = 131751355
REMARK  7 active torsions:
REMARK  status: ('A' for Active; 'I' for Inactive)
REMARK    1  A    between atoms: O_5  and  C_21
REMARK    2  A    between atoms: O_5  and  C_28
REMARK    3  A    between atoms: C_18  and  C_20
REMARK    4  A    between atoms: C_19  and  C_21
REMARK    5  A    between atoms: C_28  and  C_32
REMARK    6  A    between atoms: C_30  and  C_31
REMARK    7  A    between atoms: C_35  and  C_39
REMARK                            x       y       z     vdW  Elec       q    Type
REMARK                         _______ _______ _______ _____ _____    ______ ____
ROOT
ATOM      1  O   UNL     1     106.305 125.674 142.032  0.00  0.00    +0.000 OA
ATOM      2  O   UNL     1     105.686 125.496 144.422  0.00  0.00    +0.000 OA
ATOM      3  O   UNL     1     106.439 126.854 143.864  0.00  0.00    +0.000 OA
ATOM      4  O   UNL     1     105.346 124.257 143.387  0.00  0.00    +0.000 OA
ATOM      5  C   UNL     1     105.892 125.555 143.625  0.00  0.00    +0.000 C 
ATOM      6  C   UNL     1     106.269 126.234 143.346  0.00  0.00    +0.000 C 
ATOM      7  C   UNL     1     105.722 124.935 143.107  0.00  0.00    +0.000 C 
ATOM      8  C   UNL     1     106.475 126.293 142.549  0.00  0.00    +0.000 C 
ATOM      9  C   UNL     1     105.928 124.995 142.311  0.00  0.00    +0.000 C 
ENDROOT
BRANCH   8  14
ATOM     10  O   UNL     1     108.114 126.312 142.362  0.00  0.00    +0.000 OA
ATOM     11  O   UNL     1     105.588 127.634 142.180  0.00  0.00    +0.000 OA
ATOM     12  O   UNL     1     107.983 129.046 141.423  0.00  0.00    +0.000 OA
ATOM     13  O   UNL     1     109.337 126.984 141.993  0.00  0.00    +0.000 OA
ATOM     14  C   UNL     1     106.852 126.973 142.271  0.00  0.00    +0.000 A 
ATOM     15  C   UNL     1     107.671 126.982 142.177  0.00  0.00    +0.000 A 
ATOM     16  C   UNL     1     106.408 127.643 142.086  0.00  0.00    +0.000 A 
ATOM     17  C   UNL     1     108.047 127.662 141.899  0.00  0.00    +0.000 A 
ATOM     18  C   UNL     1     106.783 128.323 141.808  0.00  0.00    +0.000 A 
ATOM     19  C   UNL     1     107.604 128.332 141.714  0.00  0.00    +0.000 A 
ATOM     20  C   UNL     1     108.901 127.658 141.806  0.00  0.00    +0.000 A 
ATOM     21  C   UNL     1     109.299 128.363 141.516  0.00  0.00    +0.000 A 
ATOM     22  C   UNL     1     108.837 129.062 141.324  0.00  0.00    +0.000 A 
BRANCH  22  25
ATOM     23  O   UNL     1     110.316 131.456 141.822  0.00  0.00    +0.000 OA
ATOM     24  O   UNL     1     110.324 131.787 140.206  0.00  0.00    +0.000 OA
ATOM     25  C   UNL     1     109.209 129.743 141.045  0.00  0.00    +0.000 A 
ATOM     26  C   UNL     1     109.576 130.259 141.573  0.00  0.00    +0.000 A 
ATOM     27  C   UNL     1     109.213 129.908 140.237  0.00  0.00    +0.000 A 
ATOM     28  C   UNL     1     109.948 130.940 141.293  0.00  0.00    +0.000 A 
ATOM     29  C   UNL     1     109.585 130.589 139.957  0.00  0.00    +0.000 A 
ATOM     30  C   UNL     1     109.952 131.105 140.485  0.00  0.00    +0.000 A 
ENDBRANCH  22  25
ENDBRANCH   8  14
BRANCH   9  31
ATOM     31  C   UNL     1     105.758 124.376 141.794  0.00  0.00    +0.000 C 
BRANCH  31  32
ATOM     32  O   UNL     1     105.526 124.537 141.018  0.00  0.00    +0.000 OA
BRANCH  32  34
ATOM     33  O   UNL     1     106.115 123.408 140.371  0.00  0.00    +0.000 OA
ATOM     34  C   UNL     1     105.480 123.927 140.466  0.00  0.00    +0.000 C 
BRANCH  34  35
ATOM     35  C   UNL     1     104.800 123.834 140.007  0.00  0.00    +0.000 C 
ATOM     36  C   UNL     1     104.844 123.895 139.187  0.00  0.00    +0.000 C 
BRANCH  36  39
ATOM     37  O   UNL     1     103.597 123.079 136.748  0.00  0.00    +0.000 OA
ATOM     38  O   UNL     1     102.127 123.524 137.351  0.00  0.00    +0.000 OA
ATOM     39  C   UNL     1     104.165 123.802 138.728  0.00  0.00    +0.000 A 
ATOM     40  C   UNL     1     104.220 123.487 137.968  0.00  0.00    +0.000 A 
ATOM     41  C   UNL     1     103.430 124.025 139.029  0.00  0.00    +0.000 A 
ATOM     42  C   UNL     1     103.541 123.394 137.509  0.00  0.00    +0.000 A 
ATOM     43  C   UNL     1     102.751 123.932 138.571  0.00  0.00    +0.000 A 
ATOM     44  C   UNL     1     102.807 123.617 137.811  0.00  0.00    +0.000 A 
ENDBRANCH  36  39
ENDBRANCH  34  35
ENDBRANCH  32  34
ENDBRANCH  31  32
ENDBRANCH   9  31
TORSDOF 7
ENDMDL
MODEL 8
REMARK VINA RESULT:     -10.4      7.506     10.137
REMARK  Name = 131751355
REMARK  7 active torsions:
REMARK  status: ('A' for Active; 'I' for Inactive)
REMARK    1  A    between atoms: O_5  and  C_21
REMARK    2  A    between atoms: O_5  and  C_28
REMARK    3  A    between atoms: C_18  and  C_20
REMARK    4  A    between atoms: C_19  and  C_21
REMARK    5  A    between atoms: C_28  and  C_32
REMARK    6  A    between atoms: C_30  and  C_31
REMARK    7  A    between atoms: C_35  and  C_39
REMARK                            x       y       z     vdW  Elec       q    Type
REMARK                         _______ _______ _______ _____ _____    ______ ____
ROOT
ATOM      1  O   UNL     1     112.889 129.355 137.774  0.00  0.00    +0.000 OA
ATOM      2  O   UNL     1     112.683 131.494 136.546  0.00  0.00    +0.000 OA
ATOM      3  O   UNL     1     112.229 131.405 138.130  0.00  0.00    +0.000 OA
ATOM      4  O   UNL     1     113.275 130.157 135.781  0.00  0.00    +0.000 OA
ATOM      5  C   UNL     1     112.752 130.781 136.955  0.00  0.00    +0.000 C 
ATOM      6  C   UNL     1     112.525 130.736 137.747  0.00  0.00    +0.000 C 
ATOM      7  C   UNL     1     113.048 130.112 136.572  0.00  0.00    +0.000 C 
ATOM      8  C   UNL     1     112.593 130.023 138.156  0.00  0.00    +0.000 C 
ATOM      9  C   UNL     1     113.116 129.399 136.982  0.00  0.00    +0.000 C 
ENDROOT
BRANCH   8  14
ATOM     10  O   UNL     1     113.706 130.268 139.350  0.00  0.00    +0.000 OA
ATOM     11  O   UNL     1     111.025 129.689 138.546  0.00  0.00    +0.000 OA
ATOM     12  O   UNL     1     111.660 129.842 141.352  0.00  0.00    +0.000 OA
ATOM     13  O   UNL     1     114.065 130.353 140.745  0.00  0.00    +0.000 OA
ATOM     14  C   UNL     1     112.366 129.979 138.948  0.00  0.00    +0.000 A 
ATOM     15  C   UNL     1     112.922 130.101 139.545  0.00  0.00    +0.000 A 
ATOM     16  C   UNL     1     111.582 129.812 139.143  0.00  0.00    +0.000 A 
ATOM     17  C   UNL     1     112.694 130.057 140.337  0.00  0.00    +0.000 A 
ATOM     18  C   UNL     1     111.353 129.768 139.934  0.00  0.00    +0.000 A 
ATOM     19  C   UNL     1     111.910 129.891 140.532  0.00  0.00    +0.000 A 
ATOM     20  C   UNL     1     113.283 130.187 140.949  0.00  0.00    +0.000 A 
ATOM     21  C   UNL     1     113.051 130.142 141.776  0.00  0.00    +0.000 A 
ATOM     22  C   UNL     1     112.235 129.969 141.979  0.00  0.00    +0.000 A 
BRANCH  22  25
ATOM     23  O   UNL     1     111.555 128.410 144.275  0.00  0.00    +0.000 OA
ATOM     24  O   UNL     1     111.307 129.792 145.141  0.00  0.00    +0.000 OA
ATOM     25  C   UNL     1     112.003 129.924 142.769  0.00  0.00    +0.000 A 
ATOM     26  C   UNL     1     111.895 129.189 143.127  0.00  0.00    +0.000 A 
ATOM     27  C   UNL     1     111.879 130.616 143.201  0.00  0.00    +0.000 A 
ATOM     28  C   UNL     1     111.663 129.145 143.917  0.00  0.00    +0.000 A 
ATOM     29  C   UNL     1     111.647 130.572 143.991  0.00  0.00    +0.000 A 
ATOM     30  C   UNL     1     111.539 129.837 144.350  0.00  0.00    +0.000 A 
ENDBRANCH  22  25
ENDBRANCH   8  14
BRANCH   9  31
ATOM     31  C   UNL     1     113.412 128.731 136.599  0.00  0.00    +0.000 C 
BRANCH  31  32
ATOM     32  O   UNL     1     113.342 127.988 136.951  0.00  0.00    +0.000 OA
BRANCH  32  34
ATOM     33  O   UNL     1     114.345 127.356 136.155  0.00  0.00    +0.000 OA
ATOM     34  C   UNL     1     113.630 127.319 136.565  0.00  0.00    +0.000 C 
BRANCH  34  35
ATOM     35  C   UNL     1     113.205 126.613 136.589  0.00  0.00    +0.000 C 
ATOM     36  C   UNL     1     113.497 125.968 137.012  0.00  0.00    +0.000 C 
BRANCH  36  39
ATOM     37  O   UNL     1     111.320 124.424 138.033  0.00  0.00    +0.000 OA
ATOM     38  O   UNL     1     111.793 123.144 137.106  0.00  0.00    +0.000 OA
ATOM     39  C   UNL     1     113.071 125.262 137.035  0.00  0.00    +0.000 A 
ATOM     40  C   UNL     1     112.409 125.196 137.522  0.00  0.00    +0.000 A 
ATOM     41  C   UNL     1     113.307 124.622 136.572  0.00  0.00    +0.000 A 
ATOM     42  C   UNL     1     111.982 124.490 137.546  0.00  0.00    +0.000 A 
ATOM     43  C   UNL     1     112.882 123.916 136.595  0.00  0.00    +0.000 A 
ATOM     44  C   UNL     1     112.219 123.851 137.082  0.00  0.00    +0.000 A 
ENDBRANCH  36  39
ENDBRANCH  34  35
ENDBRANCH  32  34
ENDBRANCH  31  32
ENDBRANCH   9  31
TORSDOF 7
ENDMDL
MODEL 9
REMARK VINA RESULT:     -10.4      1.070      7.299
REMARK  Name = 131751355
REMARK  7 active torsions:
REMARK  status: ('A' for Active; 'I' for Inactive)
REMARK    1  A    between atoms: O_5  and  C_21
REMARK    2  A    between atoms: O_5  and  C_28
REMARK    3  A    between atoms: C_18  and  C_20
REMARK    4  A    between atoms: C_19  and  C_21
REMARK    5  A    between atoms: C_28  and  C_32
REMARK    6  A    between atoms: C_30  and  C_31
REMARK    7  A    between atoms: C_35  and  C_39
REMARK                            x       y       z     vdW  Elec       q    Type
REMARK                         _______ _______ _______ _____ _____    ______ ____
ROOT
ATOM      1  O   UNL     1     105.942 127.909 142.988  0.00  0.00    +0.000 OA
ATOM      2  O   UNL     1     108.194 128.392 142.082  0.00  0.00    +0.000 OA
ATOM      3  O   UNL     1     108.034 127.738 143.589  0.00  0.00    +0.000 OA
ATOM      4  O   UNL     1     106.853 128.725 141.180  0.00  0.00    +0.000 OA
ATOM      5  C   UNL     1     107.444 128.231 142.384  0.00  0.00    +0.000 C 
ATOM      6  C   UNL     1     107.363 127.904 143.137  0.00  0.00    +0.000 C 
ATOM      7  C   UNL     1     106.772 128.397 141.933  0.00  0.00    +0.000 C 
ATOM      8  C   UNL     1     106.612 127.743 143.439  0.00  0.00    +0.000 C 
ATOM      9  C   UNL     1     106.022 128.236 142.235  0.00  0.00    +0.000 C 
ENDROOT
BRANCH   8  14
ATOM     10  O   UNL     1     106.480 126.108 143.620  0.00  0.00    +0.000 OA
ATOM     11  O   UNL     1     106.585 128.724 144.765  0.00  0.00    +0.000 OA
ATOM     12  O   UNL     1     106.291 126.435 146.489  0.00  0.00    +0.000 OA
ATOM     13  O   UNL     1     106.333 124.936 144.449  0.00  0.00    +0.000 OA
ATOM     14  C   UNL     1     106.533 127.416 144.193  0.00  0.00    +0.000 A 
ATOM     15  C   UNL     1     106.466 126.599 144.283  0.00  0.00    +0.000 A 
ATOM     16  C   UNL     1     106.519 127.906 144.856  0.00  0.00    +0.000 A 
ATOM     17  C   UNL     1     106.387 126.272 145.036  0.00  0.00    +0.000 A 
ATOM     18  C   UNL     1     106.440 127.580 145.609  0.00  0.00    +0.000 A 
ATOM     19  C   UNL     1     106.374 126.762 145.700  0.00  0.00    +0.000 A 
ATOM     20  C   UNL     1     106.319 125.419 145.117  0.00  0.00    +0.000 A 
ATOM     21  C   UNL     1     106.236 125.073 145.900  0.00  0.00    +0.000 A 
ATOM     22  C   UNL     1     106.222 125.584 146.590  0.00  0.00    +0.000 A 
BRANCH  22  25
ATOM     23  O   UNL     1     104.567 124.754 148.768  0.00  0.00    +0.000 OA
ATOM     24  O   UNL     1     105.908 124.293 149.611  0.00  0.00    +0.000 OA
ATOM     25  C   UNL     1     106.143 125.261 147.345  0.00  0.00    +0.000 A 
ATOM     26  C   UNL     1     105.394 125.169 147.679  0.00  0.00    +0.000 A 
ATOM     27  C   UNL     1     106.814 125.030 147.766  0.00  0.00    +0.000 A 
ATOM     28  C   UNL     1     105.316 124.846 148.434  0.00  0.00    +0.000 A 
ATOM     29  C   UNL     1     106.736 124.708 148.521  0.00  0.00    +0.000 A 
ATOM     30  C   UNL     1     105.987 124.616 148.855  0.00  0.00    +0.000 A 
ENDBRANCH  22  25
ENDBRANCH   8  14
BRANCH   9  31
ATOM     31  C   UNL     1     105.352 128.403 141.784  0.00  0.00    +0.000 C 
BRANCH  31  32
ATOM     32  O   UNL     1     104.678 128.713 142.145  0.00  0.00    +0.000 OA
BRANCH  32  34
ATOM     33  O   UNL     1     103.737 128.365 141.128  0.00  0.00    +0.000 OA
ATOM     34  C   UNL     1     104.016 128.900 141.690  0.00  0.00    +0.000 C 
BRANCH  34  35
ATOM     35  C   UNL     1     103.632 129.623 141.798  0.00  0.00    +0.000 C 
ATOM     36  C   UNL     1     103.097 129.894 141.232  0.00  0.00    +0.000 C 
BRANCH  36  39
ATOM     37  O   UNL     1     103.039 132.735 140.923  0.00  0.00    +0.000 OA
ATOM     38  O   UNL     1     101.563 132.785 141.659  0.00  0.00    +0.000 OA
ATOM     39  C   UNL     1     102.713 130.617 141.339  0.00  0.00    +0.000 A 
ATOM     40  C   UNL     1     103.068 131.314 141.078  0.00  0.00    +0.000 A 
ATOM     41  C   UNL     1     101.975 130.642 141.707  0.00  0.00    +0.000 A 
ATOM     42  C   UNL     1     102.685 132.037 141.184  0.00  0.00    +0.000 A 
ATOM     43  C   UNL     1     101.592 131.364 141.813  0.00  0.00    +0.000 A 
ATOM     44  C   UNL     1     101.947 132.062 141.552  0.00  0.00    +0.000 A 
ENDBRANCH  36  39
ENDBRANCH  34  35
ENDBRANCH  32  34
ENDBRANCH  31  32
ENDBRANCH   9  31
TORSDOF 7
ENDMDL
MODEL 10
REMARK VINA RESULT:     -10.4      4.617      8.070
REMARK  Name = 131751355
REMARK  7 active torsions:
REMARK  status: ('A' for Active; 'I' for Inactive)
REMARK    1  A    between atoms: O_5  and  C_21
REMARK    2  A    between atoms: O_5  and  C_28
REMARK    3  A    between atoms: C_18  and  C_20
REMARK    4  A    between atoms: C_19  and  C_21
REMARK    5  A    between atoms: C_28  and  C_32
REMARK    6  A    between atoms: C_30  and  C_31
REMARK    7  A    between atoms: C_35  and  C_39
REMARK                            x       y       z     vdW  Elec       q    Type
REMARK                         _______ _______ _______ _____ _____    ______ ____
ROOT
ATOM      1  O   UNL     1     108.563 126.740 141.508  0.00  0.00    +0.000 OA
ATOM      2  O   UNL     1     108.831 129.138 142.061  0.00  0.00    +0.000 OA
ATOM      3  O   UNL     1     109.900 128.401 141.042  0.00  0.00    +0.000 OA
ATOM      4  O   UNL     1     107.583 128.276 142.711  0.00  0.00    +0.000 OA
ATOM      5  C   UNL     1     108.742 128.338 141.876  0.00  0.00    +0.000 C 
ATOM      6  C   UNL     1     109.276 127.970 141.367  0.00  0.00    +0.000 C 
ATOM      7  C   UNL     1     108.117 127.907 142.202  0.00  0.00    +0.000 C 
ATOM      8  C   UNL     1     109.186 127.171 141.183  0.00  0.00    +0.000 C 
ATOM      9  C   UNL     1     108.028 127.108 142.017  0.00  0.00    +0.000 C 
ENDROOT
BRANCH   8  14
ATOM     10  O   UNL     1     108.848 127.058 139.572  0.00  0.00    +0.000 OA
ATOM     11  O   UNL     1     110.594 126.548 141.776  0.00  0.00    +0.000 OA
ATOM     12  O   UNL     1     111.357 125.683 139.136  0.00  0.00    +0.000 OA
ATOM     13  O   UNL     1     109.194 126.641 138.234  0.00  0.00    +0.000 OA
ATOM     14  C   UNL     1     109.721 126.803 140.673  0.00  0.00    +0.000 A 
ATOM     15  C   UNL     1     109.552 126.747 139.868  0.00  0.00    +0.000 A 
ATOM     16  C   UNL     1     110.425 126.492 140.970  0.00  0.00    +0.000 A 
ATOM     17  C   UNL     1     110.087 126.379 139.359  0.00  0.00    +0.000 A 
ATOM     18  C   UNL     1     110.960 126.124 140.461  0.00  0.00    +0.000 A 
ATOM     19  C   UNL     1     110.791 126.068 139.655  0.00  0.00    +0.000 A 
ATOM     20  C   UNL     1     109.900 126.327 138.522  0.00  0.00    +0.000 A 
ATOM     21  C   UNL     1     110.454 125.945 137.986  0.00  0.00    +0.000 A 
ATOM     22  C   UNL     1     111.187 125.621 138.295  0.00  0.00    +0.000 A 
BRANCH  22  25
ATOM     23  O   UNL     1     112.048 123.306 136.857  0.00  0.00    +0.000 OA
ATOM     24  O   UNL     1     113.340 124.150 136.272  0.00  0.00    +0.000 OA
ATOM     25  C   UNL     1     111.724 125.253 137.790  0.00  0.00    +0.000 A 
ATOM     26  C   UNL     1     111.617 124.463 137.576  0.00  0.00    +0.000 A 
ATOM     27  C   UNL     1     112.370 125.675 137.498  0.00  0.00    +0.000 A 
ATOM     28  C   UNL     1     112.155 124.096 137.071  0.00  0.00    +0.000 A 
ATOM     29  C   UNL     1     112.908 125.308 136.992  0.00  0.00    +0.000 A 
ATOM     30  C   UNL     1     112.801 124.518 136.778  0.00  0.00    +0.000 A 
ENDBRANCH  22  25
ENDBRANCH   8  14
BRANCH   9  31
ATOM     31  C   UNL     1     107.404 126.677 142.342  0.00  0.00    +0.000 C 
BRANCH  31  32
ATOM     32  O   UNL     1     107.279 125.895 142.113  0.00  0.00    +0.000 OA
BRANCH  32  34
ATOM     33  O   UNL     1     106.409 125.411 143.137  0.00  0.00    +0.000 OA
ATOM     34  C   UNL     1     106.588 125.504 142.337  0.00  0.00    +0.000 C 
BRANCH  34  35
ATOM     35  C   UNL     1     106.076 125.207 141.763  0.00  0.00    +0.000 C 
ATOM     36  C   UNL     1     106.107 124.410 141.554  0.00  0.00    +0.000 C 
BRANCH  36  39
ATOM     37  O   UNL     1     105.140 124.407 138.865  0.00  0.00    +0.000 OA
ATOM     38  O   UNL     1     104.060 123.223 139.254  0.00  0.00    +0.000 OA
ATOM     39  C   UNL     1     105.595 124.113 140.979  0.00  0.00    +0.000 A 
ATOM     40  C   UNL     1     105.623 124.408 140.210  0.00  0.00    +0.000 A 
ATOM     41  C   UNL     1     105.055 123.521 141.174  0.00  0.00    +0.000 A 
ATOM     42  C   UNL     1     105.112 124.112 139.634  0.00  0.00    +0.000 A 
ATOM     43  C   UNL     1     104.544 123.224 140.599  0.00  0.00    +0.000 A 
ATOM     44  C   UNL     1     104.572 123.520 139.830  0.00  0.00    +0.000 A 
ENDBRANCH  36  39
ENDBRANCH  34  35
ENDBRANCH  32  34
ENDBRANCH  31  32
ENDBRANCH   9  31
TORSDOF 7
ENDMDL
