MODEL 1
REMARK VINA RESULT:      -8.4      0.000      0.000
REMARK  Name = null
REMARK  6 active torsions:
REMARK  status: ('A' for Active; 'I' for Inactive)
REMARK    1  A    between atoms: C_2  and  CA_3
REMARK    2  A    between atoms: CA_3  and  C_4
REMARK    3  A    between atoms: CA_3  and  N_7
REMARK    4  A    between atoms: C_10  and  C_19
REMARK    5  A    between atoms: C_21  and  O_27
REMARK    6  A    between atoms: C_22  and  O_25
REMARK                            x       y       z     vdW  Elec       q    Type
REMARK                         _______ _______ _______ _____ _____    ______ ____
ROOT
ATOM      1  N   UNL     1     106.195 125.272 146.119  0.00  0.00    +0.000 NA
ATOM      2  C   UNL     1     105.808 125.046 146.812  0.00  0.00    +0.000 A 
ATOM      3  C   UNL     1     104.988 124.957 146.815  0.00  0.00    +0.000 A 
ATOM      4  C   UNL     1     104.600 124.731 147.509  0.00  0.00    +0.000 A 
ATOM      5  O   UNL     1     105.034 124.593 148.197  0.00  0.00    +0.000 OA
ATOM      6  C   UNL     1     105.855 124.682 148.193  0.00  0.00    +0.000 A 
ATOM      7  C   UNL     1     106.242 124.908 147.500  0.00  0.00    +0.000 A 
ATOM      8  C   UNL     1     107.062 124.996 147.496  0.00  0.00    +0.000 A 
ATOM      9  C   UNL     1     107.495 124.859 148.184  0.00  0.00    +0.000 A 
ATOM     10  C   UNL     1     107.108 124.632 148.877  0.00  0.00    +0.000 A 
ATOM     11  C   UNL     1     106.288 124.544 148.881  0.00  0.00    +0.000 A 
ATOM     12  C   UNL     1     108.316 124.947 148.180  0.00  0.00    +0.000 C 
ENDROOT
BRANCH   4  13
ATOM     13  C   UNL     1     103.781 124.643 147.513  0.00  0.00    +0.000 A 
ATOM     14  C   UNL     1     103.302 125.252 147.795  0.00  0.00    +0.000 A 
ATOM     15  C   UNL     1     102.482 125.165 147.799  0.00  0.00    +0.000 A 
ATOM     16  C   UNL     1     102.140 124.467 147.521  0.00  0.00    +0.000 A 
ATOM     17  C   UNL     1     102.619 123.857 147.239  0.00  0.00    +0.000 A 
ATOM     18  C   UNL     1     103.440 123.946 147.235  0.00  0.00    +0.000 A 
BRANCH  16  19
ATOM     19  O   UNL     1     101.320 124.379 147.525  0.00  0.00    +0.000 OA
ATOM     20  C   UNL     1     100.978 123.679 147.257  0.00  0.00    +0.000 C 
ENDBRANCH  16  19
BRANCH  15  21
ATOM     21  O   UNL     1     102.003 125.774 148.081  0.00  0.00    +0.000 OA
ATOM     22  C   UNL     1     102.326 126.365 148.559  0.00  0.00    +0.000 C 
ENDBRANCH  15  21
ENDBRANCH   4  13
BRANCH   1  23
ATOM     23  CA  UNL     1     105.762 125.410 145.430  0.00  0.00    +0.000 C 
BRANCH  23  24
ATOM     24  C   UNL     1     105.762 124.850 144.824  0.00  0.00    +0.000 C 
ATOM     25  O   UNL     1     105.076 124.715 144.386  0.00  0.00    +0.000 OA
ATOM     26  OXT UNL     1     106.449 124.424 144.658  0.00  0.00    +0.000 OA
ENDBRANCH  23  24
BRANCH  23  28
ATOM     27  C   UNL     1     105.636 126.733 144.907  0.00  0.00    +0.000 C 
ATOM     28  C   UNL     1     105.330 126.106 145.347  0.00  0.00    +0.000 C 
ENDBRANCH  23  28
ENDBRANCH   1  23
TORSDOF 6
ENDMDL
MODEL 2
REMARK VINA RESULT:      -8.1     12.502     14.514
REMARK  Name = null
REMARK  6 active torsions:
REMARK  status: ('A' for Active; 'I' for Inactive)
REMARK    1  A    between atoms: C_2  and  CA_3
REMARK    2  A    between atoms: CA_3  and  C_4
REMARK    3  A    between atoms: CA_3  and  N_7
REMARK    4  A    between atoms: C_10  and  C_19
REMARK    5  A    between atoms: C_21  and  O_27
REMARK    6  A    between atoms: C_22  and  O_25
REMARK                            x       y       z     vdW  Elec       q    Type
REMARK                         _______ _______ _______ _____ _____    ______ ____
ROOT
ATOM      1  N   UNL     1     112.368 126.129 136.557  0.00  0.00    +0.000 NA
ATOM      2  C   UNL     1     112.256 126.824 136.128  0.00  0.00    +0.000 A 
ATOM      3  C   UNL     1     112.797 127.444 136.198  0.00  0.00    +0.000 A 
ATOM      4  C   UNL     1     112.685 128.140 135.769  0.00  0.00    +0.000 A 
ATOM      5  O   UNL     1     112.032 128.216 135.270  0.00  0.00    +0.000 OA
ATOM      6  C   UNL     1     111.491 127.597 135.199  0.00  0.00    +0.000 A 
ATOM      7  C   UNL     1     111.603 126.900 135.628  0.00  0.00    +0.000 A 
ATOM      8  C   UNL     1     111.063 126.281 135.558  0.00  0.00    +0.000 A 
ATOM      9  C   UNL     1     110.411 126.358 135.059  0.00  0.00    +0.000 A 
ATOM     10  C   UNL     1     110.299 127.054 134.629  0.00  0.00    +0.000 A 
ATOM     11  C   UNL     1     110.840 127.673 134.700  0.00  0.00    +0.000 A 
ATOM     12  C   UNL     1     109.870 125.739 134.988  0.00  0.00    +0.000 C 
ENDROOT
BRANCH   4  13
ATOM     13  C   UNL     1     113.225 128.759 135.839  0.00  0.00    +0.000 A 
ATOM     14  C   UNL     1     113.106 129.347 136.405  0.00  0.00    +0.000 A 
ATOM     15  C   UNL     1     113.646 129.967 136.476  0.00  0.00    +0.000 A 
ATOM     16  C   UNL     1     114.306 129.998 135.981  0.00  0.00    +0.000 A 
ATOM     17  C   UNL     1     114.425 129.409 135.415  0.00  0.00    +0.000 A 
ATOM     18  C   UNL     1     113.884 128.790 135.345  0.00  0.00    +0.000 A 
BRANCH  16  19
ATOM     19  O   UNL     1     114.846 130.617 136.052  0.00  0.00    +0.000 OA
ATOM     20  C   UNL     1     115.424 130.729 135.475  0.00  0.00    +0.000 C 
ENDBRANCH  16  19
BRANCH  15  21
ATOM     21  O   UNL     1     113.528 130.555 137.042  0.00  0.00    +0.000 OA
ATOM     22  C   UNL     1     112.886 130.507 137.559  0.00  0.00    +0.000 C 
ENDBRANCH  15  21
ENDBRANCH   4  13
BRANCH   1  23
ATOM     23  CA  UNL     1     113.020 126.052 137.056  0.00  0.00    +0.000 C 
BRANCH  23  24
ATOM     24  C   UNL     1     112.921 126.102 137.874  0.00  0.00    +0.000 C 
ATOM     25  O   UNL     1     113.459 126.530 138.330  0.00  0.00    +0.000 OA
ATOM     26  OXT UNL     1     112.283 125.723 138.234  0.00  0.00    +0.000 OA
ENDBRANCH  23  24
BRANCH  23  28
ATOM     27  C   UNL     1     114.114 125.177 136.776  0.00  0.00    +0.000 C 
ATOM     28  C   UNL     1     113.770 125.926 136.739  0.00  0.00    +0.000 C 
ENDBRANCH  23  28
ENDBRANCH   1  23
TORSDOF 6
ENDMDL
MODEL 3
REMARK VINA RESULT:      -8.1     12.234     13.887
REMARK  Name = null
REMARK  6 active torsions:
REMARK  status: ('A' for Active; 'I' for Inactive)
REMARK    1  A    between atoms: C_2  and  CA_3
REMARK    2  A    between atoms: CA_3  and  C_4
REMARK    3  A    between atoms: CA_3  and  N_7
REMARK    4  A    between atoms: C_10  and  C_19
REMARK    5  A    between atoms: C_21  and  O_27
REMARK    6  A    between atoms: C_22  and  O_25
REMARK                            x       y       z     vdW  Elec       q    Type
REMARK                         _______ _______ _______ _____ _____    ______ ____
ROOT
ATOM      1  N   UNL     1     111.332 126.031 136.166  0.00  0.00    +0.000 NA
ATOM      2  C   UNL     1     112.111 126.235 136.345  0.00  0.00    +0.000 A 
ATOM      3  C   UNL     1     112.350 127.024 136.307  0.00  0.00    +0.000 A 
ATOM      4  C   UNL     1     113.130 127.229 136.487  0.00  0.00    +0.000 A 
ATOM      5  O   UNL     1     113.669 126.644 136.705  0.00  0.00    +0.000 OA
ATOM      6  C   UNL     1     113.431 125.855 136.744  0.00  0.00    +0.000 A 
ATOM      7  C   UNL     1     112.651 125.650 136.564  0.00  0.00    +0.000 A 
ATOM      8  C   UNL     1     112.412 124.862 136.602  0.00  0.00    +0.000 A 
ATOM      9  C   UNL     1     112.951 124.278 136.821  0.00  0.00    +0.000 A 
ATOM     10  C   UNL     1     113.731 124.483 137.001  0.00  0.00    +0.000 A 
ATOM     11  C   UNL     1     113.970 125.271 136.962  0.00  0.00    +0.000 A 
ATOM     12  C   UNL     1     112.713 123.489 136.859  0.00  0.00    +0.000 C 
ENDROOT
BRANCH   4  13
ATOM     13  C   UNL     1     113.368 128.017 136.448  0.00  0.00    +0.000 A 
ATOM     14  C   UNL     1     113.260 128.513 137.098  0.00  0.00    +0.000 A 
ATOM     15  C   UNL     1     113.498 129.302 137.061  0.00  0.00    +0.000 A 
ATOM     16  C   UNL     1     113.846 129.594 136.371  0.00  0.00    +0.000 A 
ATOM     17  C   UNL     1     113.954 129.098 135.721  0.00  0.00    +0.000 A 
ATOM     18  C   UNL     1     113.715 128.310 135.760  0.00  0.00    +0.000 A 
BRANCH  16  19
ATOM     19  O   UNL     1     114.084 130.383 136.334  0.00  0.00    +0.000 OA
ATOM     20  C   UNL     1     114.582 130.635 135.727  0.00  0.00    +0.000 C 
ENDBRANCH  16  19
BRANCH  15  21
ATOM     21  O   UNL     1     113.390 129.797 137.710  0.00  0.00    +0.000 OA
ATOM     22  C   UNL     1     113.021 129.510 138.391  0.00  0.00    +0.000 C 
ENDBRANCH  15  21
ENDBRANCH   4  13
BRANCH   1  23
ATOM     23  CA  UNL     1     110.792 126.616 135.947  0.00  0.00    +0.000 C 
BRANCH  23  24
ATOM     24  C   UNL     1     110.211 126.860 136.480  0.00  0.00    +0.000 C 
ATOM     25  O   UNL     1     109.803 126.301 136.930  0.00  0.00    +0.000 OA
ATOM     26  OXT UNL     1     110.039 127.662 136.562  0.00  0.00    +0.000 OA
ENDBRANCH  23  24
BRANCH  23  28
ATOM     27  C   UNL     1     110.297 126.731 134.612  0.00  0.00    +0.000 C 
ATOM     28  C   UNL     1     110.833 126.956 135.198  0.00  0.00    +0.000 C 
ENDBRANCH  23  28
ENDBRANCH   1  23
TORSDOF 6
ENDMDL
MODEL 4
REMARK VINA RESULT:      -7.9      1.221      3.868
REMARK  Name = null
REMARK  6 active torsions:
REMARK  status: ('A' for Active; 'I' for Inactive)
REMARK    1  A    between atoms: C_2  and  CA_3
REMARK    2  A    between atoms: CA_3  and  C_4
REMARK    3  A    between atoms: CA_3  and  N_7
REMARK    4  A    between atoms: C_10  and  C_19
REMARK    5  A    between atoms: C_21  and  O_27
REMARK    6  A    between atoms: C_22  and  O_25
REMARK                            x       y       z     vdW  Elec       q    Type
REMARK                         _______ _______ _______ _____ _____    ______ ____
ROOT
ATOM      1  N   UNL     1     105.109 124.704 147.817  0.00  0.00    +0.000 NA
ATOM      2  C   UNL     1     105.713 125.041 147.368  0.00  0.00    +0.000 A 
ATOM      3  C   UNL     1     105.538 125.402 146.647  0.00  0.00    +0.000 A 
ATOM      4  C   UNL     1     106.143 125.740 146.197  0.00  0.00    +0.000 A 
ATOM      5  O   UNL     1     106.921 125.717 146.470  0.00  0.00    +0.000 OA
ATOM      6  C   UNL     1     107.096 125.357 147.192  0.00  0.00    +0.000 A 
ATOM      7  C   UNL     1     106.491 125.019 147.642  0.00  0.00    +0.000 A 
ATOM      8  C   UNL     1     106.665 124.659 148.362  0.00  0.00    +0.000 A 
ATOM      9  C   UNL     1     107.443 124.636 148.635  0.00  0.00    +0.000 A 
ATOM     10  C   UNL     1     108.048 124.974 148.185  0.00  0.00    +0.000 A 
ATOM     11  C   UNL     1     107.874 125.334 147.464  0.00  0.00    +0.000 A 
ATOM     12  C   UNL     1     107.618 124.276 149.357  0.00  0.00    +0.000 C 
ENDROOT
BRANCH   4  13
ATOM     13  C   UNL     1     105.969 126.099 145.476  0.00  0.00    +0.000 A 
ATOM     14  C   UNL     1     105.935 125.647 144.787  0.00  0.00    +0.000 A 
ATOM     15  C   UNL     1     105.761 126.006 144.065  0.00  0.00    +0.000 A 
ATOM     16  C   UNL     1     105.620 126.819 144.033  0.00  0.00    +0.000 A 
ATOM     17  C   UNL     1     105.654 127.272 144.722  0.00  0.00    +0.000 A 
ATOM     18  C   UNL     1     105.829 126.911 145.444  0.00  0.00    +0.000 A 
BRANCH  16  19
ATOM     19  O   UNL     1     105.446 127.179 143.311  0.00  0.00    +0.000 OA
ATOM     20  C   UNL     1     105.301 127.989 143.278  0.00  0.00    +0.000 C 
ENDBRANCH  16  19
BRANCH  15  21
ATOM     21  O   UNL     1     105.727 125.555 143.377  0.00  0.00    +0.000 OA
ATOM     22  C   UNL     1     105.870 124.742 143.409  0.00  0.00    +0.000 C 
ENDBRANCH  15  21
ENDBRANCH   4  13
BRANCH   1  23
ATOM     23  CA  UNL     1     104.330 124.726 147.545  0.00  0.00    +0.000 C 
BRANCH  23  24
ATOM     24  C   UNL     1     103.777 125.212 147.918  0.00  0.00    +0.000 C 
ATOM     25  O   UNL     1     103.721 125.218 148.741  0.00  0.00    +0.000 OA
ATOM     26  OXT UNL     1     103.279 125.691 147.467  0.00  0.00    +0.000 OA
ENDBRANCH  23  24
BRANCH  23  28
ATOM     27  C   UNL     1     103.578 123.638 147.005  0.00  0.00    +0.000 C 
ATOM     28  C   UNL     1     104.105 124.264 146.900  0.00  0.00    +0.000 C 
ENDBRANCH  23  28
ENDBRANCH   1  23
TORSDOF 6
ENDMDL
MODEL 5
REMARK VINA RESULT:      -7.9     10.380     12.708
REMARK  Name = null
REMARK  6 active torsions:
REMARK  status: ('A' for Active; 'I' for Inactive)
REMARK    1  A    between atoms: C_2  and  CA_3
REMARK    2  A    between atoms: CA_3  and  C_4
REMARK    3  A    between atoms: CA_3  and  N_7
REMARK    4  A    between atoms: C_10  and  C_19
REMARK    5  A    between atoms: C_21  and  O_27
REMARK    6  A    between atoms: C_22  and  O_25
REMARK                            x       y       z     vdW  Elec       q    Type
REMARK                         _______ _______ _______ _____ _____    ______ ____
ROOT
ATOM      1  N   UNL     1     113.464 127.210 136.461  0.00  0.00    +0.000 NA
ATOM      2  C   UNL     1     113.544 126.698 137.103  0.00  0.00    +0.000 A 
ATOM      3  C   UNL     1     113.145 126.857 137.808  0.00  0.00    +0.000 A 
ATOM      4  C   UNL     1     113.225 126.344 138.451  0.00  0.00    +0.000 A 
ATOM      5  O   UNL     1     113.702 125.674 138.387  0.00  0.00    +0.000 OA
ATOM      6  C   UNL     1     114.100 125.515 137.682  0.00  0.00    +0.000 A 
ATOM      7  C   UNL     1     114.021 126.028 137.039  0.00  0.00    +0.000 A 
ATOM      8  C   UNL     1     114.419 125.871 136.334  0.00  0.00    +0.000 A 
ATOM      9  C   UNL     1     114.896 125.201 136.271  0.00  0.00    +0.000 A 
ATOM     10  C   UNL     1     114.975 124.688 136.913  0.00  0.00    +0.000 A 
ATOM     11  C   UNL     1     114.577 124.846 137.618  0.00  0.00    +0.000 A 
ATOM     12  C   UNL     1     115.294 125.043 135.566  0.00  0.00    +0.000 C 
ENDROOT
BRANCH   4  13
ATOM     13  C   UNL     1     112.827 126.501 139.155  0.00  0.00    +0.000 A 
ATOM     14  C   UNL     1     113.225 126.861 139.782  0.00  0.00    +0.000 A 
ATOM     15  C   UNL     1     112.828 127.019 140.488  0.00  0.00    +0.000 A 
ATOM     16  C   UNL     1     112.031 126.817 140.566  0.00  0.00    +0.000 A 
ATOM     17  C   UNL     1     111.633 126.458 139.939  0.00  0.00    +0.000 A 
ATOM     18  C   UNL     1     112.031 126.301 139.234  0.00  0.00    +0.000 A 
BRANCH  16  19
ATOM     19  O   UNL     1     111.634 126.976 141.271  0.00  0.00    +0.000 OA
ATOM     20  C   UNL     1     110.831 126.804 141.340  0.00  0.00    +0.000 C 
ENDBRANCH  16  19
BRANCH  15  21
ATOM     21  O   UNL     1     113.226 127.377 141.114  0.00  0.00    +0.000 OA
ATOM     22  C   UNL     1     114.016 127.602 141.027  0.00  0.00    +0.000 C 
ENDBRANCH  15  21
ENDBRANCH   4  13
BRANCH   1  23
ATOM     23  CA  UNL     1     112.987 127.881 136.525  0.00  0.00    +0.000 C 
BRANCH  23  24
ATOM     24  C   UNL     1     113.331 128.626 136.609  0.00  0.00    +0.000 C 
ATOM     25  O   UNL     1     113.041 129.154 137.172  0.00  0.00    +0.000 OA
ATOM     26  OXT UNL     1     113.967 128.841 136.129  0.00  0.00    +0.000 OA
ENDBRANCH  23  24
BRANCH  23  28
ATOM     27  C   UNL     1     111.753 127.979 135.811  0.00  0.00    +0.000 C 
ATOM     28  C   UNL     1     112.166 127.806 136.504  0.00  0.00    +0.000 C 
ENDBRANCH  23  28
ENDBRANCH   1  23
TORSDOF 6
ENDMDL
MODEL 6
REMARK VINA RESULT:      -7.8     12.861     14.557
REMARK  Name = null
REMARK  6 active torsions:
REMARK  status: ('A' for Active; 'I' for Inactive)
REMARK    1  A    between atoms: C_2  and  CA_3
REMARK    2  A    between atoms: CA_3  and  C_4
REMARK    3  A    between atoms: CA_3  and  N_7
REMARK    4  A    between atoms: C_10  and  C_19
REMARK    5  A    between atoms: C_21  and  O_27
REMARK    6  A    between atoms: C_22  and  O_25
REMARK                            x       y       z     vdW  Elec       q    Type
REMARK                         _______ _______ _______ _____ _____    ______ ____
ROOT
ATOM      1  N   UNL     1     113.702 130.363 137.054  0.00  0.00    +0.000 NA
ATOM      2  C   UNL     1     113.807 129.725 136.542  0.00  0.00    +0.000 A 
ATOM      3  C   UNL     1     113.400 129.019 136.674  0.00  0.00    +0.000 A 
ATOM      4  C   UNL     1     113.505 128.380 136.161  0.00  0.00    +0.000 A 
ATOM      5  O   UNL     1     114.018 128.448 135.518  0.00  0.00    +0.000 OA
ATOM      6  C   UNL     1     114.425 129.154 135.386  0.00  0.00    +0.000 A 
ATOM      7  C   UNL     1     114.320 129.793 135.899  0.00  0.00    +0.000 A 
ATOM      8  C   UNL     1     114.727 130.498 135.767  0.00  0.00    +0.000 A 
ATOM      9  C   UNL     1     115.239 130.565 135.125  0.00  0.00    +0.000 A 
ATOM     10  C   UNL     1     115.344 129.926 134.612  0.00  0.00    +0.000 A 
ATOM     11  C   UNL     1     114.937 129.221 134.744  0.00  0.00    +0.000 A 
ATOM     12  C   UNL     1     115.646 131.270 134.993  0.00  0.00    +0.000 C 
ENDROOT
BRANCH   4  13
ATOM     13  C   UNL     1     113.099 127.675 136.293  0.00  0.00    +0.000 A 
ATOM     14  C   UNL     1     113.449 127.074 136.735  0.00  0.00    +0.000 A 
ATOM     15  C   UNL     1     113.043 126.368 136.867  0.00  0.00    +0.000 A 
ATOM     16  C   UNL     1     112.285 126.264 136.556  0.00  0.00    +0.000 A 
ATOM     17  C   UNL     1     111.935 126.866 136.113  0.00  0.00    +0.000 A 
ATOM     18  C   UNL     1     112.342 127.572 135.982  0.00  0.00    +0.000 A 
BRANCH  16  19
ATOM     19  O   UNL     1     111.879 125.559 136.688  0.00  0.00    +0.000 OA
ATOM     20  C   UNL     1     111.158 125.421 136.312  0.00  0.00    +0.000 C 
ENDBRANCH  16  19
BRANCH  15  21
ATOM     21  O   UNL     1     113.392 125.767 137.309  0.00  0.00    +0.000 OA
ATOM     22  C   UNL     1     114.215 125.727 137.373  0.00  0.00    +0.000 C 
ENDBRANCH  15  21
ENDBRANCH   4  13
BRANCH   1  23
ATOM     23  CA  UNL     1     113.189 130.296 137.697  0.00  0.00    +0.000 C 
BRANCH  23  24
ATOM     24  C   UNL     1     113.494 130.221 138.460  0.00  0.00    +0.000 C 
ATOM     25  O   UNL     1     113.182 129.657 138.976  0.00  0.00    +0.000 OA
ATOM     26  OXT UNL     1     114.110 130.711 138.707  0.00  0.00    +0.000 OA
ENDBRANCH  23  24
BRANCH  23  28
ATOM     27  C   UNL     1     111.938 130.984 137.746  0.00  0.00    +0.000 C 
ATOM     28  C   UNL     1     112.374 130.304 137.577  0.00  0.00    +0.000 C 
ENDBRANCH  23  28
ENDBRANCH   1  23
TORSDOF 6
ENDMDL
MODEL 7
REMARK VINA RESULT:      -7.7     11.565     13.560
REMARK  Name = null
REMARK  6 active torsions:
REMARK  status: ('A' for Active; 'I' for Inactive)
REMARK    1  A    between atoms: C_2  and  CA_3
REMARK    2  A    between atoms: CA_3  and  C_4
REMARK    3  A    between atoms: CA_3  and  N_7
REMARK    4  A    between atoms: C_10  and  C_19
REMARK    5  A    between atoms: C_21  and  O_27
REMARK    6  A    between atoms: C_22  and  O_25
REMARK                            x       y       z     vdW  Elec       q    Type
REMARK                         _______ _______ _______ _____ _____    ______ ____
ROOT
ATOM      1  N   UNL     1     112.732 128.934 137.862  0.00  0.00    +0.000 NA
ATOM      2  C   UNL     1     112.952 128.449 137.232  0.00  0.00    +0.000 A 
ATOM      3  C   UNL     1     112.676 127.672 137.196  0.00  0.00    +0.000 A 
ATOM      4  C   UNL     1     112.897 127.185 136.565  0.00  0.00    +0.000 A 
ATOM      5  O   UNL     1     113.392 127.477 135.973  0.00  0.00    +0.000 OA
ATOM      6  C   UNL     1     113.667 128.254 136.010  0.00  0.00    +0.000 A 
ATOM      7  C   UNL     1     113.447 128.740 136.640  0.00  0.00    +0.000 A 
ATOM      8  C   UNL     1     113.722 129.517 136.677  0.00  0.00    +0.000 A 
ATOM      9  C   UNL     1     114.216 129.808 136.085  0.00  0.00    +0.000 A 
ATOM     10  C   UNL     1     114.437 129.321 135.455  0.00  0.00    +0.000 A 
ATOM     11  C   UNL     1     114.162 128.545 135.418  0.00  0.00    +0.000 A 
ATOM     12  C   UNL     1     114.492 130.585 136.122  0.00  0.00    +0.000 C 
ENDROOT
BRANCH   4  13
ATOM     13  C   UNL     1     112.622 126.409 136.529  0.00  0.00    +0.000 A 
ATOM     14  C   UNL     1     111.931 126.236 136.113  0.00  0.00    +0.000 A 
ATOM     15  C   UNL     1     111.655 125.459 136.075  0.00  0.00    +0.000 A 
ATOM     16  C   UNL     1     112.071 124.855 136.454  0.00  0.00    +0.000 A 
ATOM     17  C   UNL     1     112.763 125.028 136.870  0.00  0.00    +0.000 A 
ATOM     18  C   UNL     1     113.037 125.806 136.907  0.00  0.00    +0.000 A 
BRANCH  16  19
ATOM     19  O   UNL     1     111.796 124.079 136.417  0.00  0.00    +0.000 OA
ATOM     20  C   UNL     1     112.130 123.498 136.897  0.00  0.00    +0.000 C 
ENDBRANCH  16  19
BRANCH  15  21
ATOM     21  O   UNL     1     110.965 125.286 135.660  0.00  0.00    +0.000 OA
ATOM     22  C   UNL     1     110.615 125.861 135.182  0.00  0.00    +0.000 C 
ENDBRANCH  15  21
ENDBRANCH   4  13
BRANCH   1  23
ATOM     23  CA  UNL     1     112.236 128.643 138.454  0.00  0.00    +0.000 C 
BRANCH  23  24
ATOM     24  C   UNL     1     111.444 128.874 138.479  0.00  0.00    +0.000 C 
ATOM     25  O   UNL     1     111.240 129.663 138.355  0.00  0.00    +0.000 OA
ATOM     26  OXT UNL     1     110.858 128.314 138.629  0.00  0.00    +0.000 OA
ENDBRANCH  23  24
BRANCH  23  28
ATOM     27  C   UNL     1     112.722 128.397 139.775  0.00  0.00    +0.000 C 
ATOM     28  C   UNL     1     112.532 128.123 139.021  0.00  0.00    +0.000 C 
ENDBRANCH  23  28
ENDBRANCH   1  23
TORSDOF 6
ENDMDL
