MODEL 1
REMARK VINA RESULT:     -10.6      0.000      0.000
REMARK  Name = 44257951
REMARK  8 active torsions:
REMARK  status: ('A' for Active; 'I' for Inactive)
REMARK    1  A    between atoms: O_2  and  C_15
REMARK    2  A    between atoms: O_2  and  C_27
REMARK    3  A    between atoms: O_13  and  C_42
REMARK    4  A    between atoms: C_17  and  C_20
REMARK    5  A    between atoms: C_19  and  C_21
REMARK    6  A    between atoms: C_27  and  C_31
REMARK    7  A    between atoms: C_29  and  C_32
REMARK    8  A    between atoms: C_33  and  C_36
REMARK                            x       y       z     vdW  Elec       q    Type
REMARK                         _______ _______ _______ _____ _____    ______ ____
ROOT
ATOM      1  O   UNL     1     110.855 125.773 136.221  0.00  0.00    +0.000 OA
ATOM      2  O   UNL     1     109.849 126.292 138.422  0.00  0.00    +0.000 OA
ATOM      3  O   UNL     1     109.019 126.628 137.035  0.00  0.00    +0.000 OA
ATOM      4  C   UNL     1     110.934 125.778 137.648  0.00  0.00    +0.000 C 
ATOM      5  C   UNL     1     110.184 126.119 137.688  0.00  0.00    +0.000 C 
ATOM      6  C   UNL     1     111.270 125.605 136.915  0.00  0.00    +0.000 C 
ATOM      7  C   UNL     1     109.770 126.287 136.995  0.00  0.00    +0.000 C 
ATOM      8  C   UNL     1     110.105 126.114 136.261  0.00  0.00    +0.000 C 
ENDROOT
BRANCH   6  13
ATOM      9  O   UNL     1     112.577 126.586 136.648  0.00  0.00    +0.000 OA
ATOM     10  O   UNL     1     111.446 123.975 137.100  0.00  0.00    +0.000 OA
ATOM     11  O   UNL     1     114.271 124.241 136.755  0.00  0.00    +0.000 OA
ATOM     12  O   UNL     1     114.876 125.531 136.527  0.00  0.00    +0.000 OA
ATOM     13  C   UNL     1     112.020 125.264 136.875  0.00  0.00    +0.000 A 
ATOM     14  C   UNL     1     112.682 125.739 136.743  0.00  0.00    +0.000 A 
ATOM     15  C   UNL     1     112.108 124.449 136.967  0.00  0.00    +0.000 A 
ATOM     16  C   UNL     1     113.433 125.398 136.703  0.00  0.00    +0.000 A 
ATOM     17  C   UNL     1     112.859 124.108 136.927  0.00  0.00    +0.000 A 
ATOM     18  C   UNL     1     113.520 124.582 136.795  0.00  0.00    +0.000 A 
ATOM     19  C   UNL     1     114.130 125.880 136.565  0.00  0.00    +0.000 A 
ATOM     20  C   UNL     1     113.263 127.085 136.510  0.00  0.00    +0.000 A 
ATOM     21  C   UNL     1     114.045 126.730 136.468  0.00  0.00    +0.000 A 
BRANCH  20  24
ATOM     22  O   UNL     1     112.701 129.340 134.846  0.00  0.00    +0.000 OA
ATOM     23  O   UNL     1     112.899 130.344 136.141  0.00  0.00    +0.000 OA
ATOM     24  C   UNL     1     113.172 127.900 136.418  0.00  0.00    +0.000 A 
ATOM     25  C   UNL     1     112.982 128.212 135.678  0.00  0.00    +0.000 A 
ATOM     26  C   UNL     1     113.271 128.402 137.064  0.00  0.00    +0.000 A 
ATOM     27  C   UNL     1     112.891 129.027 135.585  0.00  0.00    +0.000 A 
ATOM     28  C   UNL     1     113.180 129.216 136.972  0.00  0.00    +0.000 A 
ATOM     29  C   UNL     1     112.990 129.529 136.233  0.00  0.00    +0.000 A 
ENDBRANCH  20  24
ENDBRANCH   6  13
BRANCH   8  31
ATOM     30  O   UNL     1     109.732 125.762 134.927  0.00  0.00    +0.000 OA
ATOM     31  C   UNL     1     109.691 126.281 135.568  0.00  0.00    +0.000 C 
ENDBRANCH   8  31
BRANCH   4  32
ATOM     32  O   UNL     1     111.349 125.611 138.342  0.00  0.00    +0.000 OA
BRANCH  32  34
ATOM     33  O   UNL     1     110.448 125.588 139.451  0.00  0.00    +0.000 OA
ATOM     34  C   UNL     1     111.093 125.923 139.061  0.00  0.00    +0.000 C 
BRANCH  34  35
ATOM     35  C   UNL     1     111.482 126.573 139.390  0.00  0.00    +0.000 C 
ATOM     36  C   UNL     1     111.956 126.475 140.058  0.00  0.00    +0.000 C 
BRANCH  36  38
ATOM     37  O   UNL     1     113.511 129.072 141.372  0.00  0.00    +0.000 OA
ATOM     38  C   UNL     1     112.345 127.124 140.386  0.00  0.00    +0.000 A 
ATOM     39  C   UNL     1     113.166 127.121 140.457  0.00  0.00    +0.000 A 
ATOM     40  C   UNL     1     111.912 127.777 140.645  0.00  0.00    +0.000 A 
ATOM     41  C   UNL     1     113.556 127.769 140.785  0.00  0.00    +0.000 A 
ATOM     42  C   UNL     1     112.301 128.425 140.973  0.00  0.00    +0.000 A 
ATOM     43  C   UNL     1     113.122 128.422 141.043  0.00  0.00    +0.000 A 
BRANCH  41  44
ATOM     44  O   UNL     1     114.378 127.766 140.855  0.00  0.00    +0.000 OA
ATOM     45  C   UNL     1     114.791 127.053 140.824  0.00  0.00    +0.000 C 
ENDBRANCH  41  44
ENDBRANCH  36  38
ENDBRANCH  34  35
ENDBRANCH  32  34
ENDBRANCH   4  32
TORSDOF 8
ENDMDL
MODEL 2
REMARK VINA RESULT:     -10.5      1.238      3.314
REMARK  Name = 44257951
REMARK  8 active torsions:
REMARK  status: ('A' for Active; 'I' for Inactive)
REMARK    1  A    between atoms: O_2  and  C_15
REMARK    2  A    between atoms: O_2  and  C_27
REMARK    3  A    between atoms: O_13  and  C_42
REMARK    4  A    between atoms: C_17  and  C_20
REMARK    5  A    between atoms: C_19  and  C_21
REMARK    6  A    between atoms: C_27  and  C_31
REMARK    7  A    between atoms: C_29  and  C_32
REMARK    8  A    between atoms: C_33  and  C_36
REMARK                            x       y       z     vdW  Elec       q    Type
REMARK                         _______ _______ _______ _____ _____    ______ ____
ROOT
ATOM      1  O   UNL     1     113.311 127.501 136.043  0.00  0.00    +0.000 OA
ATOM      2  O   UNL     1     113.032 128.579 138.253  0.00  0.00    +0.000 OA
ATOM      3  O   UNL     1     113.194 129.507 136.897  0.00  0.00    +0.000 OA
ATOM      4  C   UNL     1     113.137 127.397 137.457  0.00  0.00    +0.000 C 
ATOM      5  C   UNL     1     113.125 128.220 137.516  0.00  0.00    +0.000 C 
ATOM      6  C   UNL     1     113.230 127.037 136.721  0.00  0.00    +0.000 C 
ATOM      7  C   UNL     1     113.206 128.683 136.839  0.00  0.00    +0.000 C 
ATOM      8  C   UNL     1     113.299 128.324 136.102  0.00  0.00    +0.000 C 
ENDROOT
BRANCH   6  13
ATOM      9  O   UNL     1     111.812 126.240 136.411  0.00  0.00    +0.000 OA
ATOM     10  O   UNL     1     114.649 126.218 136.912  0.00  0.00    +0.000 OA
ATOM     11  O   UNL     1     113.279 123.746 136.487  0.00  0.00    +0.000 OA
ATOM     12  O   UNL     1     111.858 123.715 136.233  0.00  0.00    +0.000 OA
ATOM     13  C   UNL     1     113.242 126.215 136.663  0.00  0.00    +0.000 A 
ATOM     14  C   UNL     1     112.544 125.802 136.509  0.00  0.00    +0.000 A 
ATOM     15  C   UNL     1     113.951 125.805 136.758  0.00  0.00    +0.000 A 
ATOM     16  C   UNL     1     112.557 124.979 136.450  0.00  0.00    +0.000 A 
ATOM     17  C   UNL     1     113.964 124.982 136.699  0.00  0.00    +0.000 A 
ATOM     18  C   UNL     1     113.267 124.570 136.545  0.00  0.00    +0.000 A 
ATOM     19  C   UNL     1     111.837 124.538 136.290  0.00  0.00    +0.000 A 
ATOM     20  C   UNL     1     111.082 125.816 136.251  0.00  0.00    +0.000 A 
ATOM     21  C   UNL     1     111.095 124.959 136.190  0.00  0.00    +0.000 A 
BRANCH  20  24
ATOM     22  O   UNL     1     108.713 126.956 137.372  0.00  0.00    +0.000 OA
ATOM     23  O   UNL     1     108.249 127.465 135.872  0.00  0.00    +0.000 OA
ATOM     24  C   UNL     1     110.374 126.228 136.156  0.00  0.00    +0.000 A 
ATOM     25  C   UNL     1     109.898 126.385 136.811  0.00  0.00    +0.000 A 
ATOM     26  C   UNL     1     110.141 126.483 135.407  0.00  0.00    +0.000 A 
ATOM     27  C   UNL     1     109.189 126.798 136.717  0.00  0.00    +0.000 A 
ATOM     28  C   UNL     1     109.434 126.895 135.312  0.00  0.00    +0.000 A 
ATOM     29  C   UNL     1     108.957 127.053 135.967  0.00  0.00    +0.000 A 
ENDBRANCH  20  24
ENDBRANCH   6  13
BRANCH   8  31
ATOM     30  O   UNL     1     112.808 128.752 134.830  0.00  0.00    +0.000 OA
ATOM     31  C   UNL     1     113.380 128.786 135.424  0.00  0.00    +0.000 C 
ENDBRANCH   8  31
BRANCH   4  32
ATOM     32  O   UNL     1     113.056 126.934 138.136  0.00  0.00    +0.000 OA
BRANCH  32  34
ATOM     33  O   UNL     1     113.684 127.684 139.178  0.00  0.00    +0.000 OA
ATOM     34  C   UNL     1     113.022 127.292 138.878  0.00  0.00    +0.000 C 
BRANCH  34  35
ATOM     35  C   UNL     1     112.326 127.259 139.321  0.00  0.00    +0.000 C 
ATOM     36  C   UNL     1     112.293 126.794 140.001  0.00  0.00    +0.000 C 
BRANCH  36  38
ATOM     37  O   UNL     1     109.510 126.661 141.770  0.00  0.00    +0.000 OA
ATOM     38  C   UNL     1     111.597 126.761 140.444  0.00  0.00    +0.000 A 
ATOM     39  C   UNL     1     111.542 127.168 141.158  0.00  0.00    +0.000 A 
ATOM     40  C   UNL     1     110.956 126.319 140.171  0.00  0.00    +0.000 A 
ATOM     41  C   UNL     1     110.847 127.135 141.600  0.00  0.00    +0.000 A 
ATOM     42  C   UNL     1     110.260 126.286 140.613  0.00  0.00    +0.000 A 
ATOM     43  C   UNL     1     110.206 126.694 141.327  0.00  0.00    +0.000 A 
BRANCH  41  44
ATOM     44  O   UNL     1     110.793 127.543 142.315  0.00  0.00    +0.000 OA
ATOM     45  C   UNL     1     111.195 128.257 142.414  0.00  0.00    +0.000 C 
ENDBRANCH  41  44
ENDBRANCH  36  38
ENDBRANCH  34  35
ENDBRANCH  32  34
ENDBRANCH   4  32
TORSDOF 8
ENDMDL
MODEL 3
REMARK VINA RESULT:     -10.2      1.184      3.497
REMARK  Name = 44257951
REMARK  8 active torsions:
REMARK  status: ('A' for Active; 'I' for Inactive)
REMARK    1  A    between atoms: O_2  and  C_15
REMARK    2  A    between atoms: O_2  and  C_27
REMARK    3  A    between atoms: O_13  and  C_42
REMARK    4  A    between atoms: C_17  and  C_20
REMARK    5  A    between atoms: C_19  and  C_21
REMARK    6  A    between atoms: C_27  and  C_31
REMARK    7  A    between atoms: C_29  and  C_32
REMARK    8  A    between atoms: C_33  and  C_36
REMARK                            x       y       z     vdW  Elec       q    Type
REMARK                         _______ _______ _______ _____ _____    ______ ____
ROOT
ATOM      1  O   UNL     1     110.824 125.574 138.364  0.00  0.00    +0.000 OA
ATOM      2  O   UNL     1     109.964 127.507 137.080  0.00  0.00    +0.000 OA
ATOM      3  O   UNL     1     109.178 127.006 138.441  0.00  0.00    +0.000 OA
ATOM      4  C   UNL     1     110.930 126.469 137.255  0.00  0.00    +0.000 C 
ATOM      5  C   UNL     1     110.250 126.863 137.508  0.00  0.00    +0.000 C 
ATOM      6  C   UNL     1     111.217 125.825 137.683  0.00  0.00    +0.000 C 
ATOM      7  C   UNL     1     109.858 126.612 138.188  0.00  0.00    +0.000 C 
ATOM      8  C   UNL     1     110.144 125.967 138.617  0.00  0.00    +0.000 C 
ENDROOT
BRANCH   6  13
ATOM      9  O   UNL     1     112.663 126.192 138.401  0.00  0.00    +0.000 OA
ATOM     10  O   UNL     1     111.118 124.697 136.483  0.00  0.00    +0.000 OA
ATOM     11  O   UNL     1     113.935 124.250 136.672  0.00  0.00    +0.000 OA
ATOM     12  O   UNL     1     114.744 124.979 137.619  0.00  0.00    +0.000 OA
ATOM     13  C   UNL     1     111.896 125.432 137.430  0.00  0.00    +0.000 A 
ATOM     14  C   UNL     1     112.625 125.602 137.777  0.00  0.00    +0.000 A 
ATOM     15  C   UNL     1     111.847 124.867 136.831  0.00  0.00    +0.000 A 
ATOM     16  C   UNL     1     113.305 125.209 137.525  0.00  0.00    +0.000 A 
ATOM     17  C   UNL     1     112.527 124.474 136.578  0.00  0.00    +0.000 A 
ATOM     18  C   UNL     1     113.255 124.644 136.925  0.00  0.00    +0.000 A 
ATOM     19  C   UNL     1     114.069 125.377 137.878  0.00  0.00    +0.000 A 
ATOM     20  C   UNL     1     113.420 126.374 138.767  0.00  0.00    +0.000 A 
ATOM     21  C   UNL     1     114.127 125.965 138.503  0.00  0.00    +0.000 A 
BRANCH  20  24
ATOM     22  O   UNL     1     113.639 129.105 139.583  0.00  0.00    +0.000 OA
ATOM     23  O   UNL     1     113.605 128.634 141.164  0.00  0.00    +0.000 OA
ATOM     24  C   UNL     1     113.466 126.939 139.366  0.00  0.00    +0.000 A 
ATOM     25  C   UNL     1     113.529 127.739 139.174  0.00  0.00    +0.000 A 
ATOM     26  C   UNL     1     113.449 126.705 140.157  0.00  0.00    +0.000 A 
ATOM     27  C   UNL     1     113.575 128.305 139.774  0.00  0.00    +0.000 A 
ATOM     28  C   UNL     1     113.496 127.269 140.755  0.00  0.00    +0.000 A 
ATOM     29  C   UNL     1     113.559 128.069 140.564  0.00  0.00    +0.000 A 
ENDBRANCH  20  24
ENDBRANCH   6  13
BRANCH   8  31
ATOM     30  O   UNL     1     110.164 125.307 139.884  0.00  0.00    +0.000 OA
ATOM     31  C   UNL     1     109.752 125.717 139.297  0.00  0.00    +0.000 C 
ENDBRANCH   8  31
BRANCH   4  32
ATOM     32  O   UNL     1     111.323 126.720 136.574  0.00  0.00    +0.000 OA
BRANCH  32  34
ATOM     33  O   UNL     1     110.473 127.582 135.815  0.00  0.00    +0.000 OA
ATOM     34  C   UNL     1     111.160 127.463 136.255  0.00  0.00    +0.000 C 
BRANCH  34  35
ATOM     35  C   UNL     1     111.686 128.088 136.375  0.00  0.00    +0.000 C 
ATOM     36  C   UNL     1     112.125 128.385 135.743  0.00  0.00    +0.000 C 
BRANCH  36  38
ATOM     37  O   UNL     1     114.226 130.883 136.226  0.00  0.00    +0.000 OA
ATOM     38  C   UNL     1     112.651 129.010 135.864  0.00  0.00    +0.000 A 
ATOM     39  C   UNL     1     113.430 128.950 135.602  0.00  0.00    +0.000 A 
ATOM     40  C   UNL     1     112.396 129.695 136.247  0.00  0.00    +0.000 A 
ATOM     41  C   UNL     1     113.955 129.574 135.722  0.00  0.00    +0.000 A 
ATOM     42  C   UNL     1     112.921 130.319 136.367  0.00  0.00    +0.000 A 
ATOM     43  C   UNL     1     113.700 130.258 136.105  0.00  0.00    +0.000 A 
BRANCH  41  44
ATOM     44  O   UNL     1     114.735 129.513 135.460  0.00  0.00    +0.000 OA
ATOM     45  C   UNL     1     114.901 129.148 134.740  0.00  0.00    +0.000 C 
ENDBRANCH  41  44
ENDBRANCH  36  38
ENDBRANCH  34  35
ENDBRANCH  32  34
ENDBRANCH   4  32
TORSDOF 8
ENDMDL
MODEL 4
REMARK VINA RESULT:     -10.2      2.569      5.048
REMARK  Name = 44257951
REMARK  8 active torsions:
REMARK  status: ('A' for Active; 'I' for Inactive)
REMARK    1  A    between atoms: O_2  and  C_15
REMARK    2  A    between atoms: O_2  and  C_27
REMARK    3  A    between atoms: O_13  and  C_42
REMARK    4  A    between atoms: C_17  and  C_20
REMARK    5  A    between atoms: C_19  and  C_21
REMARK    6  A    between atoms: C_27  and  C_31
REMARK    7  A    between atoms: C_29  and  C_32
REMARK    8  A    between atoms: C_33  and  C_36
REMARK                            x       y       z     vdW  Elec       q    Type
REMARK                         _______ _______ _______ _____ _____    ______ ____
ROOT
ATOM      1  O   UNL     1     109.802 131.112 136.880  0.00  0.00    +0.000 OA
ATOM      2  O   UNL     1     108.548 129.699 135.281  0.00  0.00    +0.000 OA
ATOM      3  O   UNL     1     108.975 131.238 134.863  0.00  0.00    +0.000 OA
ATOM      4  C   UNL     1     109.171 129.872 136.555  0.00  0.00    +0.000 C 
ATOM      5  C   UNL     1     108.966 130.170 135.814  0.00  0.00    +0.000 C 
ATOM      6  C   UNL     1     109.589 130.343 137.088  0.00  0.00    +0.000 C 
ATOM      7  C   UNL     1     109.180 130.939 135.605  0.00  0.00    +0.000 C 
ATOM      8  C   UNL     1     109.598 131.410 136.138  0.00  0.00    +0.000 C 
ENDROOT
BRANCH   6  13
ATOM      9  O   UNL     1     111.119 129.751 137.314  0.00  0.00    +0.000 OA
ATOM     10  O   UNL     1     108.481 130.344 138.311  0.00  0.00    +0.000 OA
ATOM     11  O   UNL     1     110.406 129.150 140.055  0.00  0.00    +0.000 OA
ATOM     12  O   UNL     1     111.738 128.838 139.593  0.00  0.00    +0.000 OA
ATOM     13  C   UNL     1     109.793 130.045 137.829  0.00  0.00    +0.000 A 
ATOM     14  C   UNL     1     110.551 129.746 137.959  0.00  0.00    +0.000 A 
ATOM     15  C   UNL     1     109.240 130.045 138.441  0.00  0.00    +0.000 A 
ATOM     16  C   UNL     1     110.756 129.448 138.701  0.00  0.00    +0.000 A 
ATOM     17  C   UNL     1     109.444 129.747 139.183  0.00  0.00    +0.000 A 
ATOM     18  C   UNL     1     110.202 129.448 139.312  0.00  0.00    +0.000 A 
ATOM     19  C   UNL     1     111.542 129.134 138.849  0.00  0.00    +0.000 A 
ATOM     20  C   UNL     1     111.910 129.441 137.443  0.00  0.00    +0.000 A 
ATOM     21  C   UNL     1     112.123 129.131 138.215  0.00  0.00    +0.000 A 
BRANCH  20  24
ATOM     22  O   UNL     1     113.995 130.752 135.992  0.00  0.00    +0.000 OA
ATOM     23  O   UNL     1     114.117 129.446 134.990  0.00  0.00    +0.000 OA
ATOM     24  C   UNL     1     112.462 129.442 136.830  0.00  0.00    +0.000 A 
ATOM     25  C   UNL     1     112.952 130.096 136.718  0.00  0.00    +0.000 A 
ATOM     26  C   UNL     1     112.524 128.790 136.329  0.00  0.00    +0.000 A 
ATOM     27  C   UNL     1     113.505 130.098 136.105  0.00  0.00    +0.000 A 
ATOM     28  C   UNL     1     113.075 128.792 135.716  0.00  0.00    +0.000 A 
ATOM     29  C   UNL     1     113.565 129.445 135.604  0.00  0.00    +0.000 A 
ENDBRANCH  20  24
ENDBRANCH   6  13
BRANCH   8  31
ATOM     30  O   UNL     1     109.858 132.766 136.509  0.00  0.00    +0.000 OA
ATOM     31  C   UNL     1     109.812 132.179 135.930  0.00  0.00    +0.000 C 
ENDBRANCH   8  31
BRANCH   4  32
ATOM     32  O   UNL     1     108.957 129.103 136.764  0.00  0.00    +0.000 OA
BRANCH  32  34
ATOM     33  O   UNL     1     108.028 128.628 135.787  0.00  0.00    +0.000 OA
ATOM     34  C   UNL     1     108.751 128.559 136.179  0.00  0.00    +0.000 C 
BRANCH  34  35
ATOM     35  C   UNL     1     109.270 127.946 135.985  0.00  0.00    +0.000 C 
ATOM     36  C   UNL     1     109.094 127.172 136.210  0.00  0.00    +0.000 C 
BRANCH  36  38
ATOM     37  O   UNL     1     111.166 124.723 135.435  0.00  0.00    +0.000 OA
ATOM     38  C   UNL     1     109.613 126.559 136.016  0.00  0.00    +0.000 A 
ATOM     39  C   UNL     1     110.075 126.210 136.602  0.00  0.00    +0.000 A 
ATOM     40  C   UNL     1     109.667 126.298 135.236  0.00  0.00    +0.000 A 
ATOM     41  C   UNL     1     110.593 125.598 136.409  0.00  0.00    +0.000 A 
ATOM     42  C   UNL     1     110.185 125.685 135.043  0.00  0.00    +0.000 A 
ATOM     43  C   UNL     1     110.648 125.336 135.629  0.00  0.00    +0.000 A 
BRANCH  41  44
ATOM     44  O   UNL     1     111.056 125.248 136.996  0.00  0.00    +0.000 OA
ATOM     45  C   UNL     1     111.021 125.528 137.770  0.00  0.00    +0.000 C 
ENDBRANCH  41  44
ENDBRANCH  36  38
ENDBRANCH  34  35
ENDBRANCH  32  34
ENDBRANCH   4  32
TORSDOF 8
ENDMDL
MODEL 5
REMARK VINA RESULT:     -10.1      1.807      3.015
REMARK  Name = 44257951
REMARK  8 active torsions:
REMARK  status: ('A' for Active; 'I' for Inactive)
REMARK    1  A    between atoms: O_2  and  C_15
REMARK    2  A    between atoms: O_2  and  C_27
REMARK    3  A    between atoms: O_13  and  C_42
REMARK    4  A    between atoms: C_17  and  C_20
REMARK    5  A    between atoms: C_19  and  C_21
REMARK    6  A    between atoms: C_27  and  C_31
REMARK    7  A    between atoms: C_29  and  C_32
REMARK    8  A    between atoms: C_33  and  C_36
REMARK                            x       y       z     vdW  Elec       q    Type
REMARK                         _______ _______ _______ _____ _____    ______ ____
ROOT
ATOM      1  O   UNL     1     111.888 126.357 137.054  0.00  0.00    +0.000 OA
ATOM      2  O   UNL     1     112.418 126.086 139.457  0.00  0.00    +0.000 OA
ATOM      3  O   UNL     1     111.195 125.211 138.778  0.00  0.00    +0.000 OA
ATOM      4  C   UNL     1     112.676 126.704 138.194  0.00  0.00    +0.000 C 
ATOM      5  C   UNL     1     112.241 126.176 138.656  0.00  0.00    +0.000 C 
ATOM      6  C   UNL     1     112.500 126.795 137.394  0.00  0.00    +0.000 C 
ATOM      7  C   UNL     1     111.630 125.739 138.316  0.00  0.00    +0.000 C 
ATOM      8  C   UNL     1     111.453 125.829 137.516  0.00  0.00    +0.000 C 
ENDROOT
BRANCH   6  13
ATOM      9  O   UNL     1     111.907 128.323 137.160  0.00  0.00    +0.000 OA
ATOM     10  O   UNL     1     113.930 126.319 136.725  0.00  0.00    +0.000 OA
ATOM     11  O   UNL     1     114.239 128.907 135.548  0.00  0.00    +0.000 OA
ATOM     12  O   UNL     1     113.247 129.937 135.743  0.00  0.00    +0.000 OA
ATOM     13  C   UNL     1     112.934 127.322 136.933  0.00  0.00    +0.000 A 
ATOM     14  C   UNL     1     112.653 128.088 136.806  0.00  0.00    +0.000 A 
ATOM     15  C   UNL     1     113.650 127.085 136.598  0.00  0.00    +0.000 A 
ATOM     16  C   UNL     1     113.088 128.616 136.345  0.00  0.00    +0.000 A 
ATOM     17  C   UNL     1     114.084 127.613 136.136  0.00  0.00    +0.000 A 
ATOM     18  C   UNL     1     113.804 128.378 136.010  0.00  0.00    +0.000 A 
ATOM     19  C   UNL     1     112.806 129.416 136.205  0.00  0.00    +0.000 A 
ATOM     20  C   UNL     1     111.609 129.120 137.032  0.00  0.00    +0.000 A 
ATOM     21  C   UNL     1     112.061 129.669 136.552  0.00  0.00    +0.000 A 
BRANCH  20  24
ATOM     22  O   UNL     1     108.760 129.318 136.900  0.00  0.00    +0.000 OA
ATOM     23  O   UNL     1     108.744 130.058 138.375  0.00  0.00    +0.000 OA
ATOM     24  C   UNL     1     110.893 129.354 137.368  0.00  0.00    +0.000 A 
ATOM     25  C   UNL     1     110.185 129.219 136.966  0.00  0.00    +0.000 A 
ATOM     26  C   UNL     1     110.884 129.724 138.105  0.00  0.00    +0.000 A 
ATOM     27  C   UNL     1     109.468 129.453 137.301  0.00  0.00    +0.000 A 
ATOM     28  C   UNL     1     110.168 129.959 138.440  0.00  0.00    +0.000 A 
ATOM     29  C   UNL     1     109.460 129.823 138.039  0.00  0.00    +0.000 A 
ENDBRANCH  20  24
ENDBRANCH   6  13
BRANCH   8  31
ATOM     30  O   UNL     1     110.889 125.163 136.384  0.00  0.00    +0.000 OA
ATOM     31  C   UNL     1     110.842 125.392 137.176  0.00  0.00    +0.000 C 
ENDBRANCH   8  31
BRANCH   4  32
ATOM     32  O   UNL     1     113.288 127.142 138.534  0.00  0.00    +0.000 OA
BRANCH  32  34
ATOM     33  O   UNL     1     113.671 126.471 139.736  0.00  0.00    +0.000 OA
ATOM     34  C   UNL     1     113.388 127.144 139.353  0.00  0.00    +0.000 C 
BRANCH  34  35
ATOM     35  C   UNL     1     113.204 127.821 139.789  0.00  0.00    +0.000 C 
ATOM     36  C   UNL     1     113.806 128.251 140.154  0.00  0.00    +0.000 C 
BRANCH  36  38
ATOM     37  O   UNL     1     113.070 130.955 141.897  0.00  0.00    +0.000 OA
ATOM     38  C   UNL     1     113.622 128.928 140.590  0.00  0.00    +0.000 A 
ATOM     39  C   UNL     1     114.054 129.621 140.478  0.00  0.00    +0.000 A 
ATOM     40  C   UNL     1     113.005 128.910 141.138  0.00  0.00    +0.000 A 
ATOM     41  C   UNL     1     113.871 130.297 140.913  0.00  0.00    +0.000 A 
ATOM     42  C   UNL     1     112.822 129.586 141.573  0.00  0.00    +0.000 A 
ATOM     43  C   UNL     1     113.254 130.279 141.461  0.00  0.00    +0.000 A 
BRANCH  41  44
ATOM     44  O   UNL     1     114.303 130.990 140.801  0.00  0.00    +0.000 OA
ATOM     45  C   UNL     1     115.109 130.950 140.631  0.00  0.00    +0.000 C 
ENDBRANCH  41  44
ENDBRANCH  36  38
ENDBRANCH  34  35
ENDBRANCH  32  34
ENDBRANCH   4  32
TORSDOF 8
ENDMDL
MODEL 6
REMARK VINA RESULT:     -10.0      1.554      4.306
REMARK  Name = 44257951
REMARK  8 active torsions:
REMARK  status: ('A' for Active; 'I' for Inactive)
REMARK    1  A    between atoms: O_2  and  C_15
REMARK    2  A    between atoms: O_2  and  C_27
REMARK    3  A    between atoms: O_13  and  C_42
REMARK    4  A    between atoms: C_17  and  C_20
REMARK    5  A    between atoms: C_19  and  C_21
REMARK    6  A    between atoms: C_27  and  C_31
REMARK    7  A    between atoms: C_29  and  C_32
REMARK    8  A    between atoms: C_33  and  C_36
REMARK                            x       y       z     vdW  Elec       q    Type
REMARK                         _______ _______ _______ _____ _____    ______ ____
ROOT
ATOM      1  O   UNL     1     110.296 126.477 138.508  0.00  0.00    +0.000 OA
ATOM      2  O   UNL     1     111.523 128.611 138.768  0.00  0.00    +0.000 OA
ATOM      3  O   UNL     1     111.333 127.605 140.063  0.00  0.00    +0.000 OA
ATOM      4  C   UNL     1     110.800 127.691 137.947  0.00  0.00    +0.000 C 
ATOM      5  C   UNL     1     111.114 127.899 138.681  0.00  0.00    +0.000 C 
ATOM      6  C   UNL     1     110.391 126.980 137.860  0.00  0.00    +0.000 C 
ATOM      7  C   UNL     1     111.019 127.397 139.328  0.00  0.00    +0.000 C 
ATOM      8  C   UNL     1     110.610 126.685 139.242  0.00  0.00    +0.000 C 
ENDROOT
BRANCH   6  13
ATOM      9  O   UNL     1     111.259 125.964 136.882  0.00  0.00    +0.000 OA
ATOM     10  O   UNL     1     108.925 127.574 137.392  0.00  0.00    +0.000 OA
ATOM     11  O   UNL     1     109.136 126.147 134.924  0.00  0.00    +0.000 OA
ATOM     12  O   UNL     1     110.289 125.330 134.631  0.00  0.00    +0.000 OA
ATOM     13  C   UNL     1     110.078 126.772 137.127  0.00  0.00    +0.000 A 
ATOM     14  C   UNL     1     110.497 126.266 136.627  0.00  0.00    +0.000 A 
ATOM     15  C   UNL     1     109.345 127.069 136.892  0.00  0.00    +0.000 A 
ATOM     16  C   UNL     1     110.183 126.058 135.893  0.00  0.00    +0.000 A 
ATOM     17  C   UNL     1     109.031 126.860 136.158  0.00  0.00    +0.000 A 
ATOM     18  C   UNL     1     109.450 126.355 135.659  0.00  0.00    +0.000 A 
ATOM     19  C   UNL     1     110.610 125.533 135.364  0.00  0.00    +0.000 A 
ATOM     20  C   UNL     1     111.701 125.437 136.366  0.00  0.00    +0.000 A 
ATOM     21  C   UNL     1     111.374 125.220 135.602  0.00  0.00    +0.000 A 
BRANCH  20  24
ATOM     22  O   UNL     1     114.535 125.736 136.589  0.00  0.00    +0.000 OA
ATOM     23  O   UNL     1     114.633 124.257 137.313  0.00  0.00    +0.000 OA
ATOM     24  C   UNL     1     112.434 125.142 136.603  0.00  0.00    +0.000 A 
ATOM     25  C   UNL     1     113.117 125.587 136.477  0.00  0.00    +0.000 A 
ATOM     26  C   UNL     1     112.484 124.402 136.965  0.00  0.00    +0.000 A 
ATOM     27  C   UNL     1     113.851 125.292 136.714  0.00  0.00    +0.000 A 
ATOM     28  C   UNL     1     113.217 124.108 137.202  0.00  0.00    +0.000 A 
ATOM     29  C   UNL     1     113.900 124.552 137.076  0.00  0.00    +0.000 A 
ENDBRANCH  20  24
ENDBRANCH   6  13
BRANCH   8  31
ATOM     30  O   UNL     1     110.167 125.440 139.786  0.00  0.00    +0.000 OA
ATOM     31  C   UNL     1     110.515 126.182 139.888  0.00  0.00    +0.000 C 
ENDBRANCH   8  31
BRANCH   4  32
ATOM     32  O   UNL     1     110.895 128.194 137.300  0.00  0.00    +0.000 OA
BRANCH  32  34
ATOM     33  O   UNL     1     111.115 129.508 137.818  0.00  0.00    +0.000 OA
ATOM     34  C   UNL     1     111.369 128.866 137.366  0.00  0.00    +0.000 C 
BRANCH  34  35
ATOM     35  C   UNL     1     112.098 128.896 136.980  0.00  0.00    +0.000 C 
ATOM     36  C   UNL     1     112.209 129.415 136.349  0.00  0.00    +0.000 C 
BRANCH  36  38
ATOM     37  O   UNL     1     115.123 129.534 134.805  0.00  0.00    +0.000 OA
ATOM     38  C   UNL     1     112.938 129.445 135.963  0.00  0.00    +0.000 A 
ATOM     39  C   UNL     1     113.461 130.062 136.117  0.00  0.00    +0.000 A 
ATOM     40  C   UNL     1     113.142 128.856 135.422  0.00  0.00    +0.000 A 
ATOM     41  C   UNL     1     114.190 130.093 135.732  0.00  0.00    +0.000 A 
ATOM     42  C   UNL     1     113.870 128.886 135.037  0.00  0.00    +0.000 A 
ATOM     43  C   UNL     1     114.394 129.504 135.191  0.00  0.00    +0.000 A 
BRANCH  41  44
ATOM     44  O   UNL     1     114.714 130.711 135.887  0.00  0.00    +0.000 OA
ATOM     45  C   UNL     1     114.470 131.352 136.343  0.00  0.00    +0.000 C 
ENDBRANCH  41  44
ENDBRANCH  36  38
ENDBRANCH  34  35
ENDBRANCH  32  34
ENDBRANCH   4  32
TORSDOF 8
ENDMDL
MODEL 7
REMARK VINA RESULT:     -10.0      1.629      3.301
REMARK  Name = 44257951
REMARK  8 active torsions:
REMARK  status: ('A' for Active; 'I' for Inactive)
REMARK    1  A    between atoms: O_2  and  C_15
REMARK    2  A    between atoms: O_2  and  C_27
REMARK    3  A    between atoms: O_13  and  C_42
REMARK    4  A    between atoms: C_17  and  C_20
REMARK    5  A    between atoms: C_19  and  C_21
REMARK    6  A    between atoms: C_27  and  C_31
REMARK    7  A    between atoms: C_29  and  C_32
REMARK    8  A    between atoms: C_33  and  C_36
REMARK                            x       y       z     vdW  Elec       q    Type
REMARK                         _______ _______ _______ _____ _____    ______ ____
ROOT
ATOM      1  O   UNL     1     112.567 126.068 137.583  0.00  0.00    +0.000 OA
ATOM      2  O   UNL     1     114.280 126.283 139.357  0.00  0.00    +0.000 OA
ATOM      3  O   UNL     1     114.607 125.407 137.997  0.00  0.00    +0.000 OA
ATOM      4  C   UNL     1     112.976 126.577 138.855  0.00  0.00    +0.000 C 
ATOM      5  C   UNL     1     113.710 126.211 138.765  0.00  0.00    +0.000 C 
ATOM      6  C   UNL     1     112.404 126.506 138.264  0.00  0.00    +0.000 C 
ATOM      7  C   UNL     1     113.872 125.774 138.086  0.00  0.00    +0.000 C 
ATOM      8  C   UNL     1     113.301 125.702 137.494  0.00  0.00    +0.000 C 
ENDROOT
BRANCH   6  13
ATOM      9  O   UNL     1     112.164 127.988 137.566  0.00  0.00    +0.000 OA
ATOM     10  O   UNL     1     111.211 125.761 139.125  0.00  0.00    +0.000 OA
ATOM     11  O   UNL     1     109.469 127.971 138.620  0.00  0.00    +0.000 OA
ATOM     12  O   UNL     1     109.909 129.105 137.844  0.00  0.00    +0.000 OA
ATOM     13  C   UNL     1     111.671 126.872 138.353  0.00  0.00    +0.000 A 
ATOM     14  C   UNL     1     111.534 127.611 138.011  0.00  0.00    +0.000 A 
ATOM     15  C   UNL     1     111.074 126.500 138.783  0.00  0.00    +0.000 A 
ATOM     16  C   UNL     1     110.800 127.977 138.100  0.00  0.00    +0.000 A 
ATOM     17  C   UNL     1     110.340 126.866 138.873  0.00  0.00    +0.000 A 
ATOM     18  C   UNL     1     110.203 127.604 138.531  0.00  0.00    +0.000 A 
ATOM     19  C   UNL     1     110.646 128.746 137.750  0.00  0.00    +0.000 A 
ATOM     20  C   UNL     1     112.028 128.758 137.207  0.00  0.00    +0.000 A 
ATOM     21  C   UNL     1     111.264 129.139 137.300  0.00  0.00    +0.000 A 
BRANCH  20  24
ATOM     22  O   UNL     1     113.406 129.175 134.738  0.00  0.00    +0.000 OA
ATOM     23  O   UNL     1     114.423 130.237 135.486  0.00  0.00    +0.000 OA
ATOM     24  C   UNL     1     112.627 129.128 136.777  0.00  0.00    +0.000 A 
ATOM     25  C   UNL     1     112.716 128.966 135.973  0.00  0.00    +0.000 A 
ATOM     26  C   UNL     1     113.136 129.659 137.150  0.00  0.00    +0.000 A 
ATOM     27  C   UNL     1     113.315 129.336 135.542  0.00  0.00    +0.000 A 
ATOM     28  C   UNL     1     113.734 130.028 136.720  0.00  0.00    +0.000 A 
ATOM     29  C   UNL     1     113.824 129.867 135.916  0.00  0.00    +0.000 A 
ENDBRANCH  20  24
ENDBRANCH   6  13
BRANCH   8  31
ATOM     30  O   UNL     1     112.844 124.989 136.343  0.00  0.00    +0.000 OA
ATOM     31  C   UNL     1     113.464 125.265 136.815  0.00  0.00    +0.000 C 
ENDBRANCH   8  31
BRANCH   4  32
ATOM     32  O   UNL     1     112.813 127.015 139.535  0.00  0.00    +0.000 OA
BRANCH  32  34
ATOM     33  O   UNL     1     113.743 126.601 140.537  0.00  0.00    +0.000 OA
ATOM     34  C   UNL     1     113.419 127.194 140.065  0.00  0.00    +0.000 C 
BRANCH  34  35
ATOM     35  C   UNL     1     113.702 127.968 140.121  0.00  0.00    +0.000 C 
ATOM     36  C   UNL     1     113.591 128.397 140.817  0.00  0.00    +0.000 C 
BRANCH  36  38
ATOM     37  O   UNL     1     114.722 131.489 141.043  0.00  0.00    +0.000 OA
ATOM     38  C   UNL     1     113.874 129.171 140.874  0.00  0.00    +0.000 A 
ATOM     39  C   UNL     1     113.427 129.746 141.258  0.00  0.00    +0.000 A 
ATOM     40  C   UNL     1     114.605 129.367 140.545  0.00  0.00    +0.000 A 
ATOM     41  C   UNL     1     113.709 130.519 141.315  0.00  0.00    +0.000 A 
ATOM     42  C   UNL     1     114.887 130.140 140.602  0.00  0.00    +0.000 A 
ATOM     43  C   UNL     1     114.439 130.715 140.987  0.00  0.00    +0.000 A 
BRANCH  41  44
ATOM     44  O   UNL     1     113.261 131.095 141.700  0.00  0.00    +0.000 OA
ATOM     45  C   UNL     1     112.612 130.874 142.159  0.00  0.00    +0.000 C 
ENDBRANCH  41  44
ENDBRANCH  36  38
ENDBRANCH  34  35
ENDBRANCH  32  34
ENDBRANCH   4  32
TORSDOF 8
ENDMDL
MODEL 8
REMARK VINA RESULT:     -10.0      1.540      3.977
REMARK  Name = 44257951
REMARK  8 active torsions:
REMARK  status: ('A' for Active; 'I' for Inactive)
REMARK    1  A    between atoms: O_2  and  C_15
REMARK    2  A    between atoms: O_2  and  C_27
REMARK    3  A    between atoms: O_13  and  C_42
REMARK    4  A    between atoms: C_17  and  C_20
REMARK    5  A    between atoms: C_19  and  C_21
REMARK    6  A    between atoms: C_27  and  C_31
REMARK    7  A    between atoms: C_29  and  C_32
REMARK    8  A    between atoms: C_33  and  C_36
REMARK                            x       y       z     vdW  Elec       q    Type
REMARK                         _______ _______ _______ _____ _____    ______ ____
ROOT
ATOM      1  O   UNL     1     113.143 128.836 135.582  0.00  0.00    +0.000 OA
ATOM      2  O   UNL     1     113.039 129.905 137.812  0.00  0.00    +0.000 OA
ATOM      3  O   UNL     1     114.379 130.096 136.867  0.00  0.00    +0.000 OA
ATOM      4  C   UNL     1     112.439 129.098 136.798  0.00  0.00    +0.000 C 
ATOM      5  C   UNL     1     113.074 129.549 137.069  0.00  0.00    +0.000 C 
ATOM      6  C   UNL     1     112.473 128.741 136.055  0.00  0.00    +0.000 C 
ATOM      7  C   UNL     1     113.743 129.644 136.596  0.00  0.00    +0.000 C 
ATOM      8  C   UNL     1     113.778 129.288 135.853  0.00  0.00    +0.000 C 
ENDROOT
BRANCH   6  13
ATOM      9  O   UNL     1     112.532 127.096 136.232  0.00  0.00    +0.000 OA
ATOM     10  O   UNL     1     111.176 129.481 135.353  0.00  0.00    +0.000 OA
ATOM     11  O   UNL     1     109.932 126.936 134.972  0.00  0.00    +0.000 OA
ATOM     12  O   UNL     1     110.579 125.718 135.398  0.00  0.00    +0.000 OA
ATOM     13  C   UNL     1     111.838 128.290 135.784  0.00  0.00    +0.000 A 
ATOM     14  C   UNL     1     111.851 127.469 135.865  0.00  0.00    +0.000 A 
ATOM     15  C   UNL     1     111.189 128.659 135.433  0.00  0.00    +0.000 A 
ATOM     16  C   UNL     1     111.216 127.017 135.594  0.00  0.00    +0.000 A 
ATOM     17  C   UNL     1     110.554 128.208 135.163  0.00  0.00    +0.000 A 
ATOM     18  C   UNL     1     110.568 127.387 135.243  0.00  0.00    +0.000 A 
ATOM     19  C   UNL     1     111.218 126.162 135.672  0.00  0.00    +0.000 A 
ATOM     20  C   UNL     1     112.552 126.241 136.319  0.00  0.00    +0.000 A 
ATOM     21  C   UNL     1     111.891 125.771 136.037  0.00  0.00    +0.000 A 
BRANCH  20  24
ATOM     22  O   UNL     1     115.182 125.139 136.115  0.00  0.00    +0.000 OA
ATOM     23  O   UNL     1     115.152 124.773 137.724  0.00  0.00    +0.000 OA
ATOM     24  C   UNL     1     113.202 125.874 136.670  0.00  0.00    +0.000 A 
ATOM     25  C   UNL     1     113.866 125.690 136.217  0.00  0.00    +0.000 A 
ATOM     26  C   UNL     1     113.188 125.690 137.474  0.00  0.00    +0.000 A 
ATOM     27  C   UNL     1     114.517 125.323 136.568  0.00  0.00    +0.000 A 
ATOM     28  C   UNL     1     113.838 125.324 137.825  0.00  0.00    +0.000 A 
ATOM     29  C   UNL     1     114.502 125.140 137.372  0.00  0.00    +0.000 A 
ENDBRANCH  20  24
ENDBRANCH   6  13
BRANCH   8  31
ATOM     30  O   UNL     1     114.456 129.079 134.612  0.00  0.00    +0.000 OA
ATOM     31  C   UNL     1     114.447 129.383 135.380  0.00  0.00    +0.000 C 
ENDBRANCH   8  31
BRANCH   4  32
ATOM     32  O   UNL     1     111.769 129.002 137.271  0.00  0.00    +0.000 OA
BRANCH  32  34
ATOM     33  O   UNL     1     111.764 130.011 138.283  0.00  0.00    +0.000 OA
ATOM     34  C   UNL     1     111.793 129.215 138.067  0.00  0.00    +0.000 C 
BRANCH  34  35
ATOM     35  C   UNL     1     111.847 128.631 138.649  0.00  0.00    +0.000 C 
ATOM     36  C   UNL     1     111.196 128.467 139.129  0.00  0.00    +0.000 C 
BRANCH  36  38
ATOM     37  O   UNL     1     111.411 126.134 141.453  0.00  0.00    +0.000 OA
ATOM     38  C   UNL     1     111.250 127.883 139.710  0.00  0.00    +0.000 A 
ATOM     39  C   UNL     1     110.830 127.179 139.627  0.00  0.00    +0.000 A 
ATOM     40  C   UNL     1     111.724 128.006 140.374  0.00  0.00    +0.000 A 
ATOM     41  C   UNL     1     110.884 126.596 140.207  0.00  0.00    +0.000 A 
ATOM     42  C   UNL     1     111.777 127.422 140.954  0.00  0.00    +0.000 A 
ATOM     43  C   UNL     1     111.357 126.718 140.871  0.00  0.00    +0.000 A 
BRANCH  41  44
ATOM     44  O   UNL     1     110.463 125.891 140.124  0.00  0.00    +0.000 OA
ATOM     45  C   UNL     1     110.022 125.752 139.442  0.00  0.00    +0.000 C 
ENDBRANCH  41  44
ENDBRANCH  36  38
ENDBRANCH  34  35
ENDBRANCH  32  34
ENDBRANCH   4  32
TORSDOF 8
ENDMDL
MODEL 9
REMARK VINA RESULT:      -9.9      1.943      4.523
REMARK  Name = 44257951
REMARK  8 active torsions:
REMARK  status: ('A' for Active; 'I' for Inactive)
REMARK    1  A    between atoms: O_2  and  C_15
REMARK    2  A    between atoms: O_2  and  C_27
REMARK    3  A    between atoms: O_13  and  C_42
REMARK    4  A    between atoms: C_17  and  C_20
REMARK    5  A    between atoms: C_19  and  C_21
REMARK    6  A    between atoms: C_27  and  C_31
REMARK    7  A    between atoms: C_29  and  C_32
REMARK    8  A    between atoms: C_33  and  C_36
REMARK                            x       y       z     vdW  Elec       q    Type
REMARK                         _______ _______ _______ _____ _____    ______ ____
ROOT
ATOM      1  O   UNL     1     111.684 130.439 138.270  0.00  0.00    +0.000 OA
ATOM      2  O   UNL     1     111.781 128.537 139.851  0.00  0.00    +0.000 OA
ATOM      3  O   UNL     1     110.770 129.807 140.149  0.00  0.00    +0.000 OA
ATOM      4  C   UNL     1     112.221 129.170 138.648  0.00  0.00    +0.000 C 
ATOM      5  C   UNL     1     111.748 129.171 139.324  0.00  0.00    +0.000 C 
ATOM      6  C   UNL     1     112.189 129.803 138.120  0.00  0.00    +0.000 C 
ATOM      7  C   UNL     1     111.244 129.806 139.473  0.00  0.00    +0.000 C 
ATOM      8  C   UNL     1     111.211 130.440 138.946  0.00  0.00    +0.000 C 
ENDROOT
BRANCH   6  13
ATOM      9  O   UNL     1     111.522 129.323 136.683  0.00  0.00    +0.000 OA
ATOM     10  O   UNL     1     113.768 130.273 138.218  0.00  0.00    +0.000 OA
ATOM     11  O   UNL     1     114.081 129.797 135.416  0.00  0.00    +0.000 OA
ATOM     12  O   UNL     1     112.980 129.322 134.613  0.00  0.00    +0.000 OA
ATOM     13  C   UNL     1     112.662 129.802 137.445  0.00  0.00    +0.000 A 
ATOM     14  C   UNL     1     112.345 129.565 136.720  0.00  0.00    +0.000 A 
ATOM     15  C   UNL     1     113.451 130.036 137.493  0.00  0.00    +0.000 A 
ATOM     16  C   UNL     1     112.818 129.564 136.044  0.00  0.00    +0.000 A 
ATOM     17  C   UNL     1     113.924 130.035 136.817  0.00  0.00    +0.000 A 
ATOM     18  C   UNL     1     113.607 129.799 136.093  0.00  0.00    +0.000 A 
ATOM     19  C   UNL     1     112.500 129.320 135.284  0.00  0.00    +0.000 A 
ATOM     20  C   UNL     1     111.186 129.076 135.931  0.00  0.00    +0.000 A 
ATOM     21  C   UNL     1     111.678 129.074 135.227  0.00  0.00    +0.000 A 
BRANCH  20  24
ATOM     22  O   UNL     1     108.427 129.731 135.573  0.00  0.00    +0.000 OA
ATOM     23  O   UNL     1     108.027 128.140 135.750  0.00  0.00    +0.000 OA
ATOM     24  C   UNL     1     110.396 128.842 135.886  0.00  0.00    +0.000 A 
ATOM     25  C   UNL     1     109.807 129.404 135.752  0.00  0.00    +0.000 A 
ATOM     26  C   UNL     1     110.195 128.047 135.974  0.00  0.00    +0.000 A 
ATOM     27  C   UNL     1     109.017 129.170 135.707  0.00  0.00    +0.000 A 
ATOM     28  C   UNL     1     109.406 127.813 135.928  0.00  0.00    +0.000 A 
ATOM     29  C   UNL     1     108.817 128.374 135.795  0.00  0.00    +0.000 A 
ENDBRANCH  20  24
ENDBRANCH   6  13
BRANCH   8  31
ATOM     30  O   UNL     1     110.868 131.816 138.767  0.00  0.00    +0.000 OA
ATOM     31  C   UNL     1     110.706 131.075 139.094  0.00  0.00    +0.000 C 
ENDBRANCH   8  31
BRANCH   4  32
ATOM     32  O   UNL     1     112.727 128.534 138.499  0.00  0.00    +0.000 OA
BRANCH  32  34
ATOM     33  O   UNL     1     112.860 127.809 139.723  0.00  0.00    +0.000 OA
ATOM     34  C   UNL     1     112.645 127.834 138.927  0.00  0.00    +0.000 C 
BRANCH  34  35
ATOM     35  C   UNL     1     112.348 127.158 138.558  0.00  0.00    +0.000 C 
ATOM     36  C   UNL     1     112.843 126.513 138.419  0.00  0.00    +0.000 C 
BRANCH  36  38
ATOM     37  O   UNL     1     111.655 123.810 136.945  0.00  0.00    +0.000 OA
ATOM     38  C   UNL     1     112.546 125.837 138.050  0.00  0.00    +0.000 A 
ATOM     39  C   UNL     1     113.029 125.393 137.551  0.00  0.00    +0.000 A 
ATOM     40  C   UNL     1     111.765 125.605 138.182  0.00  0.00    +0.000 A 
ATOM     41  C   UNL     1     112.733 124.718 137.182  0.00  0.00    +0.000 A 
ATOM     42  C   UNL     1     111.469 124.930 137.813  0.00  0.00    +0.000 A 
ATOM     43  C   UNL     1     111.952 124.486 137.314  0.00  0.00    +0.000 A 
BRANCH  41  44
ATOM     44  O   UNL     1     113.216 124.274 136.682  0.00  0.00    +0.000 OA
ATOM     45  C   UNL     1     113.926 124.591 136.408  0.00  0.00    +0.000 C 
ENDBRANCH  41  44
ENDBRANCH  36  38
ENDBRANCH  34  35
ENDBRANCH  32  34
ENDBRANCH   4  32
TORSDOF 8
ENDMDL
MODEL 10
REMARK VINA RESULT:      -9.9      1.612      3.104
REMARK  Name = 44257951
REMARK  8 active torsions:
REMARK  status: ('A' for Active; 'I' for Inactive)
REMARK    1  A    between atoms: O_2  and  C_15
REMARK    2  A    between atoms: O_2  and  C_27
REMARK    3  A    between atoms: O_13  and  C_42
REMARK    4  A    between atoms: C_17  and  C_20
REMARK    5  A    between atoms: C_19  and  C_21
REMARK    6  A    between atoms: C_27  and  C_31
REMARK    7  A    between atoms: C_29  and  C_32
REMARK    8  A    between atoms: C_33  and  C_36
REMARK                            x       y       z     vdW  Elec       q    Type
REMARK                         _______ _______ _______ _____ _____    ______ ____
ROOT
ATOM      1  O   UNL     1     113.388 125.694 136.484  0.00  0.00    +0.000 OA
ATOM      2  O   UNL     1     113.238 126.011 138.934  0.00  0.00    +0.000 OA
ATOM      3  O   UNL     1     114.628 125.430 138.261  0.00  0.00    +0.000 OA
ATOM      4  C   UNL     1     112.643 126.091 137.637  0.00  0.00    +0.000 C 
ATOM      5  C   UNL     1     113.288 125.906 138.117  0.00  0.00    +0.000 C 
ATOM      6  C   UNL     1     112.692 125.985 136.820  0.00  0.00    +0.000 C 
ATOM      7  C   UNL     1     113.982 125.615 137.780  0.00  0.00    +0.000 C 
ATOM      8  C   UNL     1     114.033 125.509 136.964  0.00  0.00    +0.000 C 
ENDROOT
BRANCH   6  13
ATOM      9  O   UNL     1     112.641 127.472 136.094  0.00  0.00    +0.000 OA
ATOM     10  O   UNL     1     111.486 124.882 136.600  0.00  0.00    +0.000 OA
ATOM     11  O   UNL     1     110.113 126.725 134.900  0.00  0.00    +0.000 OA
ATOM     12  O   UNL     1     110.658 128.032 134.622  0.00  0.00    +0.000 OA
ATOM     13  C   UNL     1     112.048 126.170 136.341  0.00  0.00    +0.000 A 
ATOM     14  C   UNL     1     112.007 126.907 135.971  0.00  0.00    +0.000 A 
ATOM     15  C   UNL     1     111.445 125.619 136.230  0.00  0.00    +0.000 A 
ATOM     16  C   UNL     1     111.362 127.092 135.491  0.00  0.00    +0.000 A 
ATOM     17  C   UNL     1     110.800 125.804 135.750  0.00  0.00    +0.000 A 
ATOM     18  C   UNL     1     110.758 126.540 135.381  0.00  0.00    +0.000 A 
ATOM     19  C   UNL     1     111.307 127.855 135.101  0.00  0.00    +0.000 A 
ATOM     20  C   UNL     1     112.604 128.242 135.712  0.00  0.00    +0.000 A 
ATOM     21  C   UNL     1     111.933 128.434 135.212  0.00  0.00    +0.000 A 
BRANCH  20  24
ATOM     22  O   UNL     1     113.715 130.436 137.167  0.00  0.00    +0.000 OA
ATOM     23  O   UNL     1     115.023 130.440 136.161  0.00  0.00    +0.000 OA
ATOM     24  C   UNL     1     113.209 128.791 135.824  0.00  0.00    +0.000 A 
ATOM     25  C   UNL     1     113.159 129.338 136.439  0.00  0.00    +0.000 A 
ATOM     26  C   UNL     1     113.863 128.794 135.322  0.00  0.00    +0.000 A 
ATOM     27  C   UNL     1     113.764 129.889 136.552  0.00  0.00    +0.000 A 
ATOM     28  C   UNL     1     114.467 129.343 135.434  0.00  0.00    +0.000 A 
ATOM     29  C   UNL     1     114.418 129.891 136.049  0.00  0.00    +0.000 A 
ENDBRANCH  20  24
ENDBRANCH   6  13
BRANCH   8  31
ATOM     30  O   UNL     1     114.995 125.523 135.907  0.00  0.00    +0.000 OA
ATOM     31  C   UNL     1     114.727 125.219 136.627  0.00  0.00    +0.000 C 
ENDBRANCH   8  31
BRANCH   4  32
ATOM     32  O   UNL     1     111.948 126.381 137.974  0.00  0.00    +0.000 OA
BRANCH  32  34
ATOM     33  O   UNL     1     111.922 126.037 139.360  0.00  0.00    +0.000 OA
ATOM     34  C   UNL     1     111.938 126.609 138.766  0.00  0.00    +0.000 C 
BRANCH  34  35
ATOM     35  C   UNL     1     111.944 127.410 138.965  0.00  0.00    +0.000 C 
ATOM     36  C   UNL     1     111.261 127.767 139.258  0.00  0.00    +0.000 C 
BRANCH  36  38
ATOM     37  O   UNL     1     111.288 130.970 140.053  0.00  0.00    +0.000 OA
ATOM     38  C   UNL     1     111.268 128.569 139.457  0.00  0.00    +0.000 A 
ATOM     39  C   UNL     1     110.818 129.105 139.022  0.00  0.00    +0.000 A 
ATOM     40  C   UNL     1     111.725 128.832 140.091  0.00  0.00    +0.000 A 
ATOM     41  C   UNL     1     110.824 129.906 139.220  0.00  0.00    +0.000 A 
ATOM     42  C   UNL     1     111.731 129.633 140.289  0.00  0.00    +0.000 A 
ATOM     43  C   UNL     1     111.281 130.169 139.854  0.00  0.00    +0.000 A 
BRANCH  41  44
ATOM     44  O   UNL     1     110.374 130.443 138.785  0.00  0.00    +0.000 OA
ATOM     45  C   UNL     1     109.963 130.189 138.116  0.00  0.00    +0.000 C 
ENDBRANCH  41  44
ENDBRANCH  36  38
ENDBRANCH  34  35
ENDBRANCH  32  34
ENDBRANCH   4  32
TORSDOF 8
ENDMDL
