MODEL 1
REMARK VINA RESULT:      -8.7      0.000      0.000
REMARK  Name = 44259375
REMARK  7 active torsions:
REMARK  status: ('A' for Active; 'I' for Inactive)
REMARK    1  A    between atoms: O_2  and  C_16
REMARK    2  A    between atoms: O_2  and  C_21
REMARK    3  A    between atoms: O_3  and  C_18
REMARK    4  A    between atoms: O_3  and  C_20
REMARK    5  A    between atoms: O_12  and  C_34
REMARK    6  A    between atoms: C_17  and  C_19
REMARK    7  A    between atoms: C_22  and  C_26
REMARK                            x       y       z     vdW  Elec       q    Type
REMARK                         _______ _______ _______ _____ _____    ______ ____
ROOT
ATOM      1  O   UNL     1     105.794 124.357 147.547  0.00  0.00    +0.000 OA
ATOM      2  O   UNL     1     107.274 125.780 146.164  0.00  0.00    +0.000 OA
ATOM      3  O   UNL     1     108.311 125.725 147.165  0.00  0.00    +0.000 OA
ATOM      4  O   UNL     1     107.842 124.201 149.612  0.00  0.00    +0.000 OA
ATOM      5  C   UNL     1     106.029 125.103 146.352  0.00  0.00    +0.000 A 
ATOM      6  C   UNL     1     105.535 124.629 146.813  0.00  0.00    +0.000 A 
ATOM      7  C   UNL     1     106.780 125.305 146.625  0.00  0.00    +0.000 A 
ATOM      8  C   UNL     1     107.039 125.033 147.359  0.00  0.00    +0.000 A 
ATOM      9  C   UNL     1     106.547 124.559 147.821  0.00  0.00    +0.000 A 
ATOM     10  C   UNL     1     107.824 125.250 147.633  0.00  0.00    +0.000 A 
ATOM     11  C   UNL     1     106.804 124.268 148.587  0.00  0.00    +0.000 A 
ATOM     12  C   UNL     1     108.099 124.969 148.397  0.00  0.00    +0.000 A 
ATOM     13  C   UNL     1     107.586 124.475 148.877  0.00  0.00    +0.000 A 
ENDROOT
BRANCH   6  15
ATOM     14  O   UNL     1     102.528 123.820 145.720  0.00  0.00    +0.000 OA
ATOM     15  C   UNL     1     104.784 124.427 146.540  0.00  0.00    +0.000 A 
ATOM     16  C   UNL     1     104.115 124.777 146.874  0.00  0.00    +0.000 A 
ATOM     17  C   UNL     1     104.701 123.875 145.932  0.00  0.00    +0.000 A 
ATOM     18  C   UNL     1     103.364 124.575 146.601  0.00  0.00    +0.000 A 
ATOM     19  C   UNL     1     103.948 123.673 145.659  0.00  0.00    +0.000 A 
ATOM     20  C   UNL     1     103.281 124.023 145.993  0.00  0.00    +0.000 A 
BRANCH  18  21
ATOM     21  O   UNL     1     102.695 124.924 146.935  0.00  0.00    +0.000 OA
ATOM     22  C   UNL     1     102.690 125.121 147.736  0.00  0.00    +0.000 C 
ENDBRANCH  18  21
ENDBRANCH   6  15
BRANCH   5  23
ATOM     23  O   UNL     1     105.770 125.376 145.617  0.00  0.00    +0.000 OA
BRANCH  23  31
ATOM     24  O   UNL     1     105.511 126.724 146.015  0.00  0.00    +0.000 OA
ATOM     25  O   UNL     1     106.333 127.528 143.824  0.00  0.00    +0.000 OA
ATOM     26  O   UNL     1     105.799 128.607 144.952  0.00  0.00    +0.000 OA
ATOM     27  C   UNL     1     106.059 127.260 144.554  0.00  0.00    +0.000 C 
ATOM     28  C   UNL     1     105.792 127.800 145.118  0.00  0.00    +0.000 C 
ATOM     29  C   UNL     1     106.052 126.452 144.720  0.00  0.00    +0.000 C 
ATOM     30  C   UNL     1     105.518 127.531 145.848  0.00  0.00    +0.000 C 
ATOM     31  C   UNL     1     105.778 126.184 145.451  0.00  0.00    +0.000 C 
BRANCH  30  33
ATOM     32  O   UNL     1     104.553 127.922 146.827  0.00  0.00    +0.000 OA
ATOM     33  C   UNL     1     105.251 128.070 146.413  0.00  0.00    +0.000 C 
ENDBRANCH  30  33
BRANCH  29  34
ATOM     34  O   UNL     1     106.318 125.912 144.157  0.00  0.00    +0.000 OA
BRANCH  34  36
ATOM     35  O   UNL     1     105.170 125.922 143.306  0.00  0.00    +0.000 OA
ATOM     36  C   UNL     1     105.989 125.910 143.400  0.00  0.00    +0.000 C 
ATOM     37  C   UNL     1     106.481 125.897 142.736  0.00  0.00    +0.000 C 
ENDBRANCH  34  36
ENDBRANCH  29  34
ENDBRANCH  23  31
ENDBRANCH   5  23
TORSDOF 7
ENDMDL
MODEL 2
REMARK VINA RESULT:      -8.7      8.516     11.637
REMARK  Name = 44259375
REMARK  7 active torsions:
REMARK  status: ('A' for Active; 'I' for Inactive)
REMARK    1  A    between atoms: O_2  and  C_16
REMARK    2  A    between atoms: O_2  and  C_21
REMARK    3  A    between atoms: O_3  and  C_18
REMARK    4  A    between atoms: O_3  and  C_20
REMARK    5  A    between atoms: O_12  and  C_34
REMARK    6  A    between atoms: C_17  and  C_19
REMARK    7  A    between atoms: C_22  and  C_26
REMARK                            x       y       z     vdW  Elec       q    Type
REMARK                         _______ _______ _______ _____ _____    ______ ____
ROOT
ATOM      1  O   UNL     1     113.368 127.299 136.329  0.00  0.00    +0.000 OA
ATOM      2  O   UNL     1     112.110 128.429 138.135  0.00  0.00    +0.000 OA
ATOM      3  O   UNL     1     112.598 129.718 137.709  0.00  0.00    +0.000 OA
ATOM      4  O   UNL     1     114.394 129.866 135.412  0.00  0.00    +0.000 OA
ATOM      5  C   UNL     1     112.490 127.233 137.453  0.00  0.00    +0.000 A 
ATOM      6  C   UNL     1     112.909 126.855 136.851  0.00  0.00    +0.000 A 
ATOM      7  C   UNL     1     112.529 128.052 137.533  0.00  0.00    +0.000 A 
ATOM      8  C   UNL     1     112.988 128.496 137.011  0.00  0.00    +0.000 A 
ATOM      9  C   UNL     1     113.408 128.120 136.408  0.00  0.00    +0.000 A 
ATOM     10  C   UNL     1     113.021 129.349 137.104  0.00  0.00    +0.000 A 
ATOM     11  C   UNL     1     113.890 128.570 135.858  0.00  0.00    +0.000 A 
ATOM     12  C   UNL     1     113.498 129.817 136.562  0.00  0.00    +0.000 A 
ATOM     13  C   UNL     1     113.935 129.424 135.936  0.00  0.00    +0.000 A 
ENDROOT
BRANCH   6  15
ATOM     14  O   UNL     1     112.751 123.574 136.532  0.00  0.00    +0.000 OA
ATOM     15  C   UNL     1     112.870 126.036 136.771  0.00  0.00    +0.000 A 
ATOM     16  C   UNL     1     113.489 125.564 137.046  0.00  0.00    +0.000 A 
ATOM     17  C   UNL     1     112.212 125.687 136.417  0.00  0.00    +0.000 A 
ATOM     18  C   UNL     1     113.449 124.744 136.966  0.00  0.00    +0.000 A 
ATOM     19  C   UNL     1     112.172 124.866 136.337  0.00  0.00    +0.000 A 
ATOM     20  C   UNL     1     112.791 124.395 136.612  0.00  0.00    +0.000 A 
BRANCH  18  21
ATOM     21  O   UNL     1     114.068 124.272 137.240  0.00  0.00    +0.000 OA
ATOM     22  C   UNL     1     114.834 124.575 137.273  0.00  0.00    +0.000 C 
ENDBRANCH  18  21
ENDBRANCH   6  15
BRANCH   5  23
ATOM     23  O   UNL     1     112.031 126.789 137.976  0.00  0.00    +0.000 OA
BRANCH  23  31
ATOM     24  O   UNL     1     112.937 126.941 139.070  0.00  0.00    +0.000 OA
ATOM     25  O   UNL     1     111.049 126.760 140.660  0.00  0.00    +0.000 OA
ATOM     26  O   UNL     1     112.584 126.972 141.223  0.00  0.00    +0.000 OA
ATOM     27  C   UNL     1     111.678 126.820 140.130  0.00  0.00    +0.000 C 
ATOM     28  C   UNL     1     112.446 126.926 140.412  0.00  0.00    +0.000 C 
ATOM     29  C   UNL     1     111.539 126.774 139.318  0.00  0.00    +0.000 C 
ATOM     30  C   UNL     1     113.075 126.987 139.882  0.00  0.00    +0.000 C 
ATOM     31  C   UNL     1     112.168 126.835 138.788  0.00  0.00    +0.000 C 
BRANCH  30  33
ATOM     32  O   UNL     1     114.421 126.523 140.010  0.00  0.00    +0.000 OA
ATOM     33  C   UNL     1     113.843 127.093 140.164  0.00  0.00    +0.000 C 
ENDBRANCH  30  33
BRANCH  29  34
ATOM     34  O   UNL     1     110.772 126.668 139.036  0.00  0.00    +0.000 OA
BRANCH  34  36
ATOM     35  O   UNL     1     110.666 125.270 139.309  0.00  0.00    +0.000 OA
ATOM     36  C   UNL     1     110.326 126.021 139.286  0.00  0.00    +0.000 C 
ATOM     37  C   UNL     1     109.539 126.124 139.515  0.00  0.00    +0.000 C 
ENDBRANCH  34  36
ENDBRANCH  29  34
ENDBRANCH  23  31
ENDBRANCH   5  23
TORSDOF 7
ENDMDL
MODEL 3
REMARK VINA RESULT:      -8.6      9.501     11.901
REMARK  Name = 44259375
REMARK  7 active torsions:
REMARK  status: ('A' for Active; 'I' for Inactive)
REMARK    1  A    between atoms: O_2  and  C_16
REMARK    2  A    between atoms: O_2  and  C_21
REMARK    3  A    between atoms: O_3  and  C_18
REMARK    4  A    between atoms: O_3  and  C_20
REMARK    5  A    between atoms: O_12  and  C_34
REMARK    6  A    between atoms: C_17  and  C_19
REMARK    7  A    between atoms: C_22  and  C_26
REMARK                            x       y       z     vdW  Elec       q    Type
REMARK                         _______ _______ _______ _____ _____    ______ ____
ROOT
ATOM      1  O   UNL     1     113.210 128.212 138.349  0.00  0.00    +0.000 OA
ATOM      2  O   UNL     1     111.926 126.106 138.557  0.00  0.00    +0.000 OA
ATOM      3  O   UNL     1     112.115 126.098 139.987  0.00  0.00    +0.000 OA
ATOM      4  O   UNL     1     113.632 128.262 141.230  0.00  0.00    +0.000 OA
ATOM      5  C   UNL     1     112.467 127.151 137.746  0.00  0.00    +0.000 A 
ATOM      6  C   UNL     1     112.895 127.853 137.676  0.00  0.00    +0.000 A 
ATOM      7  C   UNL     1     112.354 126.808 138.487  0.00  0.00    +0.000 A 
ATOM      8  C   UNL     1     112.669 127.167 139.160  0.00  0.00    +0.000 A 
ATOM      9  C   UNL     1     113.097 127.869 139.091  0.00  0.00    +0.000 A 
ATOM     10  C   UNL     1     112.544 126.800 139.927  0.00  0.00    +0.000 A 
ATOM     11  C   UNL     1     113.430 128.253 139.784  0.00  0.00    +0.000 A 
ATOM     12  C   UNL     1     112.871 127.170 140.631  0.00  0.00    +0.000 A 
ATOM     13  C   UNL     1     113.316 127.901 140.559  0.00  0.00    +0.000 A 
ENDROOT
BRANCH   6  15
ATOM     14  O   UNL     1     113.347 129.225 134.709  0.00  0.00    +0.000 OA
ATOM     15  C   UNL     1     113.007 128.196 136.935  0.00  0.00    +0.000 A 
ATOM     16  C   UNL     1     112.412 128.657 136.598  0.00  0.00    +0.000 A 
ATOM     17  C   UNL     1     113.716 128.077 136.529  0.00  0.00    +0.000 A 
ATOM     18  C   UNL     1     112.525 129.000 135.857  0.00  0.00    +0.000 A 
ATOM     19  C   UNL     1     113.829 128.420 135.787  0.00  0.00    +0.000 A 
ATOM     20  C   UNL     1     113.234 128.882 135.451  0.00  0.00    +0.000 A 
BRANCH  18  21
ATOM     21  O   UNL     1     111.930 129.462 135.520  0.00  0.00    +0.000 OA
ATOM     22  C   UNL     1     111.452 129.933 136.000  0.00  0.00    +0.000 C 
ENDBRANCH  18  21
ENDBRANCH   6  15
BRANCH   5  23
ATOM     23  O   UNL     1     112.152 126.792 137.073  0.00  0.00    +0.000 OA
BRANCH  23  31
ATOM     24  O   UNL     1     113.099 125.722 137.056  0.00  0.00    +0.000 OA
ATOM     25  O   UNL     1     111.401 124.234 136.043  0.00  0.00    +0.000 OA
ATOM     26  O   UNL     1     112.914 123.661 136.363  0.00  0.00    +0.000 OA
ATOM     27  C   UNL     1     111.967 124.730 136.381  0.00  0.00    +0.000 C 
ATOM     28  C   UNL     1     112.723 124.444 136.541  0.00  0.00    +0.000 C 
ATOM     29  C   UNL     1     111.776 125.513 136.558  0.00  0.00    +0.000 C 
ATOM     30  C   UNL     1     113.290 124.940 136.878  0.00  0.00    +0.000 C 
ATOM     31  C   UNL     1     112.342 126.009 136.896  0.00  0.00    +0.000 C 
BRANCH  30  33
ATOM     32  O   UNL     1     114.704 125.010 136.688  0.00  0.00    +0.000 OA
ATOM     33  C   UNL     1     114.046 124.654 137.038  0.00  0.00    +0.000 C 
ENDBRANCH  30  33
BRANCH  29  34
ATOM     34  O   UNL     1     111.019 125.799 136.398  0.00  0.00    +0.000 OA
BRANCH  34  36
ATOM     35  O   UNL     1     111.261 125.987 135.002  0.00  0.00    +0.000 OA
ATOM     36  C   UNL     1     110.742 125.820 135.622  0.00  0.00    +0.000 C 
ATOM     37  C   UNL     1     109.945 125.675 135.464  0.00  0.00    +0.000 C 
ENDBRANCH  34  36
ENDBRANCH  29  34
ENDBRANCH  23  31
ENDBRANCH   5  23
TORSDOF 7
ENDMDL
MODEL 4
REMARK VINA RESULT:      -8.6      8.425     11.502
REMARK  Name = 44259375
REMARK  7 active torsions:
REMARK  status: ('A' for Active; 'I' for Inactive)
REMARK    1  A    between atoms: O_2  and  C_16
REMARK    2  A    between atoms: O_2  and  C_21
REMARK    3  A    between atoms: O_3  and  C_18
REMARK    4  A    between atoms: O_3  and  C_20
REMARK    5  A    between atoms: O_12  and  C_34
REMARK    6  A    between atoms: C_17  and  C_19
REMARK    7  A    between atoms: C_22  and  C_26
REMARK                            x       y       z     vdW  Elec       q    Type
REMARK                         _______ _______ _______ _____ _____    ______ ____
ROOT
ATOM      1  O   UNL     1     113.167 127.372 136.138  0.00  0.00    +0.000 OA
ATOM      2  O   UNL     1     112.692 128.733 138.150  0.00  0.00    +0.000 OA
ATOM      3  O   UNL     1     113.369 129.870 137.576  0.00  0.00    +0.000 OA
ATOM      4  O   UNL     1     114.549 129.626 134.916  0.00  0.00    +0.000 OA
ATOM      5  C   UNL     1     112.592 127.497 137.440  0.00  0.00    +0.000 A 
ATOM      6  C   UNL     1     112.750 127.043 136.769  0.00  0.00    +0.000 A 
ATOM      7  C   UNL     1     112.850 128.279 137.480  0.00  0.00    +0.000 A 
ATOM      8  C   UNL     1     113.268 128.608 136.849  0.00  0.00    +0.000 A 
ATOM      9  C   UNL     1     113.426 128.155 136.178  0.00  0.00    +0.000 A 
ATOM     10  C   UNL     1     113.532 129.424 136.902  0.00  0.00    +0.000 A 
ATOM     11  C   UNL     1     113.860 128.485 135.514  0.00  0.00    +0.000 A 
ATOM     12  C   UNL     1     113.967 129.772 136.247  0.00  0.00    +0.000 A 
ATOM     13  C   UNL     1     114.132 129.299 135.549  0.00  0.00    +0.000 A 
ENDROOT
BRANCH   6  15
ATOM     14  O   UNL     1     111.715 123.913 136.611  0.00  0.00    +0.000 OA
ATOM     15  C   UNL     1     112.491 126.261 136.730  0.00  0.00    +0.000 A 
ATOM     16  C   UNL     1     111.805 126.073 136.312  0.00  0.00    +0.000 A 
ATOM     17  C   UNL     1     112.919 125.666 137.108  0.00  0.00    +0.000 A 
ATOM     18  C   UNL     1     111.546 125.292 136.272  0.00  0.00    +0.000 A 
ATOM     19  C   UNL     1     112.661 124.882 137.068  0.00  0.00    +0.000 A 
ATOM     20  C   UNL     1     111.974 124.696 136.650  0.00  0.00    +0.000 A 
BRANCH  18  21
ATOM     21  O   UNL     1     110.860 125.104 135.855  0.00  0.00    +0.000 OA
ATOM     22  C   UNL     1     110.657 125.534 135.180  0.00  0.00    +0.000 C 
ENDBRANCH  18  21
ENDBRANCH   6  15
BRANCH   5  23
ATOM     23  O   UNL     1     112.175 127.168 138.071  0.00  0.00    +0.000 OA
BRANCH  23  31
ATOM     24  O   UNL     1     110.959 127.869 137.803  0.00  0.00    +0.000 OA
ATOM     25  O   UNL     1     110.456 127.925 140.226  0.00  0.00    +0.000 OA
ATOM     26  O   UNL     1     109.408 128.607 139.150  0.00  0.00    +0.000 OA
ATOM     27  C   UNL     1     110.624 127.906 139.418  0.00  0.00    +0.000 C 
ATOM     28  C   UNL     1     110.100 128.247 138.881  0.00  0.00    +0.000 C 
ATOM     29  C   UNL     1     111.316 127.546 139.149  0.00  0.00    +0.000 C 
ATOM     30  C   UNL     1     110.267 128.228 138.073  0.00  0.00    +0.000 C 
ATOM     31  C   UNL     1     111.483 127.528 138.341  0.00  0.00    +0.000 C 
BRANCH  30  33
ATOM     32  O   UNL     1     109.292 128.088 137.038  0.00  0.00    +0.000 OA
ATOM     33  C   UNL     1     109.743 128.569 137.535  0.00  0.00    +0.000 C 
ENDBRANCH  30  33
BRANCH  29  34
ATOM     34  O   UNL     1     111.840 127.205 139.686  0.00  0.00    +0.000 OA
BRANCH  34  36
ATOM     35  O   UNL     1     111.137 125.979 139.901  0.00  0.00    +0.000 OA
ATOM     36  C   UNL     1     111.579 126.611 140.196  0.00  0.00    +0.000 C 
ATOM     37  C   UNL     1     111.761 126.647 141.000  0.00  0.00    +0.000 C 
ENDBRANCH  34  36
ENDBRANCH  29  34
ENDBRANCH  23  31
ENDBRANCH   5  23
TORSDOF 7
ENDMDL
MODEL 5
REMARK VINA RESULT:      -8.6      7.575     10.597
REMARK  Name = 44259375
REMARK  7 active torsions:
REMARK  status: ('A' for Active; 'I' for Inactive)
REMARK    1  A    between atoms: O_2  and  C_16
REMARK    2  A    between atoms: O_2  and  C_21
REMARK    3  A    between atoms: O_3  and  C_18
REMARK    4  A    between atoms: O_3  and  C_20
REMARK    5  A    between atoms: O_12  and  C_34
REMARK    6  A    between atoms: C_17  and  C_19
REMARK    7  A    between atoms: C_22  and  C_26
REMARK                            x       y       z     vdW  Elec       q    Type
REMARK                         _______ _______ _______ _____ _____    ______ ____
ROOT
ATOM      1  O   UNL     1     113.757 126.216 138.492  0.00  0.00    +0.000 OA
ATOM      2  O   UNL     1     111.651 125.039 137.938  0.00  0.00    +0.000 OA
ATOM      3  O   UNL     1     112.306 124.301 136.885  0.00  0.00    +0.000 OA
ATOM      4  O   UNL     1     115.145 124.763 136.384  0.00  0.00    +0.000 OA
ATOM      5  C   UNL     1     112.368 125.986 138.733  0.00  0.00    +0.000 A 
ATOM      6  C   UNL     1     113.070 126.379 138.918  0.00  0.00    +0.000 A 
ATOM      7  C   UNL     1     112.353 125.432 138.123  0.00  0.00    +0.000 A 
ATOM      8  C   UNL     1     113.040 125.269 137.697  0.00  0.00    +0.000 A 
ATOM      9  C   UNL     1     113.743 125.661 137.881  0.00  0.00    +0.000 A 
ATOM     10  C   UNL     1     113.012 124.689 137.063  0.00  0.00    +0.000 A 
ATOM     11  C   UNL     1     114.466 125.500 137.445  0.00  0.00    +0.000 A 
ATOM     12  C   UNL     1     113.726 124.515 136.616  0.00  0.00    +0.000 A 
ATOM     13  C   UNL     1     114.456 124.924 136.808  0.00  0.00    +0.000 A 
ENDROOT
BRANCH   6  15
ATOM     14  O   UNL     1     113.129 128.598 141.360  0.00  0.00    +0.000 OA
ATOM     15  C   UNL     1     113.084 126.933 139.528  0.00  0.00    +0.000 A 
ATOM     16  C   UNL     1     113.052 127.739 139.354  0.00  0.00    +0.000 A 
ATOM     17  C   UNL     1     113.131 126.682 140.312  0.00  0.00    +0.000 A 
ATOM     18  C   UNL     1     113.067 128.294 139.964  0.00  0.00    +0.000 A 
ATOM     19  C   UNL     1     113.146 127.237 140.923  0.00  0.00    +0.000 A 
ATOM     20  C   UNL     1     113.114 128.043 140.749  0.00  0.00    +0.000 A 
BRANCH  18  21
ATOM     21  O   UNL     1     113.035 129.100 139.791  0.00  0.00    +0.000 OA
ATOM     22  C   UNL     1     113.439 129.397 139.136  0.00  0.00    +0.000 C 
ENDBRANCH  18  21
ENDBRANCH   6  15
BRANCH   5  23
ATOM     23  O   UNL     1     111.680 126.149 139.159  0.00  0.00    +0.000 OA
BRANCH  23  31
ATOM     24  O   UNL     1     111.064 126.890 138.103  0.00  0.00    +0.000 OA
ATOM     25  O   UNL     1     108.834 126.179 138.905  0.00  0.00    +0.000 OA
ATOM     26  O   UNL     1     108.962 127.156 137.583  0.00  0.00    +0.000 OA
ATOM     27  C   UNL     1     109.577 126.416 138.638  0.00  0.00    +0.000 C 
ATOM     28  C   UNL     1     109.641 126.904 137.977  0.00  0.00    +0.000 C 
ATOM     29  C   UNL     1     110.257 126.164 139.033  0.00  0.00    +0.000 C 
ATOM     30  C   UNL     1     110.385 127.141 137.710  0.00  0.00    +0.000 C 
ATOM     31  C   UNL     1     111.000 126.401 138.765  0.00  0.00    +0.000 C 
BRANCH  30  33
ATOM     32  O   UNL     1     110.773 128.386 137.125  0.00  0.00    +0.000 OA
ATOM     33  C   UNL     1     110.449 127.630 137.048  0.00  0.00    +0.000 C 
ENDBRANCH  30  33
BRANCH  29  34
ATOM     34  O   UNL     1     110.193 125.675 139.694  0.00  0.00    +0.000 OA
BRANCH  34  36
ATOM     35  O   UNL     1     109.847 126.667 140.662  0.00  0.00    +0.000 OA
ATOM     36  C   UNL     1     109.742 125.915 140.341  0.00  0.00    +0.000 C 
ATOM     37  C   UNL     1     109.185 125.401 140.669  0.00  0.00    +0.000 C 
ENDBRANCH  34  36
ENDBRANCH  29  34
ENDBRANCH  23  31
ENDBRANCH   5  23
TORSDOF 7
ENDMDL
MODEL 6
REMARK VINA RESULT:      -8.5      8.590     11.800
REMARK  Name = 44259375
REMARK  7 active torsions:
REMARK  status: ('A' for Active; 'I' for Inactive)
REMARK    1  A    between atoms: O_2  and  C_16
REMARK    2  A    between atoms: O_2  and  C_21
REMARK    3  A    between atoms: O_3  and  C_18
REMARK    4  A    between atoms: O_3  and  C_20
REMARK    5  A    between atoms: O_12  and  C_34
REMARK    6  A    between atoms: C_17  and  C_19
REMARK    7  A    between atoms: C_22  and  C_26
REMARK                            x       y       z     vdW  Elec       q    Type
REMARK                         _______ _______ _______ _____ _____    ______ ____
ROOT
ATOM      1  O   UNL     1     111.336 128.299 137.918  0.00  0.00    +0.000 OA
ATOM      2  O   UNL     1     111.704 125.951 138.610  0.00  0.00    +0.000 OA
ATOM      3  O   UNL     1     110.666 126.052 139.607  0.00  0.00    +0.000 OA
ATOM      4  O   UNL     1     109.230 128.577 139.910  0.00  0.00    +0.000 OA
ATOM      5  C   UNL     1     112.036 127.061 137.774  0.00  0.00    +0.000 A 
ATOM      6  C   UNL     1     111.914 127.844 137.543  0.00  0.00    +0.000 A 
ATOM      7  C   UNL     1     111.582 126.734 138.379  0.00  0.00    +0.000 A 
ATOM      8  C   UNL     1     111.004 127.189 138.754  0.00  0.00    +0.000 A 
ATOM      9  C   UNL     1     110.881 127.971 138.524  0.00  0.00    +0.000 A 
ATOM     10  C   UNL     1     110.537 126.835 139.383  0.00  0.00    +0.000 A 
ATOM     11  C   UNL     1     110.283 128.455 138.906  0.00  0.00    +0.000 A 
ATOM     12  C   UNL     1     109.934 127.305 139.777  0.00  0.00    +0.000 A 
ATOM     13  C   UNL     1     109.807 128.119 139.537  0.00  0.00    +0.000 A 
ENDROOT
BRANCH   6  15
ATOM     14  O   UNL     1     113.733 129.156 135.123  0.00  0.00    +0.000 OA
ATOM     15  C   UNL     1     112.368 128.172 136.938  0.00  0.00    +0.000 A 
ATOM     16  C   UNL     1     112.051 128.255 136.181  0.00  0.00    +0.000 A 
ATOM     17  C   UNL     1     113.141 128.417 137.090  0.00  0.00    +0.000 A 
ATOM     18  C   UNL     1     112.505 128.583 135.577  0.00  0.00    +0.000 A 
ATOM     19  C   UNL     1     113.597 128.745 136.485  0.00  0.00    +0.000 A 
ATOM     20  C   UNL     1     113.278 128.828 135.728  0.00  0.00    +0.000 A 
BRANCH  18  21
ATOM     21  O   UNL     1     112.187 128.666 134.820  0.00  0.00    +0.000 OA
ATOM     22  C   UNL     1     111.398 128.887 134.726  0.00  0.00    +0.000 C 
ENDBRANCH  18  21
ENDBRANCH   6  15
BRANCH   5  23
ATOM     23  O   UNL     1     112.613 126.607 137.399  0.00  0.00    +0.000 OA
BRANCH  23  31
ATOM     24  O   UNL     1     111.692 125.823 136.639  0.00  0.00    +0.000 OA
ATOM     25  O   UNL     1     113.225 123.885 136.776  0.00  0.00    +0.000 OA
ATOM     26  O   UNL     1     111.793 123.748 135.970  0.00  0.00    +0.000 OA
ATOM     27  C   UNL     1     112.714 124.531 136.731  0.00  0.00    +0.000 C 
ATOM     28  C   UNL     1     111.998 124.462 136.328  0.00  0.00    +0.000 C 
ATOM     29  C   UNL     1     112.920 125.246 137.088  0.00  0.00    +0.000 C 
ATOM     30  C   UNL     1     111.487 125.108 136.282  0.00  0.00    +0.000 C 
ATOM     31  C   UNL     1     112.409 125.892 137.042  0.00  0.00    +0.000 C 
BRANCH  30  33
ATOM     32  O   UNL     1     110.642 125.478 135.190  0.00  0.00    +0.000 OA
ATOM     33  C   UNL     1     110.770 125.040 135.879  0.00  0.00    +0.000 C 
ENDBRANCH  30  33
BRANCH  29  34
ATOM     34  O   UNL     1     113.636 125.315 137.491  0.00  0.00    +0.000 OA
BRANCH  34  36
ATOM     35  O   UNL     1     114.518 125.518 136.386  0.00  0.00    +0.000 OA
ATOM     36  C   UNL     1     114.345 125.150 137.103  0.00  0.00    +0.000 C 
ATOM     37  C   UNL     1     114.881 124.616 137.433  0.00  0.00    +0.000 C 
ENDBRANCH  34  36
ENDBRANCH  29  34
ENDBRANCH  23  31
ENDBRANCH   5  23
TORSDOF 7
ENDMDL
MODEL 7
REMARK VINA RESULT:      -8.5      9.257     11.925
REMARK  Name = 44259375
REMARK  7 active torsions:
REMARK  status: ('A' for Active; 'I' for Inactive)
REMARK    1  A    between atoms: O_2  and  C_16
REMARK    2  A    between atoms: O_2  and  C_21
REMARK    3  A    between atoms: O_3  and  C_18
REMARK    4  A    between atoms: O_3  and  C_20
REMARK    5  A    between atoms: O_12  and  C_34
REMARK    6  A    between atoms: C_17  and  C_19
REMARK    7  A    between atoms: C_22  and  C_26
REMARK                            x       y       z     vdW  Elec       q    Type
REMARK                         _______ _______ _______ _____ _____    ______ ____
ROOT
ATOM      1  O   UNL     1     111.730 129.508 135.869  0.00  0.00    +0.000 OA
ATOM      2  O   UNL     1     112.205 130.858 137.888  0.00  0.00    +0.000 OA
ATOM      3  O   UNL     1     113.609 130.910 137.559  0.00  0.00    +0.000 OA
ATOM      4  O   UNL     1     114.549 129.571 135.140  0.00  0.00    +0.000 OA
ATOM      5  C   UNL     1     111.275 130.165 137.053  0.00  0.00    +0.000 A 
ATOM      6  C   UNL     1     111.116 129.715 136.380  0.00  0.00    +0.000 A 
ATOM      7  C   UNL     1     112.046 130.408 137.215  0.00  0.00    +0.000 A 
ATOM      8  C   UNL     1     112.660 130.201 136.704  0.00  0.00    +0.000 A 
ATOM      9  C   UNL     1     112.502 129.751 136.031  0.00  0.00    +0.000 A 
ATOM     10  C   UNL     1     113.459 130.461 136.883  0.00  0.00    +0.000 A 
ATOM     11  C   UNL     1     113.132 129.529 135.490  0.00  0.00    +0.000 A 
ATOM     12  C   UNL     1     114.102 130.248 136.354  0.00  0.00    +0.000 A 
ATOM     13  C   UNL     1     113.937 129.779 135.653  0.00  0.00    +0.000 A 
ENDROOT
BRANCH   6  15
ATOM     14  O   UNL     1     108.030 128.742 135.732  0.00  0.00    +0.000 OA
ATOM     15  C   UNL     1     110.345 129.472 136.219  0.00  0.00    +0.000 A 
ATOM     16  C   UNL     1     110.035 128.805 136.593  0.00  0.00    +0.000 A 
ATOM     17  C   UNL     1     109.884 129.895 135.682  0.00  0.00    +0.000 A 
ATOM     18  C   UNL     1     109.264 128.562 136.431  0.00  0.00    +0.000 A 
ATOM     19  C   UNL     1     109.111 129.652 135.520  0.00  0.00    +0.000 A 
ATOM     20  C   UNL     1     108.802 128.985 135.894  0.00  0.00    +0.000 A 
BRANCH  18  21
ATOM     21  O   UNL     1     108.954 127.895 136.805  0.00  0.00    +0.000 OA
ATOM     22  C   UNL     1     109.401 127.203 136.851  0.00  0.00    +0.000 C 
ENDBRANCH  18  21
ENDBRANCH   6  15
BRANCH   5  23
ATOM     23  O   UNL     1     110.662 130.372 137.565  0.00  0.00    +0.000 OA
BRANCH  23  31
ATOM     24  O   UNL     1     110.630 131.745 137.170  0.00  0.00    +0.000 OA
ATOM     25  O   UNL     1     109.914 132.384 139.451  0.00  0.00    +0.000 OA
ATOM     26  O   UNL     1     110.122 133.543 138.297  0.00  0.00    +0.000 OA
ATOM     27  C   UNL     1     110.153 132.171 138.691  0.00  0.00    +0.000 C 
ATOM     28  C   UNL     1     110.257 132.751 138.114  0.00  0.00    +0.000 C 
ATOM     29  C   UNL     1     110.288 131.378 138.509  0.00  0.00    +0.000 C 
ATOM     30  C   UNL     1     110.495 132.538 137.354  0.00  0.00    +0.000 C 
ATOM     31  C   UNL     1     110.527 131.165 137.748  0.00  0.00    +0.000 C 
BRANCH  30  33
ATOM     32  O   UNL     1     110.090 133.147 136.127  0.00  0.00    +0.000 OA
ATOM     33  C   UNL     1     110.599 133.117 136.776  0.00  0.00    +0.000 C 
ENDBRANCH  30  33
BRANCH  29  34
ATOM     34  O   UNL     1     110.184 130.798 139.086  0.00  0.00    +0.000 OA
BRANCH  34  36
ATOM     35  O   UNL     1     108.762 130.685 139.009  0.00  0.00    +0.000 OA
ATOM     36  C   UNL     1     109.453 130.713 139.458  0.00  0.00    +0.000 C 
ATOM     37  C   UNL     1     109.413 130.656 140.281  0.00  0.00    +0.000 C 
ENDBRANCH  34  36
ENDBRANCH  29  34
ENDBRANCH  23  31
ENDBRANCH   5  23
TORSDOF 7
ENDMDL
MODEL 8
REMARK VINA RESULT:      -8.4      8.121     10.934
REMARK  Name = 44259375
REMARK  7 active torsions:
REMARK  status: ('A' for Active; 'I' for Inactive)
REMARK    1  A    between atoms: O_2  and  C_16
REMARK    2  A    between atoms: O_2  and  C_21
REMARK    3  A    between atoms: O_3  and  C_18
REMARK    4  A    between atoms: O_3  and  C_20
REMARK    5  A    between atoms: O_12  and  C_34
REMARK    6  A    between atoms: C_17  and  C_19
REMARK    7  A    between atoms: C_22  and  C_26
REMARK                            x       y       z     vdW  Elec       q    Type
REMARK                         _______ _______ _______ _____ _____    ______ ____
ROOT
ATOM      1  O   UNL     1     112.390 125.513 138.295  0.00  0.00    +0.000 OA
ATOM      2  O   UNL     1     112.137 127.201 136.502  0.00  0.00    +0.000 OA
ATOM      3  O   UNL     1     111.765 126.179 135.554  0.00  0.00    +0.000 OA
ATOM      4  O   UNL     1     111.647 123.398 136.436  0.00  0.00    +0.000 OA
ATOM      5  C   UNL     1     112.447 126.872 137.858  0.00  0.00    +0.000 A 
ATOM      6  C   UNL     1     112.531 126.310 138.456  0.00  0.00    +0.000 A 
ATOM      7  C   UNL     1     112.222 126.638 137.100  0.00  0.00    +0.000 A 
ATOM      8  C   UNL     1     112.081 125.841 136.939  0.00  0.00    +0.000 A 
ATOM      9  C   UNL     1     112.165 125.278 137.536  0.00  0.00    +0.000 A 
ATOM     10  C   UNL     1     111.847 125.610 136.145  0.00  0.00    +0.000 A 
ATOM     11  C   UNL     1     112.022 124.446 137.382  0.00  0.00    +0.000 A 
ATOM     12  C   UNL     1     111.699 124.781 135.972  0.00  0.00    +0.000 A 
ATOM     13  C   UNL     1     111.787 124.196 136.594  0.00  0.00    +0.000 A 
ENDROOT
BRANCH   6  15
ATOM     14  O   UNL     1     113.432 127.246 141.490  0.00  0.00    +0.000 OA
ATOM     15  C   UNL     1     112.756 126.544 139.214  0.00  0.00    +0.000 A 
ATOM     16  C   UNL     1     112.187 126.631 139.806  0.00  0.00    +0.000 A 
ATOM     17  C   UNL     1     113.550 126.691 139.382  0.00  0.00    +0.000 A 
ATOM     18  C   UNL     1     112.412 126.864 140.564  0.00  0.00    +0.000 A 
ATOM     19  C   UNL     1     113.776 126.925 140.141  0.00  0.00    +0.000 A 
ATOM     20  C   UNL     1     113.206 127.012 140.731  0.00  0.00    +0.000 A 
BRANCH  18  21
ATOM     21  O   UNL     1     111.843 126.951 141.155  0.00  0.00    +0.000 OA
ATOM     22  C   UNL     1     111.163 126.485 141.144  0.00  0.00    +0.000 C 
ENDBRANCH  18  21
ENDBRANCH   6  15
BRANCH   5  23
ATOM     23  O   UNL     1     112.587 127.669 138.019  0.00  0.00    +0.000 OA
BRANCH  23  31
ATOM     24  O   UNL     1     111.209 128.043 137.981  0.00  0.00    +0.000 OA
ATOM     25  O   UNL     1     111.842 130.291 137.162  0.00  0.00    +0.000 OA
ATOM     26  O   UNL     1     110.253 129.916 137.397  0.00  0.00    +0.000 OA
ATOM     27  C   UNL     1     111.631 129.542 137.435  0.00  0.00    +0.000 C 
ATOM     28  C   UNL     1     110.837 129.355 137.552  0.00  0.00    +0.000 C 
ATOM     29  C   UNL     1     112.215 128.980 137.590  0.00  0.00    +0.000 C 
ATOM     30  C   UNL     1     110.626 128.605 137.826  0.00  0.00    +0.000 C 
ATOM     31  C   UNL     1     112.004 128.231 137.863  0.00  0.00    +0.000 C 
BRANCH  30  33
ATOM     32  O   UNL     1     109.554 128.256 138.704  0.00  0.00    +0.000 OA
ATOM     33  C   UNL     1     109.831 128.417 137.943  0.00  0.00    +0.000 C 
ENDBRANCH  30  33
BRANCH  29  34
ATOM     34  O   UNL     1     113.009 129.168 137.473  0.00  0.00    +0.000 OA
BRANCH  34  36
ATOM     35  O   UNL     1     113.202 129.919 138.673  0.00  0.00    +0.000 OA
ATOM     36  C   UNL     1     113.345 129.809 137.868  0.00  0.00    +0.000 C 
ATOM     37  C   UNL     1     113.823 130.343 137.458  0.00  0.00    +0.000 C 
ENDBRANCH  34  36
ENDBRANCH  29  34
ENDBRANCH  23  31
ENDBRANCH   5  23
TORSDOF 7
ENDMDL
MODEL 9
REMARK VINA RESULT:      -8.4      8.449     11.425
REMARK  Name = 44259375
REMARK  7 active torsions:
REMARK  status: ('A' for Active; 'I' for Inactive)
REMARK    1  A    between atoms: O_2  and  C_16
REMARK    2  A    between atoms: O_2  and  C_21
REMARK    3  A    between atoms: O_3  and  C_18
REMARK    4  A    between atoms: O_3  and  C_20
REMARK    5  A    between atoms: O_12  and  C_34
REMARK    6  A    between atoms: C_17  and  C_19
REMARK    7  A    between atoms: C_22  and  C_26
REMARK                            x       y       z     vdW  Elec       q    Type
REMARK                         _______ _______ _______ _____ _____    ______ ____
ROOT
ATOM      1  O   UNL     1     113.026 128.603 138.211  0.00  0.00    +0.000 OA
ATOM      2  O   UNL     1     112.697 127.456 136.043  0.00  0.00    +0.000 OA
ATOM      3  O   UNL     1     113.207 128.600 135.327  0.00  0.00    +0.000 OA
ATOM      4  O   UNL     1     114.065 130.950 136.834  0.00  0.00    +0.000 OA
ATOM      5  C   UNL     1     112.608 127.456 137.469  0.00  0.00    +0.000 A 
ATOM      6  C   UNL     1     112.717 127.839 138.192  0.00  0.00    +0.000 A 
ATOM      7  C   UNL     1     112.807 127.838 136.766  0.00  0.00    +0.000 A 
ATOM      8  C   UNL     1     113.116 128.603 136.785  0.00  0.00    +0.000 A 
ATOM      9  C   UNL     1     113.226 128.986 137.507  0.00  0.00    +0.000 A 
ATOM     10  C   UNL     1     113.319 128.990 136.045  0.00  0.00    +0.000 A 
ATOM     11  C   UNL     1     113.547 129.782 137.541  0.00  0.00    +0.000 A 
ATOM     12  C   UNL     1     113.642 129.787 136.059  0.00  0.00    +0.000 A 
ATOM     13  C   UNL     1     113.756 130.185 136.812  0.00  0.00    +0.000 A 
ENDROOT
BRANCH   6  15
ATOM     14  O   UNL     1     111.921 126.311 141.007  0.00  0.00    +0.000 OA
ATOM     15  C   UNL     1     112.518 127.457 138.895  0.00  0.00    +0.000 A 
ATOM     16  C   UNL     1     111.805 127.631 139.273  0.00  0.00    +0.000 A 
ATOM     17  C   UNL     1     113.032 126.901 139.222  0.00  0.00    +0.000 A 
ATOM     18  C   UNL     1     111.606 127.250 139.976  0.00  0.00    +0.000 A 
ATOM     19  C   UNL     1     112.833 126.518 139.926  0.00  0.00    +0.000 A 
ATOM     20  C   UNL     1     112.120 126.693 140.303  0.00  0.00    +0.000 A 
BRANCH  18  21
ATOM     21  O   UNL     1     110.893 127.424 140.353  0.00  0.00    +0.000 OA
ATOM     22  C   UNL     1     110.618 128.201 140.376  0.00  0.00    +0.000 C 
ENDBRANCH  18  21
ENDBRANCH   6  15
BRANCH   5  23
ATOM     23  O   UNL     1     112.299 126.692 137.450  0.00  0.00    +0.000 OA
BRANCH  23  31
ATOM     24  O   UNL     1     111.012 127.089 136.971  0.00  0.00    +0.000 OA
ATOM     25  O   UNL     1     110.797 124.939 135.765  0.00  0.00    +0.000 OA
ATOM     26  O   UNL     1     109.583 126.053 135.688  0.00  0.00    +0.000 OA
ATOM     27  C   UNL     1     110.869 125.655 136.167  0.00  0.00    +0.000 C 
ATOM     28  C   UNL     1     110.262 126.212 136.128  0.00  0.00    +0.000 C 
ATOM     29  C   UNL     1     111.548 125.815 136.607  0.00  0.00    +0.000 C 
ATOM     30  C   UNL     1     110.334 126.929 136.530  0.00  0.00    +0.000 C 
ATOM     31  C   UNL     1     111.620 126.531 137.009  0.00  0.00    +0.000 C 
BRANCH  30  33
ATOM     32  O   UNL     1     109.296 127.673 137.171  0.00  0.00    +0.000 OA
ATOM     33  C   UNL     1     109.727 127.486 136.492  0.00  0.00    +0.000 C 
ENDBRANCH  30  33
BRANCH  29  34
ATOM     34  O   UNL     1     112.155 125.258 136.646  0.00  0.00    +0.000 OA
BRANCH  34  36
ATOM     35  O   UNL     1     111.540 124.414 137.621  0.00  0.00    +0.000 OA
ATOM     36  C   UNL     1     112.005 124.504 136.946  0.00  0.00    +0.000 C 
ATOM     37  C   UNL     1     112.320 123.840 136.570  0.00  0.00    +0.000 C 
ENDBRANCH  34  36
ENDBRANCH  29  34
ENDBRANCH  23  31
ENDBRANCH   5  23
TORSDOF 7
ENDMDL
MODEL 10
REMARK VINA RESULT:      -8.4      9.633     12.320
REMARK  Name = 44259375
REMARK  7 active torsions:
REMARK  status: ('A' for Active; 'I' for Inactive)
REMARK    1  A    between atoms: O_2  and  C_16
REMARK    2  A    between atoms: O_2  and  C_21
REMARK    3  A    between atoms: O_3  and  C_18
REMARK    4  A    between atoms: O_3  and  C_20
REMARK    5  A    between atoms: O_12  and  C_34
REMARK    6  A    between atoms: C_17  and  C_19
REMARK    7  A    between atoms: C_22  and  C_26
REMARK                            x       y       z     vdW  Elec       q    Type
REMARK                         _______ _______ _______ _____ _____    ______ ____
ROOT
ATOM      1  O   UNL     1     113.833 127.396 136.588  0.00  0.00    +0.000 OA
ATOM      2  O   UNL     1     111.473 126.737 136.233  0.00  0.00    +0.000 OA
ATOM      3  O   UNL     1     111.804 125.344 136.419  0.00  0.00    +0.000 OA
ATOM      4  O   UNL     1     114.573 124.606 136.973  0.00  0.00    +0.000 OA
ATOM      5  C   UNL     1     112.476 127.752 136.317  0.00  0.00    +0.000 A 
ATOM      6  C   UNL     1     113.262 127.972 136.435  0.00  0.00    +0.000 A 
ATOM      7  C   UNL     1     112.260 126.957 136.351  0.00  0.00    +0.000 A 
ATOM      8  C   UNL     1     112.830 126.381 136.504  0.00  0.00    +0.000 A 
ATOM      9  C   UNL     1     113.616 126.599 136.623  0.00  0.00    +0.000 A 
ATOM     10  C   UNL     1     112.592 125.555 136.538  0.00  0.00    +0.000 A 
ATOM     11  C   UNL     1     114.220 126.009 136.783  0.00  0.00    +0.000 A 
ATOM     12  C   UNL     1     113.182 124.951 136.697  0.00  0.00    +0.000 A 
ATOM     13  C   UNL     1     114.001 125.179 136.820  0.00  0.00    +0.000 A 
ENDROOT
BRANCH   6  15
ATOM     14  O   UNL     1     114.127 131.153 136.295  0.00  0.00    +0.000 OA
ATOM     15  C   UNL     1     113.478 128.766 136.400  0.00  0.00    +0.000 A 
ATOM     16  C   UNL     1     113.536 129.210 137.094  0.00  0.00    +0.000 A 
ATOM     17  C   UNL     1     113.637 129.119 135.671  0.00  0.00    +0.000 A 
ATOM     18  C   UNL     1     113.752 130.004 137.059  0.00  0.00    +0.000 A 
ATOM     19  C   UNL     1     113.854 129.915 135.636  0.00  0.00    +0.000 A 
ATOM     20  C   UNL     1     113.911 130.357 136.330  0.00  0.00    +0.000 A 
BRANCH  18  21
ATOM     21  O   UNL     1     113.810 130.448 137.753  0.00  0.00    +0.000 OA
ATOM     22  C   UNL     1     114.118 130.105 138.436  0.00  0.00    +0.000 C 
ENDBRANCH  18  21
ENDBRANCH   6  15
BRANCH   5  23
ATOM     23  O   UNL     1     111.905 128.328 136.164  0.00  0.00    +0.000 OA
BRANCH  23  31
ATOM     24  O   UNL     1     111.293 128.222 137.450  0.00  0.00    +0.000 OA
ATOM     25  O   UNL     1     109.117 128.875 136.468  0.00  0.00    +0.000 OA
ATOM     26  O   UNL     1     109.230 128.552 138.081  0.00  0.00    +0.000 OA
ATOM     27  C   UNL     1     109.842 128.658 136.796  0.00  0.00    +0.000 C 
ATOM     28  C   UNL     1     109.898 128.496 137.602  0.00  0.00    +0.000 C 
ATOM     29  C   UNL     1     110.511 128.602 136.315  0.00  0.00    +0.000 C 
ATOM     30  C   UNL     1     110.624 128.278 137.929  0.00  0.00    +0.000 C 
ATOM     31  C   UNL     1     111.236 128.384 136.643  0.00  0.00    +0.000 C 
BRANCH  30  33
ATOM     32  O   UNL     1     111.149 128.594 139.220  0.00  0.00    +0.000 OA
ATOM     33  C   UNL     1     110.681 128.116 138.736  0.00  0.00    +0.000 C 
ENDBRANCH  30  33
BRANCH  29  34
ATOM     34  O   UNL     1     110.455 128.763 135.509  0.00  0.00    +0.000 OA
BRANCH  34  36
ATOM     35  O   UNL     1     110.448 130.186 135.639  0.00  0.00    +0.000 OA
ATOM     36  C   UNL     1     110.193 129.503 135.254  0.00  0.00    +0.000 C 
ATOM     37  C   UNL     1     109.677 129.560 134.612  0.00  0.00    +0.000 C 
ENDBRANCH  34  36
ENDBRANCH  29  34
ENDBRANCH  23  31
ENDBRANCH   5  23
TORSDOF 7
ENDMDL
