MODEL 1
REMARK VINA RESULT:      -8.4      0.000      0.000
REMARK  Name = 44259694
REMARK  4 active torsions:
REMARK  status: ('A' for Active; 'I' for Inactive)
REMARK    1  A    between atoms: O_2  and  C_13
REMARK    2  A    between atoms: O_3  and  C_15
REMARK    3  A    between atoms: O_6  and  C_21
REMARK    4  A    between atoms: C_11  and  C_16
REMARK                            x       y       z     vdW  Elec       q    Type
REMARK                         _______ _______ _______ _____ _____    ______ ____
ROOT
ATOM      1  O   UNL     1     105.145 124.237 147.210  0.00  0.00    +0.000 OA
ATOM      2  O   UNL     1     107.486 125.698 146.352  0.00  0.00    +0.000 OA
ATOM      3  O   UNL     1     106.425 125.381 145.427  0.00  0.00    +0.000 OA
ATOM      4  C   UNL     1     105.877 124.578 147.381  0.00  0.00    +0.000 A 
ATOM      5  C   UNL     1     106.303 124.960 146.787  0.00  0.00    +0.000 A 
ATOM      6  C   UNL     1     106.184 124.530 148.182  0.00  0.00    +0.000 A 
ATOM      7  C   UNL     1     104.841 124.277 146.444  0.00  0.00    +0.000 A 
ATOM      8  C   UNL     1     105.999 125.000 146.022  0.00  0.00    +0.000 A 
ATOM      9  C   UNL     1     105.267 124.659 145.849  0.00  0.00    +0.000 A 
ATOM     10  C   UNL     1     107.066 125.319 146.953  0.00  0.00    +0.000 A 
ATOM     11  C   UNL     1     106.944 124.883 148.367  0.00  0.00    +0.000 A 
ATOM     12  C   UNL     1     107.389 125.280 147.748  0.00  0.00    +0.000 A 
ATOM     13  C   UNL     1     105.750 124.146 148.770  0.00  0.00    +0.000 C 
ENDROOT
BRANCH   7  15
ATOM     14  O   UNL     1     101.916 122.909 145.760  0.00  0.00    +0.000 OA
ATOM     15  C   UNL     1     104.109 123.936 146.273  0.00  0.00    +0.000 A 
ATOM     16  C   UNL     1     103.413 124.336 146.461  0.00  0.00    +0.000 A 
ATOM     17  C   UNL     1     104.075 123.193 145.914  0.00  0.00    +0.000 A 
ATOM     18  C   UNL     1     102.682 123.993 146.290  0.00  0.00    +0.000 A 
ATOM     19  C   UNL     1     103.344 122.852 145.743  0.00  0.00    +0.000 A 
ATOM     20  C   UNL     1     102.647 123.252 145.931  0.00  0.00    +0.000 A 
BRANCH  18  21
ATOM     21  O   UNL     1     101.985 124.393 146.478  0.00  0.00    +0.000 OA
ATOM     22  C   UNL     1     101.879 124.704 147.235  0.00  0.00    +0.000 C 
ENDBRANCH  18  21
ENDBRANCH   7  15
BRANCH   9  23
ATOM     23  O   UNL     1     104.963 124.699 145.085  0.00  0.00    +0.000 OA
ATOM     24  C   UNL     1     105.467 124.837 144.447  0.00  0.00    +0.000 C 
ENDBRANCH   9  23
BRANCH  11  25
ATOM     25  O   UNL     1     107.246 124.841 149.134  0.00  0.00    +0.000 OA
ATOM     26  C   UNL     1     108.013 124.564 149.260  0.00  0.00    +0.000 C 
ENDBRANCH  11  25
TORSDOF 4
ENDMDL
MODEL 2
REMARK VINA RESULT:      -8.3      1.182      4.485
REMARK  Name = 44259694
REMARK  4 active torsions:
REMARK  status: ('A' for Active; 'I' for Inactive)
REMARK    1  A    between atoms: O_2  and  C_13
REMARK    2  A    between atoms: O_3  and  C_15
REMARK    3  A    between atoms: O_6  and  C_21
REMARK    4  A    between atoms: C_11  and  C_16
REMARK                            x       y       z     vdW  Elec       q    Type
REMARK                         _______ _______ _______ _____ _____    ______ ____
ROOT
ATOM      1  O   UNL     1     104.316 124.265 146.620  0.00  0.00    +0.000 OA
ATOM      2  O   UNL     1     101.685 124.996 147.563  0.00  0.00    +0.000 OA
ATOM      3  O   UNL     1     102.857 125.716 147.995  0.00  0.00    +0.000 OA
ATOM      4  C   UNL     1     103.501 124.142 146.628  0.00  0.00    +0.000 A 
ATOM      5  C   UNL     1     103.014 124.626 147.086  0.00  0.00    +0.000 A 
ATOM      6  C   UNL     1     103.169 123.506 146.153  0.00  0.00    +0.000 A 
ATOM      7  C   UNL     1     104.646 124.872 147.072  0.00  0.00    +0.000 A 
ATOM      8  C   UNL     1     103.343 125.232 147.537  0.00  0.00    +0.000 A 
ATOM      9  C   UNL     1     104.159 125.356 147.530  0.00  0.00    +0.000 A 
ATOM     10  C   UNL     1     102.163 124.507 147.101  0.00  0.00    +0.000 A 
ATOM     11  C   UNL     1     102.321 123.373 146.156  0.00  0.00    +0.000 A 
ATOM     12  C   UNL     1     101.814 123.877 146.634  0.00  0.00    +0.000 A 
ATOM     13  C   UNL     1     103.664 123.028 145.698  0.00  0.00    +0.000 C 
ENDROOT
BRANCH   7  15
ATOM     14  O   UNL     1     107.909 125.363 147.044  0.00  0.00    +0.000 OA
ATOM     15  C   UNL     1     105.461 124.995 147.064  0.00  0.00    +0.000 A 
ATOM     16  C   UNL     1     105.814 125.391 146.432  0.00  0.00    +0.000 A 
ATOM     17  C   UNL     1     105.925 124.722 147.691  0.00  0.00    +0.000 A 
ATOM     18  C   UNL     1     106.630 125.513 146.425  0.00  0.00    +0.000 A 
ATOM     19  C   UNL     1     106.741 124.845 147.683  0.00  0.00    +0.000 A 
ATOM     20  C   UNL     1     107.093 125.240 147.050  0.00  0.00    +0.000 A 
BRANCH  18  21
ATOM     21  O   UNL     1     106.982 125.908 145.793  0.00  0.00    +0.000 OA
ATOM     22  C   UNL     1     106.535 126.419 145.325  0.00  0.00    +0.000 C 
ENDBRANCH  18  21
ENDBRANCH   7  15
BRANCH   9  23
ATOM     23  O   UNL     1     104.489 125.963 147.981  0.00  0.00    +0.000 OA
ATOM     24  C   UNL     1     104.025 126.607 148.206  0.00  0.00    +0.000 C 
ENDBRANCH   9  23
BRANCH  11  25
ATOM     25  O   UNL     1     101.995 122.765 145.704  0.00  0.00    +0.000 OA
ATOM     26  C   UNL     1     101.180 122.739 145.574  0.00  0.00    +0.000 C 
ENDBRANCH  11  25
TORSDOF 4
ENDMDL
MODEL 3
REMARK VINA RESULT:      -8.3      6.835      8.209
REMARK  Name = 44259694
REMARK  4 active torsions:
REMARK  status: ('A' for Active; 'I' for Inactive)
REMARK    1  A    between atoms: O_2  and  C_13
REMARK    2  A    between atoms: O_3  and  C_15
REMARK    3  A    between atoms: O_6  and  C_21
REMARK    4  A    between atoms: C_11  and  C_16
REMARK                            x       y       z     vdW  Elec       q    Type
REMARK                         _______ _______ _______ _____ _____    ______ ____
ROOT
ATOM      1  O   UNL     1     103.345 130.179 142.324  0.00  0.00    +0.000 OA
ATOM      2  O   UNL     1     104.300 127.829 140.941  0.00  0.00    +0.000 OA
ATOM      3  O   UNL     1     103.350 128.721 140.324  0.00  0.00    +0.000 OA
ATOM      4  C   UNL     1     103.816 129.503 142.307  0.00  0.00    +0.000 A 
ATOM      5  C   UNL     1     103.818 129.016 141.640  0.00  0.00    +0.000 A 
ATOM      6  C   UNL     1     104.302 129.315 142.991  0.00  0.00    +0.000 A 
ATOM      7  C   UNL     1     102.874 130.370 141.672  0.00  0.00    +0.000 A 
ATOM      8  C   UNL     1     103.348 129.207 140.991  0.00  0.00    +0.000 A 
ATOM      9  C   UNL     1     102.876 129.883 141.006  0.00  0.00    +0.000 A 
ATOM     10  C   UNL     1     104.305 128.309 141.612  0.00  0.00    +0.000 A 
ATOM     11  C   UNL     1     104.795 128.612 142.980  0.00  0.00    +0.000 A 
ATOM     12  C   UNL     1     104.797 128.105 142.286  0.00  0.00    +0.000 A 
ATOM     13  C   UNL     1     104.294 129.807 143.653  0.00  0.00    +0.000 C 
ENDROOT
BRANCH   7  15
ATOM     14  O   UNL     1     100.986 133.075 141.740  0.00  0.00    +0.000 OA
ATOM     15  C   UNL     1     102.403 131.046 141.689  0.00  0.00    +0.000 A 
ATOM     16  C   UNL     1     102.713 131.772 141.447  0.00  0.00    +0.000 A 
ATOM     17  C   UNL     1     101.620 130.997 141.948  0.00  0.00    +0.000 A 
ATOM     18  C   UNL     1     102.240 132.448 141.465  0.00  0.00    +0.000 A 
ATOM     19  C   UNL     1     101.149 131.674 141.964  0.00  0.00    +0.000 A 
ATOM     20  C   UNL     1     101.459 132.399 141.723  0.00  0.00    +0.000 A 
BRANCH  18  21
ATOM     21  O   UNL     1     102.550 133.173 141.223  0.00  0.00    +0.000 OA
ATOM     22  C   UNL     1     103.328 133.372 141.409  0.00  0.00    +0.000 C 
ENDBRANCH  18  21
ENDBRANCH   7  15
BRANCH   9  23
ATOM     23  O   UNL     1     102.406 130.074 140.356  0.00  0.00    +0.000 OA
ATOM     24  C   UNL     1     102.235 129.500 139.788  0.00  0.00    +0.000 C 
ENDBRANCH   9  23
BRANCH  11  25
ATOM     25  O   UNL     1     105.265 128.424 143.633  0.00  0.00    +0.000 OA
ATOM     26  C   UNL     1     105.645 127.693 143.670  0.00  0.00    +0.000 C 
ENDBRANCH  11  25
TORSDOF 4
ENDMDL
MODEL 4
REMARK VINA RESULT:      -8.2     11.662     13.374
REMARK  Name = 44259694
REMARK  4 active torsions:
REMARK  status: ('A' for Active; 'I' for Inactive)
REMARK    1  A    between atoms: O_2  and  C_13
REMARK    2  A    between atoms: O_3  and  C_15
REMARK    3  A    between atoms: O_6  and  C_21
REMARK    4  A    between atoms: C_11  and  C_16
REMARK                            x       y       z     vdW  Elec       q    Type
REMARK                         _______ _______ _______ _____ _____    ______ ____
ROOT
ATOM      1  O   UNL     1     112.272 126.732 136.095  0.00  0.00    +0.000 OA
ATOM      2  O   UNL     1     109.785 125.929 134.862  0.00  0.00    +0.000 OA
ATOM      3  O   UNL     1     110.599 124.981 135.582  0.00  0.00    +0.000 OA
ATOM      4  C   UNL     1     111.599 126.919 135.655  0.00  0.00    +0.000 A 
ATOM      5  C   UNL     1     111.042 126.336 135.484  0.00  0.00    +0.000 A 
ATOM      6  C   UNL     1     111.491 127.727 135.381  0.00  0.00    +0.000 A 
ATOM      7  C   UNL     1     112.387 125.959 136.363  0.00  0.00    +0.000 A 
ATOM      8  C   UNL     1     111.157 125.565 135.753  0.00  0.00    +0.000 A 
ATOM      9  C   UNL     1     111.829 125.376 136.192  0.00  0.00    +0.000 A 
ATOM     10  C   UNL     1     110.337 126.519 135.028  0.00  0.00    +0.000 A 
ATOM     11  C   UNL     1     110.792 127.928 134.923  0.00  0.00    +0.000 A 
ATOM     12  C   UNL     1     110.212 127.321 134.745  0.00  0.00    +0.000 A 
ATOM     13  C   UNL     1     112.054 128.303 135.557  0.00  0.00    +0.000 C 
ENDROOT
BRANCH   7  15
ATOM     14  O   UNL     1     115.079 125.209 138.118  0.00  0.00    +0.000 OA
ATOM     15  C   UNL     1     113.059 125.772 136.802  0.00  0.00    +0.000 A 
ATOM     16  C   UNL     1     113.092 125.955 137.606  0.00  0.00    +0.000 A 
ATOM     17  C   UNL     1     113.700 125.401 136.437  0.00  0.00    +0.000 A 
ATOM     18  C   UNL     1     113.765 125.767 138.044  0.00  0.00    +0.000 A 
ATOM     19  C   UNL     1     114.373 125.214 136.876  0.00  0.00    +0.000 A 
ATOM     20  C   UNL     1     114.405 125.397 137.680  0.00  0.00    +0.000 A 
BRANCH  18  21
ATOM     21  O   UNL     1     113.798 125.949 138.848  0.00  0.00    +0.000 OA
ATOM     22  C   UNL     1     113.254 126.477 139.174  0.00  0.00    +0.000 C 
ENDBRANCH  18  21
ENDBRANCH   7  15
BRANCH   9  23
ATOM     23  O   UNL     1     111.944 124.605 136.460  0.00  0.00    +0.000 OA
ATOM     24  C   UNL     1     111.542 123.980 136.103  0.00  0.00    +0.000 C 
ENDBRANCH   9  23
BRANCH  11  25
ATOM     25  O   UNL     1     110.681 128.701 134.656  0.00  0.00    +0.000 OA
ATOM     26  C   UNL     1     109.919 129.016 134.612  0.00  0.00    +0.000 C 
ENDBRANCH  11  25
TORSDOF 4
ENDMDL
MODEL 5
REMARK VINA RESULT:      -8.2      1.069      4.112
REMARK  Name = 44259694
REMARK  4 active torsions:
REMARK  status: ('A' for Active; 'I' for Inactive)
REMARK    1  A    between atoms: O_2  and  C_13
REMARK    2  A    between atoms: O_3  and  C_15
REMARK    3  A    between atoms: O_6  and  C_21
REMARK    4  A    between atoms: C_11  and  C_16
REMARK                            x       y       z     vdW  Elec       q    Type
REMARK                         _______ _______ _______ _____ _____    ______ ____
ROOT
ATOM      1  O   UNL     1     104.701 124.831 146.943  0.00  0.00    +0.000 OA
ATOM      2  O   UNL     1     103.338 122.980 145.193  0.00  0.00    +0.000 OA
ATOM      3  O   UNL     1     104.575 123.606 144.796  0.00  0.00    +0.000 OA
ATOM      4  C   UNL     1     104.068 124.324 146.793  0.00  0.00    +0.000 A 
ATOM      5  C   UNL     1     104.026 123.915 146.078  0.00  0.00    +0.000 A 
ATOM      6  C   UNL     1     103.458 124.229 147.392  0.00  0.00    +0.000 A 
ATOM      7  C   UNL     1     105.293 124.930 146.376  0.00  0.00    +0.000 A 
ATOM      8  C   UNL     1     104.617 124.014 145.512  0.00  0.00    +0.000 A 
ATOM      9  C   UNL     1     105.251 124.521 145.660  0.00  0.00    +0.000 A 
ATOM     10  C   UNL     1     103.371 123.384 145.911  0.00  0.00    +0.000 A 
ATOM     11  C   UNL     1     102.797 123.702 147.243  0.00  0.00    +0.000 A 
ATOM     12  C   UNL     1     102.753 123.277 146.497  0.00  0.00    +0.000 A 
ATOM     13  C   UNL     1     103.509 124.641 148.105  0.00  0.00    +0.000 C 
ENDROOT
BRANCH   7  15
ATOM     14  O   UNL     1     107.824 126.962 146.972  0.00  0.00    +0.000 OA
ATOM     15  C   UNL     1     105.926 125.437 146.525  0.00  0.00    +0.000 A 
ATOM     16  C   UNL     1     106.610 125.149 146.886  0.00  0.00    +0.000 A 
ATOM     17  C   UNL     1     105.875 126.233 146.312  0.00  0.00    +0.000 A 
ATOM     18  C   UNL     1     107.242 125.658 147.035  0.00  0.00    +0.000 A 
ATOM     19  C   UNL     1     106.508 126.741 146.462  0.00  0.00    +0.000 A 
ATOM     20  C   UNL     1     107.192 126.453 146.823  0.00  0.00    +0.000 A 
BRANCH  18  21
ATOM     21  O   UNL     1     107.926 125.370 147.397  0.00  0.00    +0.000 OA
ATOM     22  C   UNL     1     107.872 124.940 148.098  0.00  0.00    +0.000 C 
ENDBRANCH  18  21
ENDBRANCH   7  15
BRANCH   9  23
ATOM     23  O   UNL     1     105.842 124.620 145.094  0.00  0.00    +0.000 OA
ATOM     24  C   UNL     1     105.671 124.504 144.295  0.00  0.00    +0.000 C 
ENDBRANCH   9  23
BRANCH  11  25
ATOM     25  O   UNL     1     102.207 123.605 147.812  0.00  0.00    +0.000 OA
ATOM     26  C   UNL     1     101.628 123.026 147.711  0.00  0.00    +0.000 C 
ENDBRANCH  11  25
TORSDOF 4
ENDMDL
MODEL 6
REMARK VINA RESULT:      -8.0     12.274     13.480
REMARK  Name = 44259694
REMARK  4 active torsions:
REMARK  status: ('A' for Active; 'I' for Inactive)
REMARK    1  A    between atoms: O_2  and  C_13
REMARK    2  A    between atoms: O_3  and  C_15
REMARK    3  A    between atoms: O_6  and  C_21
REMARK    4  A    between atoms: C_11  and  C_16
REMARK                            x       y       z     vdW  Elec       q    Type
REMARK                         _______ _______ _______ _____ _____    ______ ____
ROOT
ATOM      1  O   UNL     1     112.875 126.666 136.524  0.00  0.00    +0.000 OA
ATOM      2  O   UNL     1     110.523 125.290 135.561  0.00  0.00    +0.000 OA
ATOM      3  O   UNL     1     110.684 126.711 135.373  0.00  0.00    +0.000 OA
ATOM      4  C   UNL     1     112.442 125.970 136.432  0.00  0.00    +0.000 A 
ATOM      5  C   UNL     1     111.712 125.985 136.048  0.00  0.00    +0.000 A 
ATOM      6  C   UNL     1     112.763 125.234 136.740  0.00  0.00    +0.000 A 
ATOM      7  C   UNL     1     112.576 127.378 136.232  0.00  0.00    +0.000 A 
ATOM      8  C   UNL     1     111.414 126.696 135.757  0.00  0.00    +0.000 A 
ATOM      9  C   UNL     1     111.846 127.393 135.848  0.00  0.00    +0.000 A 
ATOM     10  C   UNL     1     111.252 125.265 135.946  0.00  0.00    +0.000 A 
ATOM     11  C   UNL     1     112.318 124.506 136.647  0.00  0.00    +0.000 A 
ATOM     12  C   UNL     1     111.558 124.521 136.248  0.00  0.00    +0.000 A 
ATOM     13  C   UNL     1     113.495 125.229 137.122  0.00  0.00    +0.000 C 
ENDROOT
BRANCH   7  15
ATOM     14  O   UNL     1     114.308 130.164 136.598  0.00  0.00    +0.000 OA
ATOM     15  C   UNL     1     113.009 128.075 136.324  0.00  0.00    +0.000 A 
ATOM     16  C   UNL     1     112.937 128.517 137.017  0.00  0.00    +0.000 A 
ATOM     17  C   UNL     1     113.514 128.329 135.722  0.00  0.00    +0.000 A 
ATOM     18  C   UNL     1     113.370 129.213 137.108  0.00  0.00    +0.000 A 
ATOM     19  C   UNL     1     113.946 129.025 135.814  0.00  0.00    +0.000 A 
ATOM     20  C   UNL     1     113.875 129.467 136.507  0.00  0.00    +0.000 A 
BRANCH  18  21
ATOM     21  O   UNL     1     113.299 129.655 137.801  0.00  0.00    +0.000 OA
ATOM     22  C   UNL     1     113.198 129.274 138.525  0.00  0.00    +0.000 C 
ENDBRANCH  18  21
ENDBRANCH   7  15
BRANCH   9  23
ATOM     23  O   UNL     1     111.548 128.105 135.557  0.00  0.00    +0.000 OA
ATOM     24  C   UNL     1     110.740 128.186 135.415  0.00  0.00    +0.000 C 
ENDBRANCH   9  23
BRANCH  11  25
ATOM     25  O   UNL     1     112.619 123.795 136.940  0.00  0.00    +0.000 OA
ATOM     26  C   UNL     1     112.113 123.159 137.079  0.00  0.00    +0.000 C 
ENDBRANCH  11  25
TORSDOF 4
ENDMDL
MODEL 7
REMARK VINA RESULT:      -7.8      1.449      4.125
REMARK  Name = 44259694
REMARK  4 active torsions:
REMARK  status: ('A' for Active; 'I' for Inactive)
REMARK    1  A    between atoms: O_2  and  C_13
REMARK    2  A    between atoms: O_3  and  C_15
REMARK    3  A    between atoms: O_6  and  C_21
REMARK    4  A    between atoms: C_11  and  C_16
REMARK                            x       y       z     vdW  Elec       q    Type
REMARK                         _______ _______ _______ _____ _____    ______ ____
ROOT
ATOM      1  O   UNL     1     103.732 124.274 147.391  0.00  0.00    +0.000 OA
ATOM      2  O   UNL     1     103.723 123.044 144.776  0.00  0.00    +0.000 OA
ATOM      3  O   UNL     1     104.876 123.765 145.257  0.00  0.00    +0.000 OA
ATOM      4  C   UNL     1     103.345 123.835 146.810  0.00  0.00    +0.000 A 
ATOM      5  C   UNL     1     103.727 123.665 146.098  0.00  0.00    +0.000 A 
ATOM      6  C   UNL     1     102.544 123.559 146.957  0.00  0.00    +0.000 A 
ATOM      7  C   UNL     1     104.501 124.543 147.261  0.00  0.00    +0.000 A 
ATOM      8  C   UNL     1     104.495 123.935 145.968  0.00  0.00    +0.000 A 
ATOM      9  C   UNL     1     104.883 124.374 146.549  0.00  0.00    +0.000 A 
ATOM     10  C   UNL     1     103.334 123.209 145.485  0.00  0.00    +0.000 A 
ATOM     11  C   UNL     1     102.136 123.102 146.356  0.00  0.00    +0.000 A 
ATOM     12  C   UNL     1     102.533 122.925 145.615  0.00  0.00    +0.000 A 
ATOM     13  C   UNL     1     102.171 123.734 147.672  0.00  0.00    +0.000 C 
ENDROOT
BRANCH   7  15
ATOM     14  O   UNL     1     106.049 126.297 149.589  0.00  0.00    +0.000 OA
ATOM     15  C   UNL     1     104.888 124.982 147.842  0.00  0.00    +0.000 A 
ATOM     16  C   UNL     1     104.770 125.797 147.892  0.00  0.00    +0.000 A 
ATOM     17  C   UNL     1     105.393 124.605 148.376  0.00  0.00    +0.000 A 
ATOM     18  C   UNL     1     105.157 126.235 148.474  0.00  0.00    +0.000 A 
ATOM     19  C   UNL     1     105.780 125.044 148.957  0.00  0.00    +0.000 A 
ATOM     20  C   UNL     1     105.662 125.859 149.006  0.00  0.00    +0.000 A 
BRANCH  18  21
ATOM     21  O   UNL     1     105.039 127.050 148.523  0.00  0.00    +0.000 OA
ATOM     22  C   UNL     1     104.278 127.361 148.467  0.00  0.00    +0.000 C 
ENDBRANCH  18  21
ENDBRANCH   7  15
BRANCH   9  23
ATOM     23  O   UNL     1     105.651 124.643 146.419  0.00  0.00    +0.000 OA
ATOM     24  C   UNL     1     105.919 124.770 145.649  0.00  0.00    +0.000 C 
ENDBRANCH   9  23
BRANCH  11  25
ATOM     25  O   UNL     1     101.367 122.834 146.489  0.00  0.00    +0.000 OA
ATOM     26  C   UNL     1     100.846 122.743 145.856  0.00  0.00    +0.000 C 
ENDBRANCH  11  25
TORSDOF 4
ENDMDL
MODEL 8
REMARK VINA RESULT:      -7.8     11.966     12.971
REMARK  Name = 44259694
REMARK  4 active torsions:
REMARK  status: ('A' for Active; 'I' for Inactive)
REMARK    1  A    between atoms: O_2  and  C_13
REMARK    2  A    between atoms: O_3  and  C_15
REMARK    3  A    between atoms: O_6  and  C_21
REMARK    4  A    between atoms: C_11  and  C_16
REMARK                            x       y       z     vdW  Elec       q    Type
REMARK                         _______ _______ _______ _____ _____    ______ ____
ROOT
ATOM      1  O   UNL     1     111.915 127.058 136.085  0.00  0.00    +0.000 OA
ATOM      2  O   UNL     1     111.882 124.169 136.155  0.00  0.00    +0.000 OA
ATOM      3  O   UNL     1     110.773 124.914 135.611  0.00  0.00    +0.000 OA
ATOM      4  C   UNL     1     112.280 126.344 136.278  0.00  0.00    +0.000 A 
ATOM      5  C   UNL     1     111.900 125.629 136.120  0.00  0.00    +0.000 A 
ATOM      6  C   UNL     1     113.058 126.358 136.643  0.00  0.00    +0.000 A 
ATOM      7  C   UNL     1     111.168 127.057 135.733  0.00  0.00    +0.000 A 
ATOM      8  C   UNL     1     111.154 125.628 135.769  0.00  0.00    +0.000 A 
ATOM      9  C   UNL     1     110.787 126.342 135.575  0.00  0.00    +0.000 A 
ATOM     10  C   UNL     1     112.271 124.879 136.316  0.00  0.00    +0.000 A 
ATOM     11  C   UNL     1     113.444 125.618 136.847  0.00  0.00    +0.000 A 
ATOM     12  C   UNL     1     113.048 124.874 136.682  0.00  0.00    +0.000 A 
ATOM     13  C   UNL     1     113.431 127.078 136.798  0.00  0.00    +0.000 C 
ENDROOT
BRANCH   7  15
ATOM     14  O   UNL     1     109.707 129.913 134.958  0.00  0.00    +0.000 OA
ATOM     15  C   UNL     1     110.802 127.770 135.540  0.00  0.00    +0.000 A 
ATOM     16  C   UNL     1     110.298 128.136 136.081  0.00  0.00    +0.000 A 
ATOM     17  C   UNL     1     110.942 128.119 134.805  0.00  0.00    +0.000 A 
ATOM     18  C   UNL     1     109.933 128.850 135.887  0.00  0.00    +0.000 A 
ATOM     19  C   UNL     1     110.577 128.833 134.612  0.00  0.00    +0.000 A 
ATOM     20  C   UNL     1     110.072 129.199 135.153  0.00  0.00    +0.000 A 
BRANCH  18  21
ATOM     21  O   UNL     1     109.428 129.215 136.427  0.00  0.00    +0.000 OA
ATOM     22  C   UNL     1     109.625 129.235 137.228  0.00  0.00    +0.000 C 
ENDBRANCH  18  21
ENDBRANCH   7  15
BRANCH   9  23
ATOM     23  O   UNL     1     110.041 126.341 135.224  0.00  0.00    +0.000 OA
ATOM     24  C   UNL     1     109.783 125.678 134.806  0.00  0.00    +0.000 C 
ENDBRANCH   9  23
BRANCH  11  25
ATOM     25  O   UNL     1     114.191 125.623 137.198  0.00  0.00    +0.000 OA
ATOM     26  C   UNL     1     114.590 124.912 137.327  0.00  0.00    +0.000 C 
ENDBRANCH  11  25
TORSDOF 4
ENDMDL
MODEL 9
REMARK VINA RESULT:      -7.8      8.703     10.594
REMARK  Name = 44259694
REMARK  4 active torsions:
REMARK  status: ('A' for Active; 'I' for Inactive)
REMARK    1  A    between atoms: O_2  and  C_13
REMARK    2  A    between atoms: O_3  and  C_15
REMARK    3  A    between atoms: O_6  and  C_21
REMARK    4  A    between atoms: C_11  and  C_16
REMARK                            x       y       z     vdW  Elec       q    Type
REMARK                         _______ _______ _______ _____ _____    ______ ____
ROOT
ATOM      1  O   UNL     1     111.583 131.402 145.246  0.00  0.00    +0.000 OA
ATOM      2  O   UNL     1     112.316 131.628 142.460  0.00  0.00    +0.000 OA
ATOM      3  O   UNL     1     112.324 132.779 143.328  0.00  0.00    +0.000 OA
ATOM      4  C   UNL     1     111.698 131.053 144.507  0.00  0.00    +0.000 A 
ATOM      5  C   UNL     1     111.945 131.512 143.868  0.00  0.00    +0.000 A 
ATOM      6  C   UNL     1     111.557 130.210 144.416  0.00  0.00    +0.000 A 
ATOM      7  C   UNL     1     111.715 132.211 145.345  0.00  0.00    +0.000 A 
ATOM      8  C   UNL     1     112.077 132.320 143.967  0.00  0.00    +0.000 A 
ATOM      9  C   UNL     1     111.962 132.670 144.706  0.00  0.00    +0.000 A 
ATOM     10  C   UNL     1     112.068 131.160 143.093  0.00  0.00    +0.000 A 
ATOM     11  C   UNL     1     111.675 129.841 143.650  0.00  0.00    +0.000 A 
ATOM     12  C   UNL     1     111.933 130.319 142.984  0.00  0.00    +0.000 A 
ATOM     13  C   UNL     1     111.311 129.759 145.061  0.00  0.00    +0.000 C 
ENDROOT
BRANCH   7  15
ATOM     14  O   UNL     1     111.257 133.604 148.301  0.00  0.00    +0.000 OA
ATOM     15  C   UNL     1     111.600 132.559 146.084  0.00  0.00    +0.000 A 
ATOM     16  C   UNL     1     110.875 132.907 146.268  0.00  0.00    +0.000 A 
ATOM     17  C   UNL     1     112.211 132.559 146.639  0.00  0.00    +0.000 A 
ATOM     18  C   UNL     1     110.761 133.255 147.007  0.00  0.00    +0.000 A 
ATOM     19  C   UNL     1     112.096 132.908 147.378  0.00  0.00    +0.000 A 
ATOM     20  C   UNL     1     111.371 133.256 147.562  0.00  0.00    +0.000 A 
BRANCH  18  21
ATOM     21  O   UNL     1     110.036 133.603 147.192  0.00  0.00    +0.000 OA
ATOM     22  C   UNL     1     109.334 133.254 146.937  0.00  0.00    +0.000 C 
ENDBRANCH  18  21
ENDBRANCH   7  15
BRANCH   9  23
ATOM     23  O   UNL     1     112.094 133.477 144.805  0.00  0.00    +0.000 OA
ATOM     24  C   UNL     1     112.071 133.982 144.153  0.00  0.00    +0.000 C 
ENDBRANCH   9  23
BRANCH  11  25
ATOM     25  O   UNL     1     111.542 129.032 143.554  0.00  0.00    +0.000 OA
ATOM     26  C   UNL     1     111.686 128.674 142.824  0.00  0.00    +0.000 C 
ENDBRANCH  11  25
TORSDOF 4
ENDMDL
MODEL 10
REMARK VINA RESULT:      -7.8     10.813     13.082
REMARK  Name = 44259694
REMARK  4 active torsions:
REMARK  status: ('A' for Active; 'I' for Inactive)
REMARK    1  A    between atoms: O_2  and  C_13
REMARK    2  A    between atoms: O_3  and  C_15
REMARK    3  A    between atoms: O_6  and  C_21
REMARK    4  A    between atoms: C_11  and  C_16
REMARK                            x       y       z     vdW  Elec       q    Type
REMARK                         _______ _______ _______ _____ _____    ______ ____
ROOT
ATOM      1  O   UNL     1     111.035 127.091 135.898  0.00  0.00    +0.000 OA
ATOM      2  O   UNL     1     112.576 129.437 135.210  0.00  0.00    +0.000 OA
ATOM      3  O   UNL     1     113.199 128.291 135.828  0.00  0.00    +0.000 OA
ATOM      4  C   UNL     1     111.076 127.851 135.581  0.00  0.00    +0.000 A 
ATOM      5  C   UNL     1     111.797 128.252 135.558  0.00  0.00    +0.000 A 
ATOM      6  C   UNL     1     110.359 128.216 135.278  0.00  0.00    +0.000 A 
ATOM      7  C   UNL     1     111.718 126.730 136.192  0.00  0.00    +0.000 A 
ATOM      8  C   UNL     1     112.478 127.891 135.851  0.00  0.00    +0.000 A 
ATOM      9  C   UNL     1     112.439 127.131 136.169  0.00  0.00    +0.000 A 
ATOM     10  C   UNL     1     111.851 129.044 135.229  0.00  0.00    +0.000 A 
ATOM     11  C   UNL     1     110.394 129.008 134.946  0.00  0.00    +0.000 A 
ATOM     12  C   UNL     1     111.145 129.425 134.922  0.00  0.00    +0.000 A 
ATOM     13  C   UNL     1     109.642 127.808 135.305  0.00  0.00    +0.000 C 
ENDROOT
BRANCH   7  15
ATOM     14  O   UNL     1     111.557 123.687 137.458  0.00  0.00    +0.000 OA
ATOM     15  C   UNL     1     111.677 125.970 136.509  0.00  0.00    +0.000 A 
ATOM     16  C   UNL     1     111.453 125.862 137.296  0.00  0.00    +0.000 A 
ATOM     17  C   UNL     1     111.862 125.317 136.038  0.00  0.00    +0.000 A 
ATOM     18  C   UNL     1     111.413 125.100 137.611  0.00  0.00    +0.000 A 
ATOM     19  C   UNL     1     111.821 124.557 136.356  0.00  0.00    +0.000 A 
ATOM     20  C   UNL     1     111.597 124.448 137.142  0.00  0.00    +0.000 A 
BRANCH  18  21
ATOM     21  O   UNL     1     111.189 124.992 138.398  0.00  0.00    +0.000 OA
ATOM     22  C   UNL     1     110.779 125.587 138.796  0.00  0.00    +0.000 C 
ENDBRANCH  18  21
ENDBRANCH   7  15
BRANCH   9  23
ATOM     23  O   UNL     1     113.119 126.770 136.462  0.00  0.00    +0.000 OA
ATOM     24  C   UNL     1     113.777 127.229 136.658  0.00  0.00    +0.000 C 
ENDBRANCH   9  23
BRANCH  11  25
ATOM     25  O   UNL     1     109.710 129.365 134.653  0.00  0.00    +0.000 OA
ATOM     26  C   UNL     1     109.660 130.188 134.613  0.00  0.00    +0.000 C 
ENDBRANCH  11  25
TORSDOF 4
ENDMDL
