MODEL 1
REMARK VINA RESULT:     -11.3      0.000      0.000
REMARK  Name = 74977530
REMARK  9 active torsions:
REMARK  status: ('A' for Active; 'I' for Inactive)
REMARK    1  A    between atoms: O_1  and  C_20
REMARK    2  A    between atoms: O_1  and  C_25
REMARK    3  A    between atoms: O_4  and  C_28
REMARK    4  A    between atoms: O_4  and  C_31
REMARK    5  A    between atoms: O_8  and  C_24
REMARK    6  A    between atoms: O_8  and  C_38
REMARK    7  A    between atoms: C_23  and  C_28
REMARK    8  A    between atoms: C_35  and  C_37
REMARK    9  A    between atoms: C_45  and  C_47
REMARK                            x       y       z     vdW  Elec       q    Type
REMARK                         _______ _______ _______ _____ _____    ______ ____
ROOT
ATOM      1  O   UNL     1     105.632 126.996 143.536  0.00  0.00    +0.000 OA
ATOM      2  O   UNL     1     106.459 127.527 145.807  0.00  0.00    +0.000 OA
ATOM      3  O   UNL     1     105.693 128.686 144.916  0.00  0.00    +0.000 OA
ATOM      4  C   UNL     1     106.291 126.593 144.738  0.00  0.00    +0.000 C 
ATOM      5  C   UNL     1     106.183 127.350 145.050  0.00  0.00    +0.000 C 
ATOM      6  C   UNL     1     105.801 127.929 144.604  0.00  0.00    +0.000 C 
ATOM      7  C   UNL     1     105.525 127.752 143.847  0.00  0.00    +0.000 C 
ATOM      8  C   UNL     1     106.015 126.416 143.981  0.00  0.00    +0.000 C 
ENDROOT
BRANCH   4   9
ATOM      9  O   UNL     1     106.673 126.014 145.184  0.00  0.00    +0.000 OA
BRANCH   9  14
ATOM     10  O   UNL     1     105.439 125.552 145.738  0.00  0.00    +0.000 OA
ATOM     11  O   UNL     1     107.494 125.315 146.433  0.00  0.00    +0.000 OA
ATOM     12  O   UNL     1     106.671 124.504 147.610  0.00  0.00    +0.000 OA
ATOM     13  O   UNL     1     105.026 124.392 147.539  0.00  0.00    +0.000 OA
ATOM     14  C   UNL     1     106.261 125.608 145.773  0.00  0.00    +0.000 C 
ATOM     15  C   UNL     1     106.672 125.259 146.397  0.00  0.00    +0.000 C 
ATOM     16  C   UNL     1     106.260 124.853 146.986  0.00  0.00    +0.000 C 
ATOM     17  C   UNL     1     105.437 124.797 146.951  0.00  0.00    +0.000 C 
ATOM     18  C   UNL     1     105.027 125.147 146.326  0.00  0.00    +0.000 C 
ATOM     19  C   UNL     1     104.205 125.091 146.291  0.00  0.00    +0.000 C 
ENDBRANCH   9  14
ENDBRANCH   4   9
BRANCH   8  20
ATOM     20  O   UNL     1     106.122 125.660 143.670  0.00  0.00    +0.000 OA
BRANCH  20  24
ATOM     21  O   UNL     1     105.444 124.822 140.964  0.00  0.00    +0.000 OA
ATOM     22  O   UNL     1     108.063 125.919 141.502  0.00  0.00    +0.000 OA
ATOM     23  O   UNL     1     107.692 125.493 140.174  0.00  0.00    +0.000 OA
ATOM     24  C   UNL     1     106.329 125.566 142.877  0.00  0.00    +0.000 A 
ATOM     25  C   UNL     1     105.765 125.235 142.318  0.00  0.00    +0.000 A 
ATOM     26  C   UNL     1     107.109 125.799 142.602  0.00  0.00    +0.000 A 
ATOM     27  C   UNL     1     105.989 125.141 141.494  0.00  0.00    +0.000 A 
ATOM     28  C   UNL     1     107.315 125.698 141.774  0.00  0.00    +0.000 A 
ATOM     29  C   UNL     1     106.739 125.365 141.232  0.00  0.00    +0.000 A 
ATOM     30  C   UNL     1     106.943 125.270 140.438  0.00  0.00    +0.000 A 
ATOM     31  C   UNL     1     105.648 124.728 140.170  0.00  0.00    +0.000 A 
ATOM     32  C   UNL     1     106.397 124.951 139.907  0.00  0.00    +0.000 A 
BRANCH  31  34
ATOM     33  O   UNL     1     103.467 123.453 138.047  0.00  0.00    +0.000 OA
ATOM     34  C   UNL     1     105.103 124.409 139.639  0.00  0.00    +0.000 A 
ATOM     35  C   UNL     1     104.511 124.887 139.319  0.00  0.00    +0.000 A 
ATOM     36  C   UNL     1     105.150 123.612 139.428  0.00  0.00    +0.000 A 
ATOM     37  C   UNL     1     103.966 124.567 138.789  0.00  0.00    +0.000 A 
ATOM     38  C   UNL     1     104.604 123.294 138.897  0.00  0.00    +0.000 A 
ATOM     39  C   UNL     1     104.013 123.771 138.578  0.00  0.00    +0.000 A 
ENDBRANCH  31  34
ENDBRANCH  20  24
ENDBRANCH   8  20
BRANCH   7  40
ATOM     40  C   UNL     1     105.142 128.332 143.402  0.00  0.00    +0.000 C 
BRANCH  40  41
ATOM     41  O   UNL     1     104.663 128.115 142.767  0.00  0.00    +0.000 OA
BRANCH  41  46
ATOM     42  O   UNL     1     103.921 129.336 142.800  0.00  0.00    +0.000 OA
ATOM     43  O   UNL     1     104.310 127.945 141.164  0.00  0.00    +0.000 OA
ATOM     44  O   UNL     1     103.392 129.080 140.396  0.00  0.00    +0.000 OA
ATOM     45  O   UNL     1     102.826 130.387 141.231  0.00  0.00    +0.000 OA
ATOM     46  C   UNL     1     104.204 128.684 142.383  0.00  0.00    +0.000 C 
ATOM     47  C   UNL     1     104.027 128.598 141.582  0.00  0.00    +0.000 C 
ATOM     48  C   UNL     1     103.568 129.166 141.197  0.00  0.00    +0.000 C 
ATOM     49  C   UNL     1     103.286 129.818 141.615  0.00  0.00    +0.000 C 
ATOM     50  C   UNL     1     103.463 129.904 142.417  0.00  0.00    +0.000 C 
BRANCH  50  52
ATOM     51  O   UNL     1     103.061 130.506 143.648  0.00  0.00    +0.000 OA
ATOM     52  C   UNL     1     103.180 130.557 142.834  0.00  0.00    +0.000 C 
ENDBRANCH  50  52
ENDBRANCH  41  46
ENDBRANCH  40  41
ENDBRANCH   7  40
TORSDOF 9
ENDMDL
MODEL 2
REMARK VINA RESULT:     -11.2      7.382      9.648
REMARK  Name = 74977530
REMARK  9 active torsions:
REMARK  status: ('A' for Active; 'I' for Inactive)
REMARK    1  A    between atoms: O_1  and  C_20
REMARK    2  A    between atoms: O_1  and  C_25
REMARK    3  A    between atoms: O_4  and  C_28
REMARK    4  A    between atoms: O_4  and  C_31
REMARK    5  A    between atoms: O_8  and  C_24
REMARK    6  A    between atoms: O_8  and  C_38
REMARK    7  A    between atoms: C_23  and  C_28
REMARK    8  A    between atoms: C_35  and  C_37
REMARK    9  A    between atoms: C_45  and  C_47
REMARK                            x       y       z     vdW  Elec       q    Type
REMARK                         _______ _______ _______ _____ _____    ______ ____
ROOT
ATOM      1  O   UNL     1     111.111 129.396 138.185  0.00  0.00    +0.000 OA
ATOM      2  O   UNL     1     108.758 129.955 138.712  0.00  0.00    +0.000 OA
ATOM      3  O   UNL     1     109.891 129.941 139.911  0.00  0.00    +0.000 OA
ATOM      4  C   UNL     1     109.760 129.590 137.760  0.00  0.00    +0.000 C 
ATOM      5  C   UNL     1     109.542 129.769 138.536  0.00  0.00    +0.000 C 
ATOM      6  C   UNL     1     110.109 129.762 139.136  0.00  0.00    +0.000 C 
ATOM      7  C   UNL     1     110.893 129.575 138.960  0.00  0.00    +0.000 C 
ATOM      8  C   UNL     1     110.545 129.403 137.585  0.00  0.00    +0.000 C 
ENDROOT
BRANCH   4   9
ATOM      9  O   UNL     1     109.194 129.597 137.161  0.00  0.00    +0.000 OA
BRANCH   9  14
ATOM     10  O   UNL     1     109.451 130.983 136.926  0.00  0.00    +0.000 OA
ATOM     11  O   UNL     1     107.917 129.657 136.118  0.00  0.00    +0.000 OA
ATOM     12  O   UNL     1     107.536 131.073 135.361  0.00  0.00    +0.000 OA
ATOM     13  O   UNL     1     108.432 132.429 135.647  0.00  0.00    +0.000 OA
ATOM     14  C   UNL     1     109.003 130.305 136.783  0.00  0.00    +0.000 C 
ATOM     15  C   UNL     1     108.365 130.335 136.261  0.00  0.00    +0.000 C 
ATOM     16  C   UNL     1     108.175 131.044 135.882  0.00  0.00    +0.000 C 
ATOM     17  C   UNL     1     108.623 131.721 136.026  0.00  0.00    +0.000 C 
ATOM     18  C   UNL     1     109.261 131.690 136.547  0.00  0.00    +0.000 C 
ATOM     19  C   UNL     1     109.709 132.368 136.691  0.00  0.00    +0.000 C 
ENDBRANCH   9  14
ENDBRANCH   4   9
BRANCH   8  20
ATOM     20  O   UNL     1     110.762 129.224 136.810  0.00  0.00    +0.000 OA
BRANCH  20  24
ATOM     21  O   UNL     1     111.860 126.527 136.726  0.00  0.00    +0.000 OA
ATOM     22  O   UNL     1     113.537 128.772 136.017  0.00  0.00    +0.000 OA
ATOM     23  O   UNL     1     114.047 127.423 135.987  0.00  0.00    +0.000 OA
ATOM     24  C   UNL     1     111.393 128.712 136.667  0.00  0.00    +0.000 A 
ATOM     25  C   UNL     1     111.296 127.865 136.774  0.00  0.00    +0.000 A 
ATOM     26  C   UNL     1     112.152 129.023 136.411  0.00  0.00    +0.000 A 
ATOM     27  C   UNL     1     111.959 127.340 136.622  0.00  0.00    +0.000 A 
ATOM     28  C   UNL     1     112.804 128.482 136.264  0.00  0.00    +0.000 A 
ATOM     29  C   UNL     1     112.688 127.638 136.376  0.00  0.00    +0.000 A 
ATOM     30  C   UNL     1     113.317 127.125 136.233  0.00  0.00    +0.000 A 
ATOM     31  C   UNL     1     112.490 126.013 136.583  0.00  0.00    +0.000 A 
ATOM     32  C   UNL     1     113.218 126.312 136.337  0.00  0.00    +0.000 A 
BRANCH  31  34
ATOM     33  O   UNL     1     112.095 122.764 136.999  0.00  0.00    +0.000 OA
ATOM     34  C   UNL     1     112.391 125.201 136.687  0.00  0.00    +0.000 A 
ATOM     35  C   UNL     1     111.830 124.793 136.240  0.00  0.00    +0.000 A 
ATOM     36  C   UNL     1     112.853 124.797 137.239  0.00  0.00    +0.000 A 
ATOM     37  C   UNL     1     111.732 123.981 136.344  0.00  0.00    +0.000 A 
ATOM     38  C   UNL     1     112.754 123.984 137.342  0.00  0.00    +0.000 A 
ATOM     39  C   UNL     1     112.194 123.576 136.895  0.00  0.00    +0.000 A 
ENDBRANCH  31  34
ENDBRANCH  20  24
ENDBRANCH   8  20
BRANCH   7  40
ATOM     40  C   UNL     1     111.459 129.568 139.561  0.00  0.00    +0.000 C 
BRANCH  40  41
ATOM     41  O   UNL     1     112.210 129.881 139.424  0.00  0.00    +0.000 OA
BRANCH  41  46
ATOM     42  O   UNL     1     112.959 128.757 139.889  0.00  0.00    +0.000 OA
ATOM     43  O   UNL     1     113.329 130.899 140.081  0.00  0.00    +0.000 OA
ATOM     44  O   UNL     1     114.638 130.284 140.876  0.00  0.00    +0.000 OA
ATOM     45  O   UNL     1     114.828 128.651 141.012  0.00  0.00    +0.000 OA
ATOM     46  C   UNL     1     112.864 129.573 139.821  0.00  0.00    +0.000 C 
ATOM     47  C   UNL     1     113.424 130.082 140.150  0.00  0.00    +0.000 C 
ATOM     48  C   UNL     1     114.079 129.775 140.547  0.00  0.00    +0.000 C 
ATOM     49  C   UNL     1     114.173 128.959 140.615  0.00  0.00    +0.000 C 
ATOM     50  C   UNL     1     113.613 128.449 140.286  0.00  0.00    +0.000 C 
BRANCH  50  52
ATOM     51  O   UNL     1     113.396 127.131 139.779  0.00  0.00    +0.000 OA
ATOM     52  C   UNL     1     113.709 127.633 140.355  0.00  0.00    +0.000 C 
ENDBRANCH  50  52
ENDBRANCH  41  46
ENDBRANCH  40  41
ENDBRANCH   7  40
TORSDOF 9
ENDMDL
MODEL 3
REMARK VINA RESULT:     -11.0      2.545      3.957
REMARK  Name = 74977530
REMARK  9 active torsions:
REMARK  status: ('A' for Active; 'I' for Inactive)
REMARK    1  A    between atoms: O_1  and  C_20
REMARK    2  A    between atoms: O_1  and  C_25
REMARK    3  A    between atoms: O_4  and  C_28
REMARK    4  A    between atoms: O_4  and  C_31
REMARK    5  A    between atoms: O_8  and  C_24
REMARK    6  A    between atoms: O_8  and  C_38
REMARK    7  A    between atoms: C_23  and  C_28
REMARK    8  A    between atoms: C_35  and  C_37
REMARK    9  A    between atoms: C_45  and  C_47
REMARK                            x       y       z     vdW  Elec       q    Type
REMARK                         _______ _______ _______ _____ _____    ______ ____
ROOT
ATOM      1  O   UNL     1     106.383 126.678 141.408  0.00  0.00    +0.000 OA
ATOM      2  O   UNL     1     108.451 127.166 142.677  0.00  0.00    +0.000 OA
ATOM      3  O   UNL     1     107.067 128.004 143.001  0.00  0.00    +0.000 OA
ATOM      4  C   UNL     1     107.764 126.421 141.668  0.00  0.00    +0.000 C 
ATOM      5  C   UNL     1     107.762 127.003 142.254  0.00  0.00    +0.000 C 
ATOM      6  C   UNL     1     107.070 127.422 142.415  0.00  0.00    +0.000 C 
ATOM      7  C   UNL     1     106.380 127.259 141.992  0.00  0.00    +0.000 C 
ATOM      8  C   UNL     1     107.075 126.258 141.245  0.00  0.00    +0.000 C 
ENDROOT
BRANCH   4   9
ATOM      9  O   UNL     1     108.456 126.002 141.507  0.00  0.00    +0.000 OA
BRANCH   9  14
ATOM     10  O   UNL     1     108.876 127.025 140.600  0.00  0.00    +0.000 OA
ATOM     11  O   UNL     1     109.944 125.297 141.398  0.00  0.00    +0.000 OA
ATOM     12  O   UNL     1     111.107 125.966 140.437  0.00  0.00    +0.000 OA
ATOM     13  O   UNL     1     110.782 127.342 139.586  0.00  0.00    +0.000 OA
ATOM     14  C   UNL     1     109.038 126.338 141.026  0.00  0.00    +0.000 C 
ATOM     15  C   UNL     1     109.782 125.984 140.972  0.00  0.00    +0.000 C 
ATOM     16  C   UNL     1     110.363 126.320 140.491  0.00  0.00    +0.000 C 
ATOM     17  C   UNL     1     110.201 127.007 140.065  0.00  0.00    +0.000 C 
ATOM     18  C   UNL     1     109.457 127.360 140.120  0.00  0.00    +0.000 C 
ATOM     19  C   UNL     1     109.294 128.047 139.694  0.00  0.00    +0.000 C 
ENDBRANCH   9  14
ENDBRANCH   4   9
BRANCH   8  20
ATOM     20  O   UNL     1     107.078 125.677 140.660  0.00  0.00    +0.000 OA
BRANCH  20  24
ATOM     21  O   UNL     1     104.880 124.343 139.291  0.00  0.00    +0.000 OA
ATOM     22  O   UNL     1     105.639 123.483 141.944  0.00  0.00    +0.000 OA
ATOM     23  O   UNL     1     104.556 122.845 141.236  0.00  0.00    +0.000 OA
ATOM     24  C   UNL     1     106.486 125.102 140.648  0.00  0.00    +0.000 A 
ATOM     25  C   UNL     1     105.978 125.019 139.959  0.00  0.00    +0.000 A 
ATOM     26  C   UNL     1     106.373 124.582 141.322  0.00  0.00    +0.000 A 
ATOM     27  C   UNL     1     105.365 124.418 139.955  0.00  0.00    +0.000 A 
ATOM     28  C   UNL     1     105.755 123.987 141.300  0.00  0.00    +0.000 A 
ATOM     29  C   UNL     1     105.257 123.919 140.603  0.00  0.00    +0.000 A 
ATOM     30  C   UNL     1     104.664 123.345 140.588  0.00  0.00    +0.000 A 
ATOM     31  C   UNL     1     104.288 123.769 139.276  0.00  0.00    +0.000 A 
ATOM     32  C   UNL     1     104.180 123.270 139.924  0.00  0.00    +0.000 A 
BRANCH  31  34
ATOM     33  O   UNL     1     102.349 123.469 136.623  0.00  0.00    +0.000 OA
ATOM     34  C   UNL     1     103.803 123.694 138.612  0.00  0.00    +0.000 A 
ATOM     35  C   UNL     1     104.117 123.415 137.902  0.00  0.00    +0.000 A 
ATOM     36  C   UNL     1     103.005 123.898 138.660  0.00  0.00    +0.000 A 
ATOM     37  C   UNL     1     103.632 123.340 137.239  0.00  0.00    +0.000 A 
ATOM     38  C   UNL     1     102.520 123.823 137.997  0.00  0.00    +0.000 A 
ATOM     39  C   UNL     1     102.834 123.544 137.286  0.00  0.00    +0.000 A 
ENDBRANCH  31  34
ENDBRANCH  20  24
ENDBRANCH   8  20
BRANCH   7  40
ATOM     40  C   UNL     1     105.689 127.679 142.155  0.00  0.00    +0.000 C 
BRANCH  40  41
ATOM     41  O   UNL     1     105.202 127.927 141.538  0.00  0.00    +0.000 OA
BRANCH  41  46
ATOM     42  O   UNL     1     104.585 128.903 142.380  0.00  0.00    +0.000 OA
ATOM     43  O   UNL     1     103.992 128.117 140.432  0.00  0.00    +0.000 OA
ATOM     44  O   UNL     1     102.771 129.189 140.721  0.00  0.00    +0.000 OA
ATOM     45  O   UNL     1     102.759 130.070 142.116  0.00  0.00    +0.000 OA
ATOM     46  C   UNL     1     104.591 128.463 141.683  0.00  0.00    +0.000 C 
ATOM     47  C   UNL     1     103.986 128.558 141.130  0.00  0.00    +0.000 C 
ATOM     48  C   UNL     1     103.376 129.094 141.274  0.00  0.00    +0.000 C 
ATOM     49  C   UNL     1     103.371 129.534 141.971  0.00  0.00    +0.000 C 
ATOM     50  C   UNL     1     103.975 129.439 142.524  0.00  0.00    +0.000 C 
BRANCH  50  52
ATOM     51  O   UNL     1     104.641 130.301 143.449  0.00  0.00    +0.000 OA
ATOM     52  C   UNL     1     103.969 129.880 143.222  0.00  0.00    +0.000 C 
ENDBRANCH  50  52
ENDBRANCH  41  46
ENDBRANCH  40  41
ENDBRANCH   7  40
TORSDOF 9
ENDMDL
MODEL 4
REMARK VINA RESULT:     -10.9      6.095      7.498
REMARK  Name = 74977530
REMARK  9 active torsions:
REMARK  status: ('A' for Active; 'I' for Inactive)
REMARK    1  A    between atoms: O_1  and  C_20
REMARK    2  A    between atoms: O_1  and  C_25
REMARK    3  A    between atoms: O_4  and  C_28
REMARK    4  A    between atoms: O_4  and  C_31
REMARK    5  A    between atoms: O_8  and  C_24
REMARK    6  A    between atoms: O_8  and  C_38
REMARK    7  A    between atoms: C_23  and  C_28
REMARK    8  A    between atoms: C_35  and  C_37
REMARK    9  A    between atoms: C_45  and  C_47
REMARK                            x       y       z     vdW  Elec       q    Type
REMARK                         _______ _______ _______ _____ _____    ______ ____
ROOT
ATOM      1  O   UNL     1     110.497 129.287 139.233  0.00  0.00    +0.000 OA
ATOM      2  O   UNL     1     109.216 128.816 141.298  0.00  0.00    +0.000 OA
ATOM      3  O   UNL     1     108.464 129.502 139.999  0.00  0.00    +0.000 OA
ATOM      4  C   UNL     1     110.447 128.787 140.571  0.00  0.00    +0.000 C 
ATOM      5  C   UNL     1     109.643 128.973 140.610  0.00  0.00    +0.000 C 
ATOM      6  C   UNL     1     109.268 129.316 139.960  0.00  0.00    +0.000 C 
ATOM      7  C   UNL     1     109.695 129.473 139.272  0.00  0.00    +0.000 C 
ATOM      8  C   UNL     1     110.874 128.944 139.883  0.00  0.00    +0.000 C 
ENDROOT
BRANCH   4   9
ATOM      9  O   UNL     1     110.822 128.444 141.221  0.00  0.00    +0.000 OA
BRANCH   9  14
ATOM     10  O   UNL     1     111.165 129.732 141.737  0.00  0.00    +0.000 OA
ATOM     11  O   UNL     1     111.173 127.765 142.683  0.00  0.00    +0.000 OA
ATOM     12  O   UNL     1     111.692 128.713 143.929  0.00  0.00    +0.000 OA
ATOM     13  O   UNL     1     111.860 130.340 143.714  0.00  0.00    +0.000 OA
ATOM     14  C   UNL     1     111.082 128.919 141.844  0.00  0.00    +0.000 C 
ATOM     15  C   UNL     1     111.257 128.579 142.575  0.00  0.00    +0.000 C 
ATOM     16  C   UNL     1     111.517 129.053 143.199  0.00  0.00    +0.000 C 
ATOM     17  C   UNL     1     111.600 129.867 143.091  0.00  0.00    +0.000 C 
ATOM     18  C   UNL     1     111.425 130.206 142.360  0.00  0.00    +0.000 C 
ATOM     19  C   UNL     1     111.508 131.020 142.252  0.00  0.00    +0.000 C 
ENDBRANCH   9  14
ENDBRANCH   4   9
BRANCH   8  20
ATOM     20  O   UNL     1     111.676 128.758 139.844  0.00  0.00    +0.000 OA
BRANCH  20  24
ATOM     21  O   UNL     1     112.099 126.616 137.916  0.00  0.00    +0.000 OA
ATOM     22  O   UNL     1     113.256 129.220 137.431  0.00  0.00    +0.000 OA
ATOM     23  O   UNL     1     113.445 128.135 136.498  0.00  0.00    +0.000 OA
ATOM     24  C   UNL     1     112.003 128.486 139.137  0.00  0.00    +0.000 A 
ATOM     25  C   UNL     1     111.878 127.672 138.888  0.00  0.00    +0.000 A 
ATOM     26  C   UNL     1     112.470 129.012 138.645  0.00  0.00    +0.000 A 
ATOM     27  C   UNL     1     112.222 127.398 138.150  0.00  0.00    +0.000 A 
ATOM     28  C   UNL     1     112.806 128.720 137.910  0.00  0.00    +0.000 A 
ATOM     29  C   UNL     1     112.670 127.904 137.678  0.00  0.00    +0.000 A 
ATOM     30  C   UNL     1     112.996 127.629 136.971  0.00  0.00    +0.000 A 
ATOM     31  C   UNL     1     112.424 126.341 137.210  0.00  0.00    +0.000 A 
ATOM     32  C   UNL     1     112.873 126.847 136.737  0.00  0.00    +0.000 A 
BRANCH  31  34
ATOM     33  O   UNL     1     111.933 123.215 136.274  0.00  0.00    +0.000 OA
ATOM     34  C   UNL     1     112.301 125.559 136.975  0.00  0.00    +0.000 A 
ATOM     35  C   UNL     1     111.624 125.358 136.549  0.00  0.00    +0.000 A 
ATOM     36  C   UNL     1     112.856 124.979 137.168  0.00  0.00    +0.000 A 
ATOM     37  C   UNL     1     111.502 124.577 136.316  0.00  0.00    +0.000 A 
ATOM     38  C   UNL     1     112.733 124.198 136.934  0.00  0.00    +0.000 A 
ATOM     39  C   UNL     1     112.056 123.997 136.508  0.00  0.00    +0.000 A 
ENDBRANCH  31  34
ENDBRANCH  20  24
ENDBRANCH   8  20
BRANCH   7  40
ATOM     40  C   UNL     1     109.318 129.816 138.623  0.00  0.00    +0.000 C 
BRANCH  40  41
ATOM     41  O   UNL     1     109.273 129.407 137.908  0.00  0.00    +0.000 OA
BRANCH  41  46
ATOM     42  O   UNL     1     108.701 130.554 137.277  0.00  0.00    +0.000 OA
ATOM     43  O   UNL     1     109.391 128.659 136.443  0.00  0.00    +0.000 OA
ATOM     44  O   UNL     1     108.878 129.432 135.078  0.00  0.00    +0.000 OA
ATOM     45  O   UNL     1     108.247 130.953 135.179  0.00  0.00    +0.000 OA
ATOM     46  C   UNL     1     109.016 129.794 137.226  0.00  0.00    +0.000 C 
ATOM     47  C   UNL     1     109.075 129.420 136.493  0.00  0.00    +0.000 C 
ATOM     48  C   UNL     1     108.819 129.806 135.811  0.00  0.00    +0.000 C 
ATOM     49  C   UNL     1     108.503 130.566 135.862  0.00  0.00    +0.000 C 
ATOM     50  C   UNL     1     108.444 130.940 136.595  0.00  0.00    +0.000 C 
BRANCH  50  52
ATOM     51  O   UNL     1     107.545 131.869 137.204  0.00  0.00    +0.000 OA
ATOM     52  C   UNL     1     108.129 131.701 136.645  0.00  0.00    +0.000 C 
ENDBRANCH  50  52
ENDBRANCH  41  46
ENDBRANCH  40  41
ENDBRANCH   7  40
TORSDOF 9
ENDMDL
MODEL 5
REMARK VINA RESULT:     -10.9      7.563      9.650
REMARK  Name = 74977530
REMARK  9 active torsions:
REMARK  status: ('A' for Active; 'I' for Inactive)
REMARK    1  A    between atoms: O_1  and  C_20
REMARK    2  A    between atoms: O_1  and  C_25
REMARK    3  A    between atoms: O_4  and  C_28
REMARK    4  A    between atoms: O_4  and  C_31
REMARK    5  A    between atoms: O_8  and  C_24
REMARK    6  A    between atoms: O_8  and  C_38
REMARK    7  A    between atoms: C_23  and  C_28
REMARK    8  A    between atoms: C_35  and  C_37
REMARK    9  A    between atoms: C_45  and  C_47
REMARK                            x       y       z     vdW  Elec       q    Type
REMARK                         _______ _______ _______ _____ _____    ______ ____
ROOT
ATOM      1  O   UNL     1     112.737 128.031 138.987  0.00  0.00    +0.000 OA
ATOM      2  O   UNL     1     111.818 125.830 139.647  0.00  0.00    +0.000 OA
ATOM      3  O   UNL     1     112.465 126.830 140.789  0.00  0.00    +0.000 OA
ATOM      4  C   UNL     1     112.107 126.798 138.635  0.00  0.00    +0.000 C 
ATOM      5  C   UNL     1     112.124 126.564 139.427  0.00  0.00    +0.000 C 
ATOM      6  C   UNL     1     112.448 127.064 139.997  0.00  0.00    +0.000 C 
ATOM      7  C   UNL     1     112.754 127.798 139.777  0.00  0.00    +0.000 C 
ATOM      8  C   UNL     1     112.413 127.532 138.415  0.00  0.00    +0.000 C 
ENDROOT
BRANCH   4   9
ATOM      9  O   UNL     1     111.783 126.297 138.065  0.00  0.00    +0.000 OA
BRANCH   9  14
ATOM     10  O   UNL     1     113.063 125.708 137.823  0.00  0.00    +0.000 OA
ATOM     11  O   UNL     1     111.061 125.068 137.235  0.00  0.00    +0.000 OA
ATOM     12  O   UNL     1     111.979 123.865 136.578  0.00  0.00    +0.000 OA
ATOM     13  O   UNL     1     113.620 123.891 136.751  0.00  0.00    +0.000 OA
ATOM     14  C   UNL     1     112.243 125.695 137.736  0.00  0.00    +0.000 C 
ATOM     15  C   UNL     1     111.881 125.081 137.322  0.00  0.00    +0.000 C 
ATOM     16  C   UNL     1     112.341 124.479 136.993  0.00  0.00    +0.000 C 
ATOM     17  C   UNL     1     113.161 124.492 137.079  0.00  0.00    +0.000 C 
ATOM     18  C   UNL     1     113.522 125.107 137.495  0.00  0.00    +0.000 C 
ATOM     19  C   UNL     1     114.342 125.120 137.581  0.00  0.00    +0.000 C 
ENDBRANCH   9  14
ENDBRANCH   4   9
BRANCH   8  20
ATOM     20  O   UNL     1     112.396 127.765 137.625  0.00  0.00    +0.000 OA
BRANCH  20  24
ATOM     21  O   UNL     1     110.547 129.948 137.073  0.00  0.00    +0.000 OA
ATOM     22  O   UNL     1     113.395 130.435 136.987  0.00  0.00    +0.000 OA
ATOM     23  O   UNL     1     112.450 131.491 136.719  0.00  0.00    +0.000 OA
ATOM     24  C   UNL     1     112.259 128.555 137.431  0.00  0.00    +0.000 A 
ATOM     25  C   UNL     1     111.454 128.848 137.351  0.00  0.00    +0.000 A 
ATOM     26  C   UNL     1     112.918 129.091 137.308  0.00  0.00    +0.000 A 
ATOM     27  C   UNL     1     111.321 129.672 137.149  0.00  0.00    +0.000 A 
ATOM     28  C   UNL     1     112.766 129.912 137.107  0.00  0.00    +0.000 A 
ATOM     29  C   UNL     1     111.956 130.187 137.031  0.00  0.00    +0.000 A 
ATOM     30  C   UNL     1     111.816 130.976 136.837  0.00  0.00    +0.000 A 
ATOM     31  C   UNL     1     110.407 130.737 136.879  0.00  0.00    +0.000 A 
ATOM     32  C   UNL     1     111.042 131.252 136.761  0.00  0.00    +0.000 A 
BRANCH  31  34
ATOM     33  O   UNL     1     107.312 131.839 136.577  0.00  0.00    +0.000 OA
ATOM     34  C   UNL     1     109.633 131.013 136.803  0.00  0.00    +0.000 A 
ATOM     35  C   UNL     1     109.218 130.889 136.101  0.00  0.00    +0.000 A 
ATOM     36  C   UNL     1     109.275 131.412 137.430  0.00  0.00    +0.000 A 
ATOM     37  C   UNL     1     108.445 131.164 136.026  0.00  0.00    +0.000 A 
ATOM     38  C   UNL     1     108.501 131.688 137.355  0.00  0.00    +0.000 A 
ATOM     39  C   UNL     1     108.086 131.563 136.653  0.00  0.00    +0.000 A 
ENDBRANCH  31  34
ENDBRANCH  20  24
ENDBRANCH   8  20
BRANCH   7  40
ATOM     40  C   UNL     1     113.078 128.298 140.348  0.00  0.00    +0.000 C 
BRANCH  40  41
ATOM     41  O   UNL     1     112.693 128.999 140.549  0.00  0.00    +0.000 OA
BRANCH  41  46
ATOM     42  O   UNL     1     113.887 129.785 140.570  0.00  0.00    +0.000 OA
ATOM     43  O   UNL     1     112.030 129.975 141.702  0.00  0.00    +0.000 OA
ATOM     44  O   UNL     1     112.891 131.249 142.299  0.00  0.00    +0.000 OA
ATOM     45  O   UNL     1     114.416 131.547 141.744  0.00  0.00    +0.000 OA
ATOM     46  C   UNL     1     113.125 129.636 140.848  0.00  0.00    +0.000 C 
ATOM     47  C   UNL     1     112.793 130.124 141.424  0.00  0.00    +0.000 C 
ATOM     48  C   UNL     1     113.223 130.761 141.723  0.00  0.00    +0.000 C 
ATOM     49  C   UNL     1     113.985 130.910 141.445  0.00  0.00    +0.000 C 
ATOM     50  C   UNL     1     114.317 130.421 140.869  0.00  0.00    +0.000 C 
BRANCH  50  52
ATOM     51  O   UNL     1     115.222 130.615 139.780  0.00  0.00    +0.000 OA
ATOM     52  C   UNL     1     115.080 130.571 140.591  0.00  0.00    +0.000 C 
ENDBRANCH  50  52
ENDBRANCH  41  46
ENDBRANCH  40  41
ENDBRANCH   7  40
TORSDOF 9
ENDMDL
MODEL 6
REMARK VINA RESULT:     -10.9      1.318      4.367
REMARK  Name = 74977530
REMARK  9 active torsions:
REMARK  status: ('A' for Active; 'I' for Inactive)
REMARK    1  A    between atoms: O_1  and  C_20
REMARK    2  A    between atoms: O_1  and  C_25
REMARK    3  A    between atoms: O_4  and  C_28
REMARK    4  A    between atoms: O_4  and  C_31
REMARK    5  A    between atoms: O_8  and  C_24
REMARK    6  A    between atoms: O_8  and  C_38
REMARK    7  A    between atoms: C_23  and  C_28
REMARK    8  A    between atoms: C_35  and  C_37
REMARK    9  A    between atoms: C_45  and  C_47
REMARK                            x       y       z     vdW  Elec       q    Type
REMARK                         _______ _______ _______ _____ _____    ______ ____
ROOT
ATOM      1  O   UNL     1     105.604 125.938 143.958  0.00  0.00    +0.000 OA
ATOM      2  O   UNL     1     106.663 124.674 145.804  0.00  0.00    +0.000 OA
ATOM      3  O   UNL     1     106.385 123.938 144.353  0.00  0.00    +0.000 OA
ATOM      4  C   UNL     1     106.096 125.885 145.299  0.00  0.00    +0.000 C 
ATOM      5  C   UNL     1     106.310 125.095 145.189  0.00  0.00    +0.000 C 
ATOM      6  C   UNL     1     106.171 124.728 144.463  0.00  0.00    +0.000 C 
ATOM      7  C   UNL     1     105.818 125.150 143.848  0.00  0.00    +0.000 C 
ATOM      8  C   UNL     1     105.743 126.307 144.684  0.00  0.00    +0.000 C 
ENDROOT
BRANCH   4   9
ATOM      9  O   UNL     1     106.235 126.252 146.024  0.00  0.00    +0.000 OA
BRANCH   9  14
ATOM     10  O   UNL     1     104.974 125.788 146.513  0.00  0.00    +0.000 OA
ATOM     11  O   UNL     1     106.638 126.754 147.543  0.00  0.00    +0.000 OA
ATOM     12  O   UNL     1     105.579 126.542 148.791  0.00  0.00    +0.000 OA
ATOM     13  O   UNL     1     104.117 125.827 148.519  0.00  0.00    +0.000 OA
ATOM     14  C   UNL     1     105.705 126.145 146.648  0.00  0.00    +0.000 C 
ATOM     15  C   UNL     1     105.907 126.397 147.408  0.00  0.00    +0.000 C 
ATOM     16  C   UNL     1     105.377 126.290 148.032  0.00  0.00    +0.000 C 
ATOM     17  C   UNL     1     104.646 125.933 147.896  0.00  0.00    +0.000 C 
ATOM     18  C   UNL     1     104.445 125.682 147.136  0.00  0.00    +0.000 C 
ATOM     19  C   UNL     1     103.714 125.324 147.000  0.00  0.00    +0.000 C 
ENDBRANCH   9  14
ENDBRANCH   4   9
BRANCH   8  20
ATOM     20  O   UNL     1     105.529 127.095 144.794  0.00  0.00    +0.000 OA
BRANCH  20  24
ATOM     21  O   UNL     1     104.286 128.674 142.685  0.00  0.00    +0.000 OA
ATOM     22  O   UNL     1     107.148 128.805 143.065  0.00  0.00    +0.000 OA
ATOM     23  O   UNL     1     106.498 129.572 142.031  0.00  0.00    +0.000 OA
ATOM     24  C   UNL     1     105.592 127.630 144.169  0.00  0.00    +0.000 A 
ATOM     25  C   UNL     1     104.889 127.880 143.741  0.00  0.00    +0.000 A 
ATOM     26  C   UNL     1     106.359 127.943 143.942  0.00  0.00    +0.000 A 
ATOM     27  C   UNL     1     104.964 128.438 143.092  0.00  0.00    +0.000 A 
ATOM     28  C   UNL     1     106.414 128.500 143.290  0.00  0.00    +0.000 A 
ATOM     29  C   UNL     1     105.701 128.737 142.874  0.00  0.00    +0.000 A 
ATOM     30  C   UNL     1     105.761 129.273 142.249  0.00  0.00    +0.000 A 
ATOM     31  C   UNL     1     104.346 129.209 142.060  0.00  0.00    +0.000 A 
ATOM     32  C   UNL     1     105.083 129.509 141.842  0.00  0.00    +0.000 A 
BRANCH  31  34
ATOM     33  O   UNL     1     101.635 130.154 140.432  0.00  0.00    +0.000 OA
ATOM     34  C   UNL     1     103.668 129.445 141.653  0.00  0.00    +0.000 A 
ATOM     35  C   UNL     1     103.450 129.060 140.957  0.00  0.00    +0.000 A 
ATOM     36  C   UNL     1     103.209 130.067 141.943  0.00  0.00    +0.000 A 
ATOM     37  C   UNL     1     102.773 129.296 140.550  0.00  0.00    +0.000 A 
ATOM     38  C   UNL     1     102.531 130.303 141.536  0.00  0.00    +0.000 A 
ATOM     39  C   UNL     1     102.313 129.918 140.839  0.00  0.00    +0.000 A 
ENDBRANCH  31  34
ENDBRANCH  20  24
ENDBRANCH   8  20
BRANCH   7  40
ATOM     40  C   UNL     1     105.679 124.782 143.123  0.00  0.00    +0.000 C 
BRANCH  40  41
ATOM     41  O   UNL     1     105.884 125.162 142.420  0.00  0.00    +0.000 OA
BRANCH  41  46
ATOM     42  O   UNL     1     105.436 124.030 141.672  0.00  0.00    +0.000 OA
ATOM     43  O   UNL     1     106.377 125.890 141.024  0.00  0.00    +0.000 OA
ATOM     44  O   UNL     1     106.176 125.122 139.578  0.00  0.00    +0.000 OA
ATOM     45  O   UNL     1     105.482 123.626 139.527  0.00  0.00    +0.000 OA
ATOM     46  C   UNL     1     105.783 124.777 141.697  0.00  0.00    +0.000 C 
ATOM     47  C   UNL     1     106.029 125.141 140.999  0.00  0.00    +0.000 C 
ATOM     48  C   UNL     1     105.929 124.758 140.276  0.00  0.00    +0.000 C 
ATOM     49  C   UNL     1     105.582 124.010 140.251  0.00  0.00    +0.000 C 
ATOM     50  C   UNL     1     105.336 123.646 140.949  0.00  0.00    +0.000 C 
BRANCH  50  52
ATOM     51  O   UNL     1     104.311 122.742 141.367  0.00  0.00    +0.000 OA
ATOM     52  C   UNL     1     104.989 122.898 140.924  0.00  0.00    +0.000 C 
ENDBRANCH  50  52
ENDBRANCH  41  46
ENDBRANCH  40  41
ENDBRANCH   7  40
TORSDOF 9
ENDMDL
MODEL 7
REMARK VINA RESULT:     -10.8      7.255      9.673
REMARK  Name = 74977530
REMARK  9 active torsions:
REMARK  status: ('A' for Active; 'I' for Inactive)
REMARK    1  A    between atoms: O_1  and  C_20
REMARK    2  A    between atoms: O_1  and  C_25
REMARK    3  A    between atoms: O_4  and  C_28
REMARK    4  A    between atoms: O_4  and  C_31
REMARK    5  A    between atoms: O_8  and  C_24
REMARK    6  A    between atoms: O_8  and  C_38
REMARK    7  A    between atoms: C_23  and  C_28
REMARK    8  A    between atoms: C_35  and  C_37
REMARK    9  A    between atoms: C_45  and  C_47
REMARK                            x       y       z     vdW  Elec       q    Type
REMARK                         _______ _______ _______ _____ _____    ______ ____
ROOT
ATOM      1  O   UNL     1     110.874 128.111 137.376  0.00  0.00    +0.000 OA
ATOM      2  O   UNL     1     110.097 126.040 138.487  0.00  0.00    +0.000 OA
ATOM      3  O   UNL     1     109.057 127.303 138.276  0.00  0.00    +0.000 OA
ATOM      4  C   UNL     1     111.136 126.789 137.852  0.00  0.00    +0.000 C 
ATOM      5  C   UNL     1     110.356 126.730 138.117  0.00  0.00    +0.000 C 
ATOM      6  C   UNL     1     109.837 127.362 138.011  0.00  0.00    +0.000 C 
ATOM      7  C   UNL     1     110.096 128.052 137.641  0.00  0.00    +0.000 C 
ATOM      8  C   UNL     1     111.395 127.479 137.481  0.00  0.00    +0.000 C 
ENDROOT
BRANCH   4   9
ATOM      9  O   UNL     1     111.656 126.157 137.958  0.00  0.00    +0.000 OA
BRANCH   9  14
ATOM     10  O   UNL     1     111.240 125.599 136.709  0.00  0.00    +0.000 OA
ATOM     11  O   UNL     1     112.543 124.802 138.268  0.00  0.00    +0.000 OA
ATOM     12  O   UNL     1     112.571 123.566 137.175  0.00  0.00    +0.000 OA
ATOM     13  O   UNL     1     111.711 123.685 135.772  0.00  0.00    +0.000 OA
ATOM     14  C   UNL     1     111.669 125.539 137.411  0.00  0.00    +0.000 C 
ATOM     15  C   UNL     1     112.114 124.861 137.567  0.00  0.00    +0.000 C 
ATOM     16  C   UNL     1     112.127 124.243 137.020  0.00  0.00    +0.000 C 
ATOM     17  C   UNL     1     111.697 124.303 136.318  0.00  0.00    +0.000 C 
ATOM     18  C   UNL     1     111.254 124.981 136.163  0.00  0.00    +0.000 C 
ATOM     19  C   UNL     1     110.824 125.041 135.462  0.00  0.00    +0.000 C 
ENDBRANCH   9  14
ENDBRANCH   4   9
BRANCH   8  20
ATOM     20  O   UNL     1     112.174 127.538 137.217  0.00  0.00    +0.000 OA
BRANCH  20  24
ATOM     21  O   UNL     1     113.519 129.545 138.844  0.00  0.00    +0.000 OA
ATOM     22  O   UNL     1     113.314 129.930 135.987  0.00  0.00    +0.000 OA
ATOM     23  O   UNL     1     113.973 130.902 136.825  0.00  0.00    +0.000 OA
ATOM     24  C   UNL     1     112.578 128.254 137.280  0.00  0.00    +0.000 A 
ATOM     25  C   UNL     1     112.845 128.534 138.048  0.00  0.00    +0.000 A 
ATOM     26  C   UNL     1     112.736 128.726 136.580  0.00  0.00    +0.000 A 
ATOM     27  C   UNL     1     113.265 129.281 138.105  0.00  0.00    +0.000 A 
ATOM     28  C   UNL     1     113.158 129.470 136.656  0.00  0.00    +0.000 A 
ATOM     29  C   UNL     1     113.416 129.733 137.431  0.00  0.00    +0.000 A 
ATOM     30  C   UNL     1     113.821 130.449 137.498  0.00  0.00    +0.000 A 
ATOM     31  C   UNL     1     113.923 130.261 138.910  0.00  0.00    +0.000 A 
ATOM     32  C   UNL     1     114.075 130.713 138.237  0.00  0.00    +0.000 A 
BRANCH  31  34
ATOM     33  O   UNL     1     114.937 131.315 141.869  0.00  0.00    +0.000 OA
ATOM     34  C   UNL     1     114.177 130.524 139.650  0.00  0.00    +0.000 A 
ATOM     35  C   UNL     1     114.970 130.720 139.769  0.00  0.00    +0.000 A 
ATOM     36  C   UNL     1     113.637 130.592 140.271  0.00  0.00    +0.000 A 
ATOM     37  C   UNL     1     115.222 130.984 140.508  0.00  0.00    +0.000 A 
ATOM     38  C   UNL     1     113.891 130.855 141.010  0.00  0.00    +0.000 A 
ATOM     39  C   UNL     1     114.683 131.051 141.129  0.00  0.00    +0.000 A 
ENDBRANCH  31  34
ENDBRANCH  20  24
ENDBRANCH   8  20
BRANCH   7  40
ATOM     40  C   UNL     1     109.575 128.684 137.535  0.00  0.00    +0.000 C 
BRANCH  40  41
ATOM     41  O   UNL     1     109.455 128.999 136.783  0.00  0.00    +0.000 OA
BRANCH  41  46
ATOM     42  O   UNL     1     109.560 130.386 137.110  0.00  0.00    +0.000 OA
ATOM     43  O   UNL     1     108.182 129.330 135.786  0.00  0.00    +0.000 OA
ATOM     44  O   UNL     1     107.651 130.883 135.615  0.00  0.00    +0.000 OA
ATOM     45  O   UNL     1     108.393 132.105 136.440  0.00  0.00    +0.000 OA
ATOM     46  C   UNL     1     109.190 129.776 136.698  0.00  0.00    +0.000 C 
ATOM     47  C   UNL     1     108.554 129.941 136.199  0.00  0.00    +0.000 C 
ATOM     48  C   UNL     1     108.288 130.718 136.113  0.00  0.00    +0.000 C 
ATOM     49  C   UNL     1     108.659 131.328 136.526  0.00  0.00    +0.000 C 
ATOM     50  C   UNL     1     109.295 131.162 137.024  0.00  0.00    +0.000 C 
BRANCH  50  52
ATOM     51  O   UNL     1     110.489 131.797 137.486  0.00  0.00    +0.000 OA
ATOM     52  C   UNL     1     109.666 131.773 137.437  0.00  0.00    +0.000 C 
ENDBRANCH  50  52
ENDBRANCH  41  46
ENDBRANCH  40  41
ENDBRANCH   7  40
TORSDOF 9
ENDMDL
MODEL 8
REMARK VINA RESULT:     -10.8      2.624      5.099
REMARK  Name = 74977530
REMARK  9 active torsions:
REMARK  status: ('A' for Active; 'I' for Inactive)
REMARK    1  A    between atoms: O_1  and  C_20
REMARK    2  A    between atoms: O_1  and  C_25
REMARK    3  A    between atoms: O_4  and  C_28
REMARK    4  A    between atoms: O_4  and  C_31
REMARK    5  A    between atoms: O_8  and  C_24
REMARK    6  A    between atoms: O_8  and  C_38
REMARK    7  A    between atoms: C_23  and  C_28
REMARK    8  A    between atoms: C_35  and  C_37
REMARK    9  A    between atoms: C_45  and  C_47
REMARK                            x       y       z     vdW  Elec       q    Type
REMARK                         _______ _______ _______ _____ _____    ______ ____
ROOT
ATOM      1  O   UNL     1     106.328 128.489 142.947  0.00  0.00    +0.000 OA
ATOM      2  O   UNL     1     107.089 126.360 143.953  0.00  0.00    +0.000 OA
ATOM      3  O   UNL     1     108.143 127.284 143.083  0.00  0.00    +0.000 OA
ATOM      4  C   UNL     1     106.054 127.317 143.717  0.00  0.00    +0.000 C 
ATOM      5  C   UNL     1     106.836 127.069 143.618  0.00  0.00    +0.000 C 
ATOM      6  C   UNL     1     107.362 127.532 143.183  0.00  0.00    +0.000 C 
ATOM      7  C   UNL     1     107.108 128.242 142.847  0.00  0.00    +0.000 C 
ATOM      8  C   UNL     1     105.801 128.027 143.382  0.00  0.00    +0.000 C 
ENDROOT
BRANCH   4   9
ATOM      9  O   UNL     1     105.528 126.855 144.153  0.00  0.00    +0.000 OA
BRANCH   9  14
ATOM     10  O   UNL     1     105.865 127.545 145.359  0.00  0.00    +0.000 OA
ATOM     11  O   UNL     1     104.859 125.634 145.038  0.00  0.00    +0.000 OA
ATOM     12  O   UNL     1     104.861 125.713 146.686  0.00  0.00    +0.000 OA
ATOM     13  O   UNL     1     105.533 127.013 147.449  0.00  0.00    +0.000 OA
ATOM     14  C   UNL     1     105.529 126.895 144.977  0.00  0.00    +0.000 C 
ATOM     15  C   UNL     1     105.194 126.284 145.419  0.00  0.00    +0.000 C 
ATOM     16  C   UNL     1     105.196 126.324 146.244  0.00  0.00    +0.000 C 
ATOM     17  C   UNL     1     105.532 126.974 146.626  0.00  0.00    +0.000 C 
ATOM     18  C   UNL     1     105.866 127.584 146.182  0.00  0.00    +0.000 C 
ATOM     19  C   UNL     1     106.202 128.234 146.563  0.00  0.00    +0.000 C 
ENDBRANCH   9  14
ENDBRANCH   4   9
BRANCH   8  20
ATOM     20  O   UNL     1     105.021 128.274 143.482  0.00  0.00    +0.000 OA
BRANCH  20  24
ATOM     21  O   UNL     1     103.293 130.272 142.252  0.00  0.00    +0.000 OA
ATOM     22  O   UNL     1     104.087 127.945 140.733  0.00  0.00    +0.000 OA
ATOM     23  O   UNL     1     103.233 128.955 140.157  0.00  0.00    +0.000 OA
ATOM     24  C   UNL     1     104.588 128.545 142.833  0.00  0.00    +0.000 A 
ATOM     25  C   UNL     1     104.155 129.286 142.881  0.00  0.00    +0.000 A 
ATOM     26  C   UNL     1     104.566 128.088 142.106  0.00  0.00    +0.000 A 
ATOM     27  C   UNL     1     103.707 129.560 142.201  0.00  0.00    +0.000 A 
ATOM     28  C   UNL     1     104.113 128.378 141.436  0.00  0.00    +0.000 A 
ATOM     29  C   UNL     1     103.687 129.121 141.503  0.00  0.00    +0.000 A 
ATOM     30  C   UNL     1     103.253 129.394 140.856  0.00  0.00    +0.000 A 
ATOM     31  C   UNL     1     102.860 130.545 141.606  0.00  0.00    +0.000 A 
ATOM     32  C   UNL     1     102.840 130.106 140.908  0.00  0.00    +0.000 A 
BRANCH  31  34
ATOM     33  O   UNL     1     101.205 133.393 141.812  0.00  0.00    +0.000 OA
ATOM     34  C   UNL     1     102.446 131.257 141.657  0.00  0.00    +0.000 A 
ATOM     35  C   UNL     1     102.816 131.965 141.452  0.00  0.00    +0.000 A 
ATOM     36  C   UNL     1     101.662 131.260 141.915  0.00  0.00    +0.000 A 
ATOM     37  C   UNL     1     102.402 132.676 141.504  0.00  0.00    +0.000 A 
ATOM     38  C   UNL     1     101.248 131.973 141.967  0.00  0.00    +0.000 A 
ATOM     39  C   UNL     1     101.618 132.680 141.761  0.00  0.00    +0.000 A 
ENDBRANCH  31  34
ENDBRANCH  20  24
ENDBRANCH   8  20
BRANCH   7  40
ATOM     40  C   UNL     1     107.636 128.703 142.412  0.00  0.00    +0.000 C 
BRANCH  40  41
ATOM     41  O   UNL     1     107.445 129.483 142.225  0.00  0.00    +0.000 OA
BRANCH  41  46
ATOM     42  O   UNL     1     108.723 130.120 142.165  0.00  0.00    +0.000 OA
ATOM     43  O   UNL     1     107.064 130.107 140.746  0.00  0.00    +0.000 OA
ATOM     44  O   UNL     1     108.152 131.056 139.946  0.00  0.00    +0.000 OA
ATOM     45  O   UNL     1     109.620 131.380 140.625  0.00  0.00    +0.000 OA
ATOM     46  C   UNL     1     107.990 129.958 141.826  0.00  0.00    +0.000 C 
ATOM     47  C   UNL     1     107.799 130.270 141.086  0.00  0.00    +0.000 C 
ATOM     48  C   UNL     1     108.342 130.744 140.685  0.00  0.00    +0.000 C 
ATOM     49  C   UNL     1     109.076 130.906 141.025  0.00  0.00    +0.000 C 
ATOM     50  C   UNL     1     109.267 130.594 141.765  0.00  0.00    +0.000 C 
BRANCH  50  52
ATOM     51  O   UNL     1     110.045 131.027 142.882  0.00  0.00    +0.000 OA
ATOM     52  C   UNL     1     110.001 130.756 142.104  0.00  0.00    +0.000 C 
ENDBRANCH  50  52
ENDBRANCH  41  46
ENDBRANCH  40  41
ENDBRANCH   7  40
TORSDOF 9
ENDMDL
MODEL 9
REMARK VINA RESULT:     -10.7      7.165      9.640
REMARK  Name = 74977530
REMARK  9 active torsions:
REMARK  status: ('A' for Active; 'I' for Inactive)
REMARK    1  A    between atoms: O_1  and  C_20
REMARK    2  A    between atoms: O_1  and  C_25
REMARK    3  A    between atoms: O_4  and  C_28
REMARK    4  A    between atoms: O_4  and  C_31
REMARK    5  A    between atoms: O_8  and  C_24
REMARK    6  A    between atoms: O_8  and  C_38
REMARK    7  A    between atoms: C_23  and  C_28
REMARK    8  A    between atoms: C_35  and  C_37
REMARK    9  A    between atoms: C_45  and  C_47
REMARK                            x       y       z     vdW  Elec       q    Type
REMARK                         _______ _______ _______ _____ _____    ______ ____
ROOT
ATOM      1  O   UNL     1     110.577 128.886 137.921  0.00  0.00    +0.000 OA
ATOM      2  O   UNL     1     108.546 130.228 138.366  0.00  0.00    +0.000 OA
ATOM      3  O   UNL     1     109.563 129.835 139.605  0.00  0.00    +0.000 OA
ATOM      4  C   UNL     1     109.392 129.529 137.450  0.00  0.00    +0.000 C 
ATOM      5  C   UNL     1     109.223 129.781 138.218  0.00  0.00    +0.000 C 
ATOM      6  C   UNL     1     109.732 129.584 138.837  0.00  0.00    +0.000 C 
ATOM      7  C   UNL     1     110.409 129.136 138.688  0.00  0.00    +0.000 C 
ATOM      8  C   UNL     1     110.069 129.082 137.301  0.00  0.00    +0.000 C 
ENDROOT
BRANCH   4   9
ATOM      9  O   UNL     1     108.883 129.726 136.831  0.00  0.00    +0.000 OA
BRANCH   9  14
ATOM     10  O   UNL     1     109.592 130.948 136.613  0.00  0.00    +0.000 OA
ATOM     11  O   UNL     1     107.667 130.257 135.850  0.00  0.00    +0.000 OA
ATOM     12  O   UNL     1     107.768 131.744 135.142  0.00  0.00    +0.000 OA
ATOM     13  O   UNL     1     109.085 132.700 135.414  0.00  0.00    +0.000 OA
ATOM     14  C   UNL     1     108.934 130.470 136.477  0.00  0.00    +0.000 C 
ATOM     15  C   UNL     1     108.326 130.735 135.986  0.00  0.00    +0.000 C 
ATOM     16  C   UNL     1     108.376 131.479 135.632  0.00  0.00    +0.000 C 
ATOM     17  C   UNL     1     109.035 131.957 135.768  0.00  0.00    +0.000 C 
ATOM     18  C   UNL     1     109.643 131.691 136.259  0.00  0.00    +0.000 C 
ATOM     19  C   UNL     1     110.301 132.169 136.395  0.00  0.00    +0.000 C 
ENDBRANCH   9  14
ENDBRANCH   4   9
BRANCH   8  20
ATOM     20  O   UNL     1     110.237 128.832 136.534  0.00  0.00    +0.000 OA
BRANCH  20  24
ATOM     21  O   UNL     1     112.145 126.632 136.614  0.00  0.00    +0.000 OA
ATOM     22  O   UNL     1     109.488 126.177 135.573  0.00  0.00    +0.000 OA
ATOM     23  O   UNL     1     110.459 125.111 135.628  0.00  0.00    +0.000 OA
ATOM     24  C   UNL     1     110.425 128.041 136.390  0.00  0.00    +0.000 A 
ATOM     25  C   UNL     1     111.207 127.740 136.582  0.00  0.00    +0.000 A 
ATOM     26  C   UNL     1     109.840 127.513 136.048  0.00  0.00    +0.000 A 
ATOM     27  C   UNL     1     111.393 126.915 136.429  0.00  0.00    +0.000 A 
ATOM     28  C   UNL     1     110.044 126.692 135.902  0.00  0.00    +0.000 A 
ATOM     29  C   UNL     1     110.831 126.409 136.100  0.00  0.00    +0.000 A 
ATOM     30  C   UNL     1     111.021 125.619 135.957  0.00  0.00    +0.000 A 
ATOM     31  C   UNL     1     112.335 125.842 136.472  0.00  0.00    +0.000 A 
ATOM     32  C   UNL     1     111.773 125.335 136.143  0.00  0.00    +0.000 A 
BRANCH  31  34
ATOM     33  O   UNL     1     115.344 124.709 137.215  0.00  0.00    +0.000 OA
ATOM     34  C   UNL     1     113.088 125.559 136.658  0.00  0.00    +0.000 A 
ATOM     35  C   UNL     1     113.174 124.941 137.197  0.00  0.00    +0.000 A 
ATOM     36  C   UNL     1     113.753 125.894 136.303  0.00  0.00    +0.000 A 
ATOM     37  C   UNL     1     113.926 124.658 137.382  0.00  0.00    +0.000 A 
ATOM     38  C   UNL     1     114.506 125.611 136.489  0.00  0.00    +0.000 A 
ATOM     39  C   UNL     1     114.592 124.992 137.029  0.00  0.00    +0.000 A 
ENDBRANCH  31  34
ENDBRANCH  20  24
ENDBRANCH   8  20
BRANCH   7  40
ATOM     40  C   UNL     1     110.917 128.940 139.308  0.00  0.00    +0.000 C 
BRANCH  40  41
ATOM     41  O   UNL     1     111.726 129.080 139.239  0.00  0.00    +0.000 OA
BRANCH  41  46
ATOM     42  O   UNL     1     112.168 127.874 139.865  0.00  0.00    +0.000 OA
ATOM     43  O   UNL     1     112.971 129.903 139.944  0.00  0.00    +0.000 OA
ATOM     44  O   UNL     1     114.035 129.108 140.923  0.00  0.00    +0.000 OA
ATOM     45  O   UNL     1     113.855 127.491 141.197  0.00  0.00    +0.000 OA
ATOM     46  C   UNL     1     112.258 128.682 139.728  0.00  0.00    +0.000 C 
ATOM     47  C   UNL     1     112.880 129.093 140.081  0.00  0.00    +0.000 C 
ATOM     48  C   UNL     1     113.413 128.697 140.570  0.00  0.00    +0.000 C 
ATOM     49  C   UNL     1     113.322 127.888 140.707  0.00  0.00    +0.000 C 
ATOM     50  C   UNL     1     112.700 127.477 140.354  0.00  0.00    +0.000 C 
BRANCH  50  52
ATOM     51  O   UNL     1     112.066 126.233 140.050  0.00  0.00    +0.000 OA
ATOM     52  C   UNL     1     112.610 126.668 140.492  0.00  0.00    +0.000 C 
ENDBRANCH  50  52
ENDBRANCH  41  46
ENDBRANCH  40  41
ENDBRANCH   7  40
TORSDOF 9
ENDMDL
MODEL 10
REMARK VINA RESULT:     -10.7      7.578      9.600
REMARK  Name = 74977530
REMARK  9 active torsions:
REMARK  status: ('A' for Active; 'I' for Inactive)
REMARK    1  A    between atoms: O_1  and  C_20
REMARK    2  A    between atoms: O_1  and  C_25
REMARK    3  A    between atoms: O_4  and  C_28
REMARK    4  A    between atoms: O_4  and  C_31
REMARK    5  A    between atoms: O_8  and  C_24
REMARK    6  A    between atoms: O_8  and  C_38
REMARK    7  A    between atoms: C_23  and  C_28
REMARK    8  A    between atoms: C_35  and  C_37
REMARK    9  A    between atoms: C_45  and  C_47
REMARK                            x       y       z     vdW  Elec       q    Type
REMARK                         _______ _______ _______ _____ _____    ______ ____
ROOT
ATOM      1  O   UNL     1     113.105 127.986 138.833  0.00  0.00    +0.000 OA
ATOM      2  O   UNL     1     114.411 127.922 140.934  0.00  0.00    +0.000 OA
ATOM      3  O   UNL     1     113.673 126.554 140.379  0.00  0.00    +0.000 OA
ATOM      4  C   UNL     1     113.909 128.649 139.810  0.00  0.00    +0.000 C 
ATOM      5  C   UNL     1     113.975 127.943 140.233  0.00  0.00    +0.000 C 
ATOM      6  C   UNL     1     113.606 127.260 139.956  0.00  0.00    +0.000 C 
ATOM      7  C   UNL     1     113.171 127.282 139.255  0.00  0.00    +0.000 C 
ATOM      8  C   UNL     1     113.474 128.670 139.110  0.00  0.00    +0.000 C 
ENDROOT
BRANCH   4   9
ATOM      9  O   UNL     1     114.278 129.332 140.088  0.00  0.00    +0.000 OA
BRANCH   9  14
ATOM     10  O   UNL     1     113.158 129.591 140.937  0.00  0.00    +0.000 OA
ATOM     11  O   UNL     1     115.016 130.699 140.644  0.00  0.00    +0.000 OA
ATOM     12  O   UNL     1     114.265 131.641 141.772  0.00  0.00    +0.000 OA
ATOM     13  O   UNL     1     112.776 131.216 142.343  0.00  0.00    +0.000 OA
ATOM     14  C   UNL     1     113.902 129.803 140.652  0.00  0.00    +0.000 C 
ATOM     15  C   UNL     1     114.272 130.487 140.930  0.00  0.00    +0.000 C 
ATOM     16  C   UNL     1     113.896 130.958 141.494  0.00  0.00    +0.000 C 
ATOM     17  C   UNL     1     113.151 130.746 141.779  0.00  0.00    +0.000 C 
ATOM     18  C   UNL     1     112.783 130.062 141.501  0.00  0.00    +0.000 C 
ATOM     19  C   UNL     1     112.039 129.849 141.786  0.00  0.00    +0.000 C 
ENDBRANCH   9  14
ENDBRANCH   4   9
BRANCH   8  20
ATOM     20  O   UNL     1     113.407 129.375 138.687  0.00  0.00    +0.000 OA
BRANCH  20  24
ATOM     21  O   UNL     1     111.116 129.701 136.919  0.00  0.00    +0.000 OA
ATOM     22  O   UNL     1     113.696 129.034 135.800  0.00  0.00    +0.000 OA
ATOM     23  O   UNL     1     112.539 129.203 134.955  0.00  0.00    +0.000 OA
ATOM     24  C   UNL     1     113.082 129.372 137.929  0.00  0.00    +0.000 A 
ATOM     25  C   UNL     1     112.247 129.542 137.815  0.00  0.00    +0.000 A 
ATOM     26  C   UNL     1     113.576 129.200 137.247  0.00  0.00    +0.000 A 
ATOM     27  C   UNL     1     111.918 129.537 137.022  0.00  0.00    +0.000 A 
ATOM     28  C   UNL     1     113.228 129.199 136.461  0.00  0.00    +0.000 A 
ATOM     29  C   UNL     1     112.392 129.371 136.367  0.00  0.00    +0.000 A 
ATOM     30  C   UNL     1     112.065 129.369 135.610  0.00  0.00    +0.000 A 
ATOM     31  C   UNL     1     110.788 129.699 136.162  0.00  0.00    +0.000 A 
ATOM     32  C   UNL     1     111.262 129.533 135.507  0.00  0.00    +0.000 A 
BRANCH  31  34
ATOM     33  O   UNL     1     107.580 130.355 135.750  0.00  0.00    +0.000 OA
ATOM     34  C   UNL     1     109.986 129.863 136.059  0.00  0.00    +0.000 A 
ATOM     35  C   UNL     1     109.429 129.259 136.136  0.00  0.00    +0.000 A 
ATOM     36  C   UNL     1     109.742 130.630 135.879  0.00  0.00    +0.000 A 
ATOM     37  C   UNL     1     108.627 129.424 136.033  0.00  0.00    +0.000 A 
ATOM     38  C   UNL     1     108.940 130.794 135.776  0.00  0.00    +0.000 A 
ATOM     39  C   UNL     1     108.382 130.191 135.853  0.00  0.00    +0.000 A 
ENDBRANCH  31  34
ENDBRANCH  20  24
ENDBRANCH   8  20
BRANCH   7  40
ATOM     40  C   UNL     1     112.802 126.597 138.978  0.00  0.00    +0.000 C 
BRANCH  40  41
ATOM     41  O   UNL     1     113.119 126.188 138.337  0.00  0.00    +0.000 OA
BRANCH  41  46
ATOM     42  O   UNL     1     111.852 126.018 137.698  0.00  0.00    +0.000 OA
ATOM     43  O   UNL     1     113.674 124.820 137.600  0.00  0.00    +0.000 OA
ATOM     44  O   UNL     1     112.685 123.967 136.591  0.00  0.00    +0.000 OA
ATOM     45  O   UNL     1     111.141 124.481 136.321  0.00  0.00    +0.000 OA
ATOM     46  C   UNL     1     112.624 125.762 137.833  0.00  0.00    +0.000 C 
ATOM     47  C   UNL     1     112.901 125.078 137.464  0.00  0.00    +0.000 C 
ATOM     48  C   UNL     1     112.407 124.651 136.960  0.00  0.00    +0.000 C 
ATOM     49  C   UNL     1     111.636 124.908 136.825  0.00  0.00    +0.000 C 
ATOM     50  C   UNL     1     111.358 125.592 137.194  0.00  0.00    +0.000 C 
BRANCH  50  52
ATOM     51  O   UNL     1     110.237 126.395 137.569  0.00  0.00    +0.000 OA
ATOM     52  C   UNL     1     110.586 125.849 137.058  0.00  0.00    +0.000 C 
ENDBRANCH  50  52
ENDBRANCH  41  46
ENDBRANCH  40  41
ENDBRANCH   7  40
TORSDOF 9
ENDMDL
