MODEL 1
REMARK VINA RESULT:      -7.8      0.000      0.000
REMARK  Name = 14544214
REMARK  3 active torsions:
REMARK  status: ('A' for Active; 'I' for Inactive)
REMARK    1  A    between atoms: O_2  and  C_15
REMARK    2  A    between atoms: O_4  and  C_19
REMARK    3  A    between atoms: C_5  and  C_9
REMARK                            x       y       z     vdW  Elec       q    Type
REMARK                         _______ _______ _______ _____ _____    ______ ____
ROOT
ATOM      1  O   UNL     1     105.982 125.208 146.189  0.00  0.00    +0.000 OA
ATOM      2  O   UNL     1     108.468 125.429 147.628  0.00  0.00    +0.000 OA
ATOM      3  C   UNL     1     104.797 124.611 146.857  0.00  0.00    +0.000 C 
ATOM      4  C   UNL     1     105.268 124.495 147.566  0.00  0.00    +0.000 C 
ATOM      5  C   UNL     1     105.157 124.970 146.164  0.00  0.00    +0.000 C 
ATOM      6  C   UNL     1     106.093 124.739 147.573  0.00  0.00    +0.000 A 
ATOM      7  C   UNL     1     106.438 125.083 146.907  0.00  0.00    +0.000 A 
ATOM      8  C   UNL     1     106.539 124.625 148.257  0.00  0.00    +0.000 A 
ATOM      9  C   UNL     1     107.229 125.313 146.925  0.00  0.00    +0.000 A 
ATOM     10  C   UNL     1     107.332 124.855 148.275  0.00  0.00    +0.000 A 
ATOM     11  C   UNL     1     107.677 125.199 147.609  0.00  0.00    +0.000 A 
ENDROOT
BRANCH   3  12
ATOM     12  C   UNL     1     104.005 124.381 146.842  0.00  0.00    +0.000 A 
ATOM     13  C   UNL     1     103.432 124.847 147.209  0.00  0.00    +0.000 A 
ATOM     14  C   UNL     1     103.787 123.683 146.459  0.00  0.00    +0.000 A 
ATOM     15  C   UNL     1     102.641 124.616 147.193  0.00  0.00    +0.000 A 
ATOM     16  C   UNL     1     102.995 123.452 146.444  0.00  0.00    +0.000 A 
ATOM     17  C   UNL     1     102.422 123.919 146.811  0.00  0.00    +0.000 A 
BRANCH  17  18
ATOM     18  O   UNL     1     101.630 123.687 146.795  0.00  0.00    +0.000 OA
ATOM     19  C   UNL     1     101.167 123.847 146.130  0.00  0.00    +0.000 C 
ENDBRANCH  17  18
ENDBRANCH   3  12
BRANCH  10  20
ATOM     20  O   UNL     1     107.778 124.740 148.959  0.00  0.00    +0.000 OA
ATOM     21  C   UNL     1     107.488 124.264 149.567  0.00  0.00    +0.000 C 
ENDBRANCH  10  20
TORSDOF 3
ENDMDL
MODEL 2
REMARK VINA RESULT:      -7.7      8.371     10.064
REMARK  Name = 14544214
REMARK  3 active torsions:
REMARK  status: ('A' for Active; 'I' for Inactive)
REMARK    1  A    between atoms: O_2  and  C_15
REMARK    2  A    between atoms: O_4  and  C_19
REMARK    3  A    between atoms: C_5  and  C_9
REMARK                            x       y       z     vdW  Elec       q    Type
REMARK                         _______ _______ _______ _____ _____    ______ ____
ROOT
ATOM      1  O   UNL     1     102.619 123.506 138.293  0.00  0.00    +0.000 OA
ATOM      2  O   UNL     1     102.231 122.788 135.530  0.00  0.00    +0.000 OA
ATOM      3  C   UNL     1     103.990 123.780 138.795  0.00  0.00    +0.000 C 
ATOM      4  C   UNL     1     104.298 123.622 138.009  0.00  0.00    +0.000 C 
ATOM      5  C   UNL     1     103.144 123.721 138.938  0.00  0.00    +0.000 C 
ATOM      6  C   UNL     1     103.758 123.408 137.376  0.00  0.00    +0.000 A 
ATOM      7  C   UNL     1     102.946 123.352 137.513  0.00  0.00    +0.000 A 
ATOM      8  C   UNL     1     104.061 123.258 136.624  0.00  0.00    +0.000 A 
ATOM      9  C   UNL     1     102.438 123.145 136.898  0.00  0.00    +0.000 A 
ATOM     10  C   UNL     1     103.551 123.051 136.008  0.00  0.00    +0.000 A 
ATOM     11  C   UNL     1     102.740 122.995 136.145  0.00  0.00    +0.000 A 
ENDROOT
BRANCH   3  12
ATOM     12  C   UNL     1     104.501 123.986 139.409  0.00  0.00    +0.000 A 
ATOM     13  C   UNL     1     104.772 124.763 139.477  0.00  0.00    +0.000 A 
ATOM     14  C   UNL     1     104.742 123.416 139.954  0.00  0.00    +0.000 A 
ATOM     15  C   UNL     1     105.283 124.969 140.090  0.00  0.00    +0.000 A 
ATOM     16  C   UNL     1     105.253 123.623 140.568  0.00  0.00    +0.000 A 
ATOM     17  C   UNL     1     105.524 124.399 140.636  0.00  0.00    +0.000 A 
BRANCH  17  18
ATOM     18  O   UNL     1     106.035 124.605 141.250  0.00  0.00    +0.000 OA
ATOM     19  C   UNL     1     105.771 124.580 142.032  0.00  0.00    +0.000 C 
ENDBRANCH  17  18
ENDBRANCH   3  12
BRANCH  10  20
ATOM     20  O   UNL     1     103.855 122.901 135.255  0.00  0.00    +0.000 OA
ATOM     21  C   UNL     1     104.433 123.396 134.937  0.00  0.00    +0.000 C 
ENDBRANCH  10  20
TORSDOF 3
ENDMDL
MODEL 3
REMARK VINA RESULT:      -7.6      7.834      8.785
REMARK  Name = 14544214
REMARK  3 active torsions:
REMARK  status: ('A' for Active; 'I' for Inactive)
REMARK    1  A    between atoms: O_2  and  C_15
REMARK    2  A    between atoms: O_4  and  C_19
REMARK    3  A    between atoms: C_5  and  C_9
REMARK                            x       y       z     vdW  Elec       q    Type
REMARK                         _______ _______ _______ _____ _____    ______ ____
ROOT
ATOM      1  O   UNL     1     102.721 129.648 140.583  0.00  0.00    +0.000 OA
ATOM      2  O   UNL     1     104.670 127.676 141.366  0.00  0.00    +0.000 OA
ATOM      3  C   UNL     1     102.400 130.769 141.503  0.00  0.00    +0.000 C 
ATOM      4  C   UNL     1     102.965 130.454 142.068  0.00  0.00    +0.000 C 
ATOM      5  C   UNL     1     102.277 130.363 140.755  0.00  0.00    +0.000 C 
ATOM      6  C   UNL     1     103.400 129.737 141.878  0.00  0.00    +0.000 A 
ATOM      7  C   UNL     1     103.282 129.347 141.161  0.00  0.00    +0.000 A 
ATOM      8  C   UNL     1     103.941 129.440 142.426  0.00  0.00    +0.000 A 
ATOM      9  C   UNL     1     103.706 128.661 140.990  0.00  0.00    +0.000 A 
ATOM     10  C   UNL     1     104.365 128.752 142.254  0.00  0.00    +0.000 A 
ATOM     11  C   UNL     1     104.247 128.363 141.537  0.00  0.00    +0.000 A 
ENDROOT
BRANCH   3  12
ATOM     12  C   UNL     1     101.978 131.456 141.677  0.00  0.00    +0.000 A 
ATOM     13  C   UNL     1     102.325 132.195 141.558  0.00  0.00    +0.000 A 
ATOM     14  C   UNL     1     101.208 131.404 141.968  0.00  0.00    +0.000 A 
ATOM     15  C   UNL     1     101.903 132.882 141.732  0.00  0.00    +0.000 A 
ATOM     16  C   UNL     1     100.785 132.091 142.142  0.00  0.00    +0.000 A 
ATOM     17  C   UNL     1     101.133 132.830 142.023  0.00  0.00    +0.000 A 
BRANCH  17  18
ATOM     18  O   UNL     1     100.710 133.517 142.197  0.00  0.00    +0.000 OA
ATOM     19  C   UNL     1     100.759 134.169 141.694  0.00  0.00    +0.000 C 
ENDBRANCH  17  18
ENDBRANCH   3  12
BRANCH  10  20
ATOM     20  O   UNL     1     104.906 128.455 142.802  0.00  0.00    +0.000 OA
ATOM     21  C   UNL     1     104.928 128.760 143.568  0.00  0.00    +0.000 C 
ENDBRANCH  10  20
TORSDOF 3
ENDMDL
MODEL 4
REMARK VINA RESULT:      -7.4      1.308      2.188
REMARK  Name = 14544214
REMARK  3 active torsions:
REMARK  status: ('A' for Active; 'I' for Inactive)
REMARK    1  A    between atoms: O_2  and  C_15
REMARK    2  A    between atoms: O_4  and  C_19
REMARK    3  A    between atoms: C_5  and  C_9
REMARK                            x       y       z     vdW  Elec       q    Type
REMARK                         _______ _______ _______ _____ _____    ______ ____
ROOT
ATOM      1  O   UNL     1     105.136 124.374 147.457  0.00  0.00    +0.000 OA
ATOM      2  O   UNL     1     107.451 125.779 146.474  0.00  0.00    +0.000 OA
ATOM      3  C   UNL     1     103.995 124.109 146.544  0.00  0.00    +0.000 C 
ATOM      4  C   UNL     1     104.422 124.505 145.913  0.00  0.00    +0.000 C 
ATOM      5  C   UNL     1     104.355 124.043 147.322  0.00  0.00    +0.000 C 
ATOM      6  C   UNL     1     105.203 124.831 146.067  0.00  0.00    +0.000 A 
ATOM      7  C   UNL     1     105.548 124.767 146.813  0.00  0.00    +0.000 A 
ATOM      8  C   UNL     1     105.606 125.210 145.456  0.00  0.00    +0.000 A 
ATOM      9  C   UNL     1     106.297 125.083 146.949  0.00  0.00    +0.000 A 
ATOM     10  C   UNL     1     106.357 125.527 145.592  0.00  0.00    +0.000 A 
ATOM     11  C   UNL     1     106.702 125.463 146.338  0.00  0.00    +0.000 A 
ENDROOT
BRANCH   3  12
ATOM     12  C   UNL     1     103.246 123.794 146.405  0.00  0.00    +0.000 A 
ATOM     13  C   UNL     1     102.573 124.217 146.626  0.00  0.00    +0.000 A 
ATOM     14  C   UNL     1     103.169 123.055 146.046  0.00  0.00    +0.000 A 
ATOM     15  C   UNL     1     101.823 123.902 146.487  0.00  0.00    +0.000 A 
ATOM     16  C   UNL     1     102.419 122.740 145.907  0.00  0.00    +0.000 A 
ATOM     17  C   UNL     1     101.747 123.163 146.128  0.00  0.00    +0.000 A 
BRANCH  17  18
ATOM     18  O   UNL     1     100.997 122.847 145.989  0.00  0.00    +0.000 OA
ATOM     19  C   UNL     1     100.732 122.739 145.215  0.00  0.00    +0.000 C 
ENDBRANCH  17  18
ENDBRANCH   3  12
BRANCH  10  20
ATOM     20  O   UNL     1     106.761 125.906 144.981  0.00  0.00    +0.000 OA
ATOM     21  C   UNL     1     106.350 126.173 144.317  0.00  0.00    +0.000 C 
ENDBRANCH  10  20
TORSDOF 3
ENDMDL
MODEL 5
REMARK VINA RESULT:      -7.4      6.993      7.938
REMARK  Name = 14544214
REMARK  3 active torsions:
REMARK  status: ('A' for Active; 'I' for Inactive)
REMARK    1  A    between atoms: O_2  and  C_15
REMARK    2  A    between atoms: O_4  and  C_19
REMARK    3  A    between atoms: C_5  and  C_9
REMARK                            x       y       z     vdW  Elec       q    Type
REMARK                         _______ _______ _______ _____ _____    ______ ____
ROOT
ATOM      1  O   UNL     1     105.720 123.348 140.259  0.00  0.00    +0.000 OA
ATOM      2  O   UNL     1     107.001 125.173 142.084  0.00  0.00    +0.000 OA
ATOM      3  C   UNL     1     104.689 123.854 139.318  0.00  0.00    +0.000 C 
ATOM      4  C   UNL     1     104.795 124.642 139.640  0.00  0.00    +0.000 C 
ATOM      5  C   UNL     1     105.155 123.202 139.629  0.00  0.00    +0.000 C 
ATOM      6  C   UNL     1     105.366 124.770 140.270  0.00  0.00    +0.000 A 
ATOM      7  C   UNL     1     105.813 124.144 140.569  0.00  0.00    +0.000 A 
ATOM      8  C   UNL     1     105.464 125.530 140.575  0.00  0.00    +0.000 A 
ATOM      9  C   UNL     1     106.358 124.279 141.173  0.00  0.00    +0.000 A 
ATOM     10  C   UNL     1     106.009 125.664 141.181  0.00  0.00    +0.000 A 
ATOM     11  C   UNL     1     106.456 125.039 141.480  0.00  0.00    +0.000 A 
ENDROOT
BRANCH   3  12
ATOM     12  C   UNL     1     104.143 123.722 138.713  0.00  0.00    +0.000 A 
ATOM     13  C   UNL     1     104.406 123.560 137.948  0.00  0.00    +0.000 A 
ATOM     14  C   UNL     1     103.334 123.752 138.874  0.00  0.00    +0.000 A 
ATOM     15  C   UNL     1     103.860 123.428 137.343  0.00  0.00    +0.000 A 
ATOM     16  C   UNL     1     102.789 123.621 138.269  0.00  0.00    +0.000 A 
ATOM     17  C   UNL     1     103.052 123.459 137.504  0.00  0.00    +0.000 A 
BRANCH  17  18
ATOM     18  O   UNL     1     102.505 123.327 136.900  0.00  0.00    +0.000 OA
ATOM     19  C   UNL     1     102.738 122.937 136.211  0.00  0.00    +0.000 C 
ENDBRANCH  17  18
ENDBRANCH   3  12
BRANCH  10  20
ATOM     20  O   UNL     1     106.106 126.424 141.486  0.00  0.00    +0.000 OA
ATOM     21  C   UNL     1     105.446 126.887 141.660  0.00  0.00    +0.000 C 
ENDBRANCH  10  20
TORSDOF 3
ENDMDL
MODEL 6
REMARK VINA RESULT:      -7.4      9.089     10.312
REMARK  Name = 14544214
REMARK  3 active torsions:
REMARK  status: ('A' for Active; 'I' for Inactive)
REMARK    1  A    between atoms: O_2  and  C_15
REMARK    2  A    between atoms: O_4  and  C_19
REMARK    3  A    between atoms: C_5  and  C_9
REMARK                            x       y       z     vdW  Elec       q    Type
REMARK                         _______ _______ _______ _____ _____    ______ ____
ROOT
ATOM      1  O   UNL     1     100.859 132.000 142.021  0.00  0.00    +0.000 OA
ATOM      2  O   UNL     1     100.804 134.880 141.967  0.00  0.00    +0.000 OA
ATOM      3  C   UNL     1     102.087 131.281 141.595  0.00  0.00    +0.000 C 
ATOM      4  C   UNL     1     102.463 132.037 141.439  0.00  0.00    +0.000 C 
ATOM      5  C   UNL     1     101.278 131.263 141.888  0.00  0.00    +0.000 C 
ATOM      6  C   UNL     1     102.028 132.765 141.578  0.00  0.00    +0.000 A 
ATOM      7  C   UNL     1     101.252 132.747 141.860  0.00  0.00    +0.000 A 
ATOM      8  C   UNL     1     102.396 133.487 141.427  0.00  0.00    +0.000 A 
ATOM      9  C   UNL     1     100.845 133.452 141.989  0.00  0.00    +0.000 A 
ATOM     10  C   UNL     1     101.987 134.193 141.557  0.00  0.00    +0.000 A 
ATOM     11  C   UNL     1     101.212 134.175 141.838  0.00  0.00    +0.000 A 
ENDROOT
BRANCH   3  12
ATOM     12  C   UNL     1     102.497 130.577 141.464  0.00  0.00    +0.000 A 
ATOM     13  C   UNL     1     103.010 130.286 142.040  0.00  0.00    +0.000 A 
ATOM     14  C   UNL     1     102.394 130.165 140.757  0.00  0.00    +0.000 A 
ATOM     15  C   UNL     1     103.421 129.582 141.910  0.00  0.00    +0.000 A 
ATOM     16  C   UNL     1     102.804 129.461 140.627  0.00  0.00    +0.000 A 
ATOM     17  C   UNL     1     103.317 129.170 141.203  0.00  0.00    +0.000 A 
BRANCH  17  18
ATOM     18  O   UNL     1     103.727 128.466 141.071  0.00  0.00    +0.000 OA
ATOM     19  C   UNL     1     104.413 128.302 141.500  0.00  0.00    +0.000 C 
ENDBRANCH  17  18
ENDBRANCH   3  12
BRANCH  10  20
ATOM     20  O   UNL     1     102.355 134.916 141.405  0.00  0.00    +0.000 OA
ATOM     21  C   UNL     1     103.150 134.936 141.183  0.00  0.00    +0.000 C 
ENDBRANCH  10  20
TORSDOF 3
ENDMDL
MODEL 7
REMARK VINA RESULT:      -7.4     11.963     13.081
REMARK  Name = 14544214
REMARK  3 active torsions:
REMARK  status: ('A' for Active; 'I' for Inactive)
REMARK    1  A    between atoms: O_2  and  C_15
REMARK    2  A    between atoms: O_4  and  C_19
REMARK    3  A    between atoms: C_5  and  C_9
REMARK                            x       y       z     vdW  Elec       q    Type
REMARK                         _______ _______ _______ _____ _____    ______ ____
ROOT
ATOM      1  O   UNL     1     109.894 125.759 135.315  0.00  0.00    +0.000 OA
ATOM      2  O   UNL     1     108.075 127.959 135.708  0.00  0.00    +0.000 OA
ATOM      3  C   UNL     1     111.101 125.642 136.173  0.00  0.00    +0.000 C 
ATOM      4  C   UNL     1     110.866 126.358 136.583  0.00  0.00    +0.000 C 
ATOM      5  C   UNL     1     110.611 125.340 135.534  0.00  0.00    +0.000 C 
ATOM      6  C   UNL     1     110.145 126.764 136.351  0.00  0.00    +0.000 A 
ATOM      7  C   UNL     1     109.675 126.475 135.738  0.00  0.00    +0.000 A 
ATOM      8  C   UNL     1     109.926 127.452 136.750  0.00  0.00    +0.000 A 
ATOM      9  C   UNL     1     108.986 126.872 135.524  0.00  0.00    +0.000 A 
ATOM     10  C   UNL     1     109.235 127.851 136.535  0.00  0.00    +0.000 A 
ATOM     11  C   UNL     1     108.765 127.561 135.922  0.00  0.00    +0.000 A 
ENDROOT
BRANCH   3  12
ATOM     12  C   UNL     1     111.792 125.246 136.389  0.00  0.00    +0.000 A 
ATOM     13  C   UNL     1     112.526 125.606 136.280  0.00  0.00    +0.000 A 
ATOM     14  C   UNL     1     111.748 124.489 136.715  0.00  0.00    +0.000 A 
ATOM     15  C   UNL     1     113.216 125.210 136.496  0.00  0.00    +0.000 A 
ATOM     16  C   UNL     1     112.439 124.093 136.931  0.00  0.00    +0.000 A 
ATOM     17  C   UNL     1     113.173 124.454 136.822  0.00  0.00    +0.000 A 
BRANCH  17  18
ATOM     18  O   UNL     1     113.863 124.056 137.038  0.00  0.00    +0.000 OA
ATOM     19  C   UNL     1     114.518 124.483 137.303  0.00  0.00    +0.000 C 
ENDBRANCH  17  18
ENDBRANCH   3  12
BRANCH  10  20
ATOM     20  O   UNL     1     109.016 128.538 136.934  0.00  0.00    +0.000 OA
ATOM     21  C   UNL     1     109.582 128.977 137.343  0.00  0.00    +0.000 C 
ENDBRANCH  10  20
TORSDOF 3
ENDMDL
MODEL 8
REMARK VINA RESULT:      -7.3     12.742     13.397
REMARK  Name = 14544214
REMARK  3 active torsions:
REMARK  status: ('A' for Active; 'I' for Inactive)
REMARK    1  A    between atoms: O_2  and  C_15
REMARK    2  A    between atoms: O_4  and  C_19
REMARK    3  A    between atoms: C_5  and  C_9
REMARK                            x       y       z     vdW  Elec       q    Type
REMARK                         _______ _______ _______ _____ _____    ______ ____
ROOT
ATOM      1  O   UNL     1     110.827 124.992 136.107  0.00  0.00    +0.000 OA
ATOM      2  O   UNL     1     112.691 123.037 137.109  0.00  0.00    +0.000 OA
ATOM      3  C   UNL     1     111.281 126.387 135.873  0.00  0.00    +0.000 C 
ATOM      4  C   UNL     1     112.066 126.166 136.141  0.00  0.00    +0.000 C 
ATOM      5  C   UNL     1     110.656 125.796 135.856  0.00  0.00    +0.000 C 
ATOM      6  C   UNL     1     112.218 125.357 136.389  0.00  0.00    +0.000 A 
ATOM      7  C   UNL     1     111.619 124.789 136.373  0.00  0.00    +0.000 A 
ATOM      8  C   UNL     1     112.974 125.151 136.645  0.00  0.00    +0.000 A 
ATOM      9  C   UNL     1     111.777 124.017 136.613  0.00  0.00    +0.000 A 
ATOM     10  C   UNL     1     113.132 124.377 136.885  0.00  0.00    +0.000 A 
ATOM     11  C   UNL     1     112.533 123.810 136.869  0.00  0.00    +0.000 A 
ENDROOT
BRANCH   3  12
ATOM     12  C   UNL     1     111.126 127.161 135.633  0.00  0.00    +0.000 A 
ATOM     13  C   UNL     1     110.910 127.316 134.852  0.00  0.00    +0.000 A 
ATOM     14  C   UNL     1     111.187 127.780 136.175  0.00  0.00    +0.000 A 
ATOM     15  C   UNL     1     110.755 128.090 134.612  0.00  0.00    +0.000 A 
ATOM     16  C   UNL     1     111.032 128.554 135.935  0.00  0.00    +0.000 A 
ATOM     17  C   UNL     1     110.816 128.709 135.154  0.00  0.00    +0.000 A 
BRANCH  17  18
ATOM     18  O   UNL     1     110.662 129.484 134.915  0.00  0.00    +0.000 OA
ATOM     19  C   UNL     1     109.883 129.754 134.871  0.00  0.00    +0.000 C 
ENDBRANCH  17  18
ENDBRANCH   3  12
BRANCH  10  20
ATOM     20  O   UNL     1     113.889 124.171 137.141  0.00  0.00    +0.000 OA
ATOM     21  C   UNL     1     114.482 124.743 137.177  0.00  0.00    +0.000 C 
ENDBRANCH  10  20
TORSDOF 3
ENDMDL
MODEL 9
REMARK VINA RESULT:      -7.2     13.087     14.806
REMARK  Name = 14544214
REMARK  3 active torsions:
REMARK  status: ('A' for Active; 'I' for Inactive)
REMARK    1  A    between atoms: O_2  and  C_15
REMARK    2  A    between atoms: O_4  and  C_19
REMARK    3  A    between atoms: C_5  and  C_9
REMARK                            x       y       z     vdW  Elec       q    Type
REMARK                         _______ _______ _______ _____ _____    ______ ____
ROOT
ATOM      1  O   UNL     1     112.203 127.370 136.007  0.00  0.00    +0.000 OA
ATOM      2  O   UNL     1     112.238 124.619 136.863  0.00  0.00    +0.000 OA
ATOM      3  C   UNL     1     113.455 128.169 136.054  0.00  0.00    +0.000 C 
ATOM      4  C   UNL     1     113.869 127.483 136.362  0.00  0.00    +0.000 C 
ATOM      5  C   UNL     1     112.616 128.112 135.875  0.00  0.00    +0.000 C 
ATOM      6  C   UNL     1     113.440 126.749 136.488  0.00  0.00    +0.000 A 
ATOM      7  C   UNL     1     112.635 126.694 136.316  0.00  0.00    +0.000 A 
ATOM      8  C   UNL     1     113.845 126.094 136.785  0.00  0.00    +0.000 A 
ATOM      9  C   UNL     1     112.235 125.984 136.441  0.00  0.00    +0.000 A 
ATOM     10  C   UNL     1     113.444 125.383 136.910  0.00  0.00    +0.000 A 
ATOM     11  C   UNL     1     112.639 125.328 136.738  0.00  0.00    +0.000 A 
ENDROOT
BRANCH   3  12
ATOM     12  C   UNL     1     113.858 128.878 135.930  0.00  0.00    +0.000 A 
ATOM     13  C   UNL     1     114.298 128.987 135.241  0.00  0.00    +0.000 A 
ATOM     14  C   UNL     1     113.821 129.478 136.496  0.00  0.00    +0.000 A 
ATOM     15  C   UNL     1     114.701 129.696 135.117  0.00  0.00    +0.000 A 
ATOM     16  C   UNL     1     114.225 130.186 136.372  0.00  0.00    +0.000 A 
ATOM     17  C   UNL     1     114.665 130.296 135.683  0.00  0.00    +0.000 A 
BRANCH  17  18
ATOM     18  O   UNL     1     115.068 131.005 135.559  0.00  0.00    +0.000 OA
ATOM     19  C   UNL     1     115.611 131.068 134.942  0.00  0.00    +0.000 C 
ENDBRANCH  17  18
ENDBRANCH   3  12
BRANCH  10  20
ATOM     20  O   UNL     1     113.848 124.729 137.206  0.00  0.00    +0.000 OA
ATOM     21  C   UNL     1     114.663 124.767 137.329  0.00  0.00    +0.000 C 
ENDBRANCH  10  20
TORSDOF 3
ENDMDL
MODEL 10
REMARK VINA RESULT:      -7.2     13.008     14.342
REMARK  Name = 14544214
REMARK  3 active torsions:
REMARK  status: ('A' for Active; 'I' for Inactive)
REMARK    1  A    between atoms: O_2  and  C_15
REMARK    2  A    between atoms: O_4  and  C_19
REMARK    3  A    between atoms: C_5  and  C_9
REMARK                            x       y       z     vdW  Elec       q    Type
REMARK                         _______ _______ _______ _____ _____    ______ ____
ROOT
ATOM      1  O   UNL     1     113.424 126.008 136.827  0.00  0.00    +0.000 OA
ATOM      2  O   UNL     1     111.415 124.024 136.253  0.00  0.00    +0.000 OA
ATOM      3  C   UNL     1     113.209 127.415 136.403  0.00  0.00    +0.000 C 
ATOM      4  C   UNL     1     112.451 127.188 136.070  0.00  0.00    +0.000 C 
ATOM      5  C   UNL     1     113.699 126.821 136.784  0.00  0.00    +0.000 C 
ATOM      6  C   UNL     1     112.192 126.370 136.122  0.00  0.00    +0.000 A 
ATOM      7  C   UNL     1     112.662 125.799 136.487  0.00  0.00    +0.000 A 
ATOM      8  C   UNL     1     111.462 126.159 135.799  0.00  0.00    +0.000 A 
ATOM      9  C   UNL     1     112.403 125.018 136.531  0.00  0.00    +0.000 A 
ATOM     10  C   UNL     1     111.203 125.376 135.843  0.00  0.00    +0.000 A 
ATOM     11  C   UNL     1     111.674 124.806 136.209  0.00  0.00    +0.000 A 
ENDROOT
BRANCH   3  12
ATOM     12  C   UNL     1     113.465 128.198 136.357  0.00  0.00    +0.000 A 
ATOM     13  C   UNL     1     113.268 128.732 136.955  0.00  0.00    +0.000 A 
ATOM     14  C   UNL     1     113.919 128.447 135.715  0.00  0.00    +0.000 A 
ATOM     15  C   UNL     1     113.524 129.515 136.909  0.00  0.00    +0.000 A 
ATOM     16  C   UNL     1     114.176 129.229 135.670  0.00  0.00    +0.000 A 
ATOM     17  C   UNL     1     113.978 129.763 136.267  0.00  0.00    +0.000 A 
BRANCH  17  18
ATOM     18  O   UNL     1     114.235 130.547 136.221  0.00  0.00    +0.000 OA
ATOM     19  C   UNL     1     114.917 130.732 135.795  0.00  0.00    +0.000 C 
ENDBRANCH  17  18
ENDBRANCH   3  12
BRANCH  10  20
ATOM     20  O   UNL     1     110.474 125.165 135.521  0.00  0.00    +0.000 OA
ATOM     21  C   UNL     1     110.049 125.709 135.070  0.00  0.00    +0.000 C 
ENDBRANCH  10  20
TORSDOF 3
ENDMDL
