MODEL 1
REMARK VINA RESULT:     -11.0      0.000      0.000
REMARK  Name = 131752951
REMARK  14 active torsions:
REMARK  status: ('A' for Active; 'I' for Inactive)
REMARK    1  A    between atoms: O_1  and  C_26
REMARK    2  A    between atoms: O_1  and  C_28
REMARK    3  A    between atoms: O_4  and  C_29
REMARK    4  A    between atoms: O_4  and  C_44
REMARK    5  A    between atoms: O_5  and  C_32
REMARK    6  A    between atoms: O_5  and  C_43
REMARK    7  A    between atoms: O_13  and  C_42
REMARK    8  A    between atoms: O_13  and  C_50
REMARK    9  A    between atoms: C_34  and  C_36
REMARK   10  A    between atoms: C_35  and  C_37
REMARK   11  A    between atoms: C_41  and  C_45
REMARK   12  A    between atoms: C_44  and  C_51
REMARK   13  A    between atoms: C_46  and  C_53
REMARK   14  A    between atoms: C_56  and  C_61
REMARK                            x       y       z     vdW  Elec       q    Type
REMARK                         _______ _______ _______ _____ _____    ______ ____
ROOT
ATOM      1  O   UNL     1     111.221 130.043 139.615  0.00  0.00    +0.000 OA
ATOM      2  O   UNL     1     108.869 130.814 139.598  0.00  0.00    +0.000 OA
ATOM      3  O   UNL     1     109.750 130.886 140.991  0.00  0.00    +0.000 OA
ATOM      4  C   UNL     1     109.996 130.264 138.912  0.00  0.00    +0.000 C 
ATOM      5  C   UNL     1     109.653 130.557 139.603  0.00  0.00    +0.000 C 
ATOM      6  C   UNL     1     110.093 130.593 140.299  0.00  0.00    +0.000 C 
ATOM      7  C   UNL     1     110.779 130.007 138.918  0.00  0.00    +0.000 C 
ATOM      8  C   UNL     1     110.877 130.336 140.305  0.00  0.00    +0.000 C 
ENDROOT
BRANCH   8  10
ATOM      9  O   UNL     1     112.006 130.827 141.032  0.00  0.00    +0.000 OA
ATOM     10  C   UNL     1     111.318 130.372 141.002  0.00  0.00    +0.000 C 
ENDBRANCH   8  10
BRANCH   4  11
ATOM     11  O   UNL     1     109.555 130.228 138.216  0.00  0.00    +0.000 OA
BRANCH  11  15
ATOM     12  O   UNL     1     109.886 131.586 137.917  0.00  0.00    +0.000 OA
ATOM     13  O   UNL     1     108.184 131.606 136.121  0.00  0.00    +0.000 OA
ATOM     14  O   UNL     1     109.083 132.957 136.421  0.00  0.00    +0.000 OA
ATOM     15  C   UNL     1     109.437 130.911 137.767  0.00  0.00    +0.000 C 
ATOM     16  C   UNL     1     108.869 130.917 137.168  0.00  0.00    +0.000 C 
ATOM     17  C   UNL     1     108.751 131.600 136.719  0.00  0.00    +0.000 C 
ATOM     18  C   UNL     1     109.201 132.275 136.870  0.00  0.00    +0.000 C 
ATOM     19  C   UNL     1     109.768 132.268 137.468  0.00  0.00    +0.000 C 
BRANCH  19  21
ATOM     20  O   UNL     1     110.165 133.319 138.351  0.00  0.00    +0.000 OA
ATOM     21  C   UNL     1     110.218 132.943 137.619  0.00  0.00    +0.000 C 
ENDBRANCH  19  21
BRANCH  16  22
ATOM     22  O   UNL     1     108.420 130.242 137.019  0.00  0.00    +0.000 OA
BRANCH  22  24
ATOM     23  O   UNL     1     107.833 130.156 135.718  0.00  0.00    +0.000 OA
ATOM     24  C   UNL     1     108.406 129.916 136.260  0.00  0.00    +0.000 C 
BRANCH  24  25
ATOM     25  C   UNL     1     108.966 129.349 136.045  0.00  0.00    +0.000 C 
ATOM     26  C   UNL     1     108.721 128.626 135.733  0.00  0.00    +0.000 C 
BRANCH  26  29
ATOM     27  O   UNL     1     109.785 125.984 135.970  0.00  0.00    +0.000 OA
ATOM     28  O   UNL     1     110.960 126.359 134.874  0.00  0.00    +0.000 OA
ATOM     29  C   UNL     1     109.281 128.059 135.518  0.00  0.00    +0.000 A 
ATOM     30  C   UNL     1     109.253 127.305 135.851  0.00  0.00    +0.000 A 
ATOM     31  C   UNL     1     109.869 128.247 134.970  0.00  0.00    +0.000 A 
ATOM     32  C   UNL     1     109.813 126.738 135.636  0.00  0.00    +0.000 A 
ATOM     33  C   UNL     1     110.428 127.680 134.755  0.00  0.00    +0.000 A 
ATOM     34  C   UNL     1     110.401 126.926 135.088  0.00  0.00    +0.000 A 
ENDBRANCH  26  29
ENDBRANCH  24  25
ENDBRANCH  22  24
ENDBRANCH  16  22
ENDBRANCH  11  15
ENDBRANCH   4  11
BRANCH   7  35
ATOM     35  O   UNL     1     111.123 129.714 138.228  0.00  0.00    +0.000 OA
BRANCH  35  39
ATOM     36  O   UNL     1     112.848 128.400 137.977  0.00  0.00    +0.000 OA
ATOM     37  O   UNL     1     110.556 128.322 138.909  0.00  0.00    +0.000 OA
ATOM     38  O   UNL     1     110.728 126.942 139.293  0.00  0.00    +0.000 OA
ATOM     39  C   UNL     1     111.603 129.044 138.258  0.00  0.00    +0.000 A 
ATOM     40  C   UNL     1     112.368 129.071 137.947  0.00  0.00    +0.000 A 
ATOM     41  C   UNL     1     111.320 128.349 138.598  0.00  0.00    +0.000 A 
ATOM     42  C   UNL     1     111.800 127.679 138.628  0.00  0.00    +0.000 A 
ATOM     43  C   UNL     1     112.564 127.704 138.318  0.00  0.00    +0.000 A 
ATOM     44  C   UNL     1     112.785 126.286 138.696  0.00  0.00    +0.000 A 
ATOM     45  C   UNL     1     113.075 127.013 138.343  0.00  0.00    +0.000 A 
ATOM     46  C   UNL     1     111.493 126.960 138.985  0.00  0.00    +0.000 A 
ATOM     47  C   UNL     1     111.989 126.258 139.020  0.00  0.00    +0.000 A 
BRANCH  40  50
ATOM     48  O   UNL     1     113.884 131.485 138.147  0.00  0.00    +0.000 OA
ATOM     49  O   UNL     1     113.502 131.854 136.585  0.00  0.00    +0.000 OA
ATOM     50  C   UNL     1     112.651 129.766 137.607  0.00  0.00    +0.000 A 
ATOM     51  C   UNL     1     113.126 130.278 138.047  0.00  0.00    +0.000 A 
ATOM     52  C   UNL     1     112.460 129.950 136.826  0.00  0.00    +0.000 A 
ATOM     53  C   UNL     1     113.409 130.973 137.707  0.00  0.00    +0.000 A 
ATOM     54  C   UNL     1     112.744 130.647 136.485  0.00  0.00    +0.000 A 
ATOM     55  C   UNL     1     113.218 131.157 136.926  0.00  0.00    +0.000 A 
ENDBRANCH  40  50
BRANCH  44  56
ATOM     56  O   UNL     1     113.267 125.617 138.725  0.00  0.00    +0.000 OA
BRANCH  56  65
ATOM     57  O   UNL     1     112.815 124.831 137.620  0.00  0.00    +0.000 OA
ATOM     58  O   UNL     1     115.141 124.651 136.796  0.00  0.00    +0.000 OA
ATOM     59  O   UNL     1     113.914 123.924 135.966  0.00  0.00    +0.000 OA
ATOM     60  O   UNL     1     114.818 125.497 138.175  0.00  0.00    +0.000 OA
ATOM     61  C   UNL     1     114.366 124.711 137.071  0.00  0.00    +0.000 C 
ATOM     62  C   UNL     1     113.752 124.347 136.656  0.00  0.00    +0.000 C 
ATOM     63  C   UNL     1     114.204 125.134 137.760  0.00  0.00    +0.000 C 
ATOM     64  C   UNL     1     112.976 124.407 136.931  0.00  0.00    +0.000 C 
ATOM     65  C   UNL     1     113.428 125.194 138.035  0.00  0.00    +0.000 C 
BRANCH  64  67
ATOM     66  O   UNL     1     111.797 123.599 136.922  0.00  0.00    +0.000 OA
ATOM     67  C   UNL     1     112.362 124.044 136.516  0.00  0.00    +0.000 C 
ENDBRANCH  64  67
ENDBRANCH  56  65
ENDBRANCH  44  56
ENDBRANCH  35  39
ENDBRANCH   7  35
TORSDOF 14
ENDMDL
MODEL 2
REMARK VINA RESULT:     -10.5      2.352      5.008
REMARK  Name = 131752951
REMARK  14 active torsions:
REMARK  status: ('A' for Active; 'I' for Inactive)
REMARK    1  A    between atoms: O_1  and  C_26
REMARK    2  A    between atoms: O_1  and  C_28
REMARK    3  A    between atoms: O_4  and  C_29
REMARK    4  A    between atoms: O_4  and  C_44
REMARK    5  A    between atoms: O_5  and  C_32
REMARK    6  A    between atoms: O_5  and  C_43
REMARK    7  A    between atoms: O_13  and  C_42
REMARK    8  A    between atoms: O_13  and  C_50
REMARK    9  A    between atoms: C_34  and  C_36
REMARK   10  A    between atoms: C_35  and  C_37
REMARK   11  A    between atoms: C_41  and  C_45
REMARK   12  A    between atoms: C_44  and  C_51
REMARK   13  A    between atoms: C_46  and  C_53
REMARK   14  A    between atoms: C_56  and  C_61
REMARK                            x       y       z     vdW  Elec       q    Type
REMARK                         _______ _______ _______ _____ _____    ______ ____
ROOT
ATOM      1  O   UNL     1     110.832 129.831 138.391  0.00  0.00    +0.000 OA
ATOM      2  O   UNL     1     111.202 129.909 135.945  0.00  0.00    +0.000 OA
ATOM      3  O   UNL     1     110.094 130.912 136.645  0.00  0.00    +0.000 OA
ATOM      4  C   UNL     1     111.510 129.355 137.226  0.00  0.00    +0.000 C 
ATOM      5  C   UNL     1     111.079 129.883 136.760  0.00  0.00    +0.000 C 
ATOM      6  C   UNL     1     110.525 130.384 137.110  0.00  0.00    +0.000 C 
ATOM      7  C   UNL     1     111.387 129.329 138.041  0.00  0.00    +0.000 C 
ATOM      8  C   UNL     1     110.402 130.358 137.925  0.00  0.00    +0.000 C 
ENDROOT
BRANCH   8  10
ATOM      9  O   UNL     1     110.085 131.391 138.860  0.00  0.00    +0.000 OA
ATOM     10  C   UNL     1     109.848 130.860 138.275  0.00  0.00    +0.000 C 
ENDBRANCH   8  10
BRANCH   4  11
ATOM     11  O   UNL     1     112.063 128.853 136.876  0.00  0.00    +0.000 OA
BRANCH  11  15
ATOM     12  O   UNL     1     112.997 129.932 136.787  0.00  0.00    +0.000 OA
ATOM     13  O   UNL     1     114.504 128.516 135.428  0.00  0.00    +0.000 OA
ATOM     14  O   UNL     1     114.935 130.067 135.793  0.00  0.00    +0.000 OA
ATOM     15  C   UNL     1     112.781 129.157 136.605  0.00  0.00    +0.000 C 
ATOM     16  C   UNL     1     113.284 128.685 136.152  0.00  0.00    +0.000 C 
ATOM     17  C   UNL     1     114.002 128.988 135.881  0.00  0.00    +0.000 C 
ATOM     18  C   UNL     1     114.217 129.763 136.064  0.00  0.00    +0.000 C 
ATOM     19  C   UNL     1     113.715 130.235 136.516  0.00  0.00    +0.000 C 
BRANCH  19  21
ATOM     20  O   UNL     1     114.082 131.223 137.481  0.00  0.00    +0.000 OA
ATOM     21  C   UNL     1     113.929 131.011 136.699  0.00  0.00    +0.000 C 
ENDBRANCH  19  21
BRANCH  16  22
ATOM     22  O   UNL     1     113.068 127.909 135.970  0.00  0.00    +0.000 OA
BRANCH  22  24
ATOM     23  O   UNL     1     114.173 127.375 136.703  0.00  0.00    +0.000 OA
ATOM     24  C   UNL     1     113.427 127.279 136.364  0.00  0.00    +0.000 C 
BRANCH  24  25
ATOM     25  C   UNL     1     113.040 126.552 136.417  0.00  0.00    +0.000 C 
ATOM     26  C   UNL     1     113.340 125.960 136.908  0.00  0.00    +0.000 C 
BRANCH  26  29
ATOM     27  O   UNL     1     111.284 124.331 138.042  0.00  0.00    +0.000 OA
ATOM     28  O   UNL     1     111.787 123.056 137.124  0.00  0.00    +0.000 OA
ATOM     29  C   UNL     1     112.952 125.234 136.962  0.00  0.00    +0.000 A 
ATOM     30  C   UNL     1     112.312 125.146 137.475  0.00  0.00    +0.000 A 
ATOM     31  C   UNL     1     113.204 124.597 136.502  0.00  0.00    +0.000 A 
ATOM     32  C   UNL     1     111.924 124.419 137.528  0.00  0.00    +0.000 A 
ATOM     33  C   UNL     1     112.815 123.871 136.557  0.00  0.00    +0.000 A 
ATOM     34  C   UNL     1     112.176 123.782 137.069  0.00  0.00    +0.000 A 
ENDBRANCH  26  29
ENDBRANCH  24  25
ENDBRANCH  22  24
ENDBRANCH  16  22
ENDBRANCH  11  15
ENDBRANCH   4  11
BRANCH   7  35
ATOM     35  O   UNL     1     111.817 128.801 138.507  0.00  0.00    +0.000 OA
BRANCH  35  39
ATOM     36  O   UNL     1     111.369 127.958 140.470  0.00  0.00    +0.000 OA
ATOM     37  O   UNL     1     110.453 127.937 138.170  0.00  0.00    +0.000 OA
ATOM     38  O   UNL     1     109.373 127.071 138.578  0.00  0.00    +0.000 OA
ATOM     39  C   UNL     1     111.440 128.376 139.105  0.00  0.00    +0.000 A 
ATOM     40  C   UNL     1     111.746 128.384 139.871  0.00  0.00    +0.000 A 
ATOM     41  C   UNL     1     110.759 127.944 138.937  0.00  0.00    +0.000 A 
ATOM     42  C   UNL     1     110.382 127.519 139.535  0.00  0.00    +0.000 A 
ATOM     43  C   UNL     1     110.686 127.526 140.301  0.00  0.00    +0.000 A 
ATOM     44  C   UNL     1     109.593 126.635 140.764  0.00  0.00    +0.000 A 
ATOM     45  C   UNL     1     110.304 127.087 140.933  0.00  0.00    +0.000 A 
ATOM     46  C   UNL     1     109.672 127.073 139.347  0.00  0.00    +0.000 A 
ATOM     47  C   UNL     1     109.274 126.627 139.965  0.00  0.00    +0.000 A 
BRANCH  40  50
ATOM     48  O   UNL     1     112.990 130.759 140.861  0.00  0.00    +0.000 OA
ATOM     49  O   UNL     1     114.475 130.112 140.545  0.00  0.00    +0.000 OA
ATOM     50  C   UNL     1     112.428 128.816 140.040  0.00  0.00    +0.000 A 
ATOM     51  C   UNL     1     112.368 129.571 140.366  0.00  0.00    +0.000 A 
ATOM     52  C   UNL     1     113.170 128.492 139.882  0.00  0.00    +0.000 A 
ATOM     53  C   UNL     1     113.050 130.003 140.535  0.00  0.00    +0.000 A 
ATOM     54  C   UNL     1     113.853 128.925 140.051  0.00  0.00    +0.000 A 
ATOM     55  C   UNL     1     113.792 129.680 140.377  0.00  0.00    +0.000 A 
ENDBRANCH  40  50
BRANCH  44  56
ATOM     56  O   UNL     1     109.218 126.211 141.364  0.00  0.00    +0.000 OA
BRANCH  56  65
ATOM     57  O   UNL     1     108.582 127.266 142.089  0.00  0.00    +0.000 OA
ATOM     58  O   UNL     1     106.477 125.965 142.136  0.00  0.00    +0.000 OA
ATOM     59  O   UNL     1     106.543 127.453 142.845  0.00  0.00    +0.000 OA
ATOM     60  O   UNL     1     107.815 125.344 141.395  0.00  0.00    +0.000 OA
ATOM     61  C   UNL     1     107.179 126.398 142.120  0.00  0.00    +0.000 C 
ATOM     62  C   UNL     1     107.212 127.143 142.475  0.00  0.00    +0.000 C 
ATOM     63  C   UNL     1     107.848 126.088 141.750  0.00  0.00    +0.000 C 
ATOM     64  C   UNL     1     107.913 127.576 142.460  0.00  0.00    +0.000 C 
ATOM     65  C   UNL     1     108.549 126.522 141.735  0.00  0.00    +0.000 C 
BRANCH  64  67
ATOM     66  O   UNL     1     108.514 128.477 143.394  0.00  0.00    +0.000 OA
ATOM     67  C   UNL     1     107.946 128.320 142.814  0.00  0.00    +0.000 C 
ENDBRANCH  64  67
ENDBRANCH  56  65
ENDBRANCH  44  56
ENDBRANCH  35  39
ENDBRANCH   7  35
TORSDOF 14
ENDMDL
MODEL 3
REMARK VINA RESULT:     -10.3      2.766      5.872
REMARK  Name = 131752951
REMARK  14 active torsions:
REMARK  status: ('A' for Active; 'I' for Inactive)
REMARK    1  A    between atoms: O_1  and  C_26
REMARK    2  A    between atoms: O_1  and  C_28
REMARK    3  A    between atoms: O_4  and  C_29
REMARK    4  A    between atoms: O_4  and  C_44
REMARK    5  A    between atoms: O_5  and  C_32
REMARK    6  A    between atoms: O_5  and  C_43
REMARK    7  A    between atoms: O_13  and  C_42
REMARK    8  A    between atoms: O_13  and  C_50
REMARK    9  A    between atoms: C_34  and  C_36
REMARK   10  A    between atoms: C_35  and  C_37
REMARK   11  A    between atoms: C_41  and  C_45
REMARK   12  A    between atoms: C_44  and  C_51
REMARK   13  A    between atoms: C_46  and  C_53
REMARK   14  A    between atoms: C_56  and  C_61
REMARK                            x       y       z     vdW  Elec       q    Type
REMARK                         _______ _______ _______ _____ _____    ______ ____
ROOT
ATOM      1  O   UNL     1     109.985 127.775 137.544  0.00  0.00    +0.000 OA
ATOM      2  O   UNL     1     110.566 130.063 136.800  0.00  0.00    +0.000 OA
ATOM      3  O   UNL     1     109.340 129.242 136.061  0.00  0.00    +0.000 OA
ATOM      4  C   UNL     1     110.792 128.949 137.665  0.00  0.00    +0.000 C 
ATOM      5  C   UNL     1     110.373 129.301 137.048  0.00  0.00    +0.000 C 
ATOM      6  C   UNL     1     109.760 128.891 136.679  0.00  0.00    +0.000 C 
ATOM      7  C   UNL     1     110.599 128.187 137.913  0.00  0.00    +0.000 C 
ATOM      8  C   UNL     1     109.566 128.128 136.927  0.00  0.00    +0.000 C 
ENDROOT
BRANCH   8  10
ATOM      9  O   UNL     1     109.093 126.970 136.237  0.00  0.00    +0.000 OA
ATOM     10  C   UNL     1     108.953 127.717 136.557  0.00  0.00    +0.000 C 
ENDBRANCH   8  10
BRANCH   4  11
ATOM     11  O   UNL     1     111.405 129.359 138.034  0.00  0.00    +0.000 OA
BRANCH  11  15
ATOM     12  O   UNL     1     112.295 129.028 136.966  0.00  0.00    +0.000 OA
ATOM     13  O   UNL     1     113.937 130.668 137.825  0.00  0.00    +0.000 OA
ATOM     14  O   UNL     1     114.279 129.790 136.470  0.00  0.00    +0.000 OA
ATOM     15  C   UNL     1     112.123 129.467 137.643  0.00  0.00    +0.000 C 
ATOM     16  C   UNL     1     112.672 130.014 137.930  0.00  0.00    +0.000 C 
ATOM     17  C   UNL     1     113.390 130.122 137.539  0.00  0.00    +0.000 C 
ATOM     18  C   UNL     1     113.560 129.682 136.861  0.00  0.00    +0.000 C 
ATOM     19  C   UNL     1     113.013 129.136 136.575  0.00  0.00    +0.000 C 
BRANCH  19  21
ATOM     20  O   UNL     1     113.339 127.889 135.959  0.00  0.00    +0.000 OA
ATOM     21  C   UNL     1     113.183 128.697 135.898  0.00  0.00    +0.000 C 
ENDBRANCH  19  21
BRANCH  16  22
ATOM     22  O   UNL     1     112.500 130.452 138.607  0.00  0.00    +0.000 OA
BRANCH  22  24
ATOM     23  O   UNL     1     113.711 130.650 139.341  0.00  0.00    +0.000 OA
ATOM     24  C   UNL     1     112.947 130.343 139.293  0.00  0.00    +0.000 C 
BRANCH  24  25
ATOM     25  C   UNL     1     112.628 129.927 139.930  0.00  0.00    +0.000 C 
ATOM     26  C   UNL     1     112.854 130.116 140.701  0.00  0.00    +0.000 C 
BRANCH  26  29
ATOM     27  O   UNL     1     110.942 129.911 142.814  0.00  0.00    +0.000 OA
ATOM     28  O   UNL     1     111.577 128.452 143.248  0.00  0.00    +0.000 OA
ATOM     29  C   UNL     1     112.536 129.700 141.337  0.00  0.00    +0.000 A 
ATOM     30  C   UNL     1     111.898 130.014 141.758  0.00  0.00    +0.000 A 
ATOM     31  C   UNL     1     112.853 128.970 141.555  0.00  0.00    +0.000 A 
ATOM     32  C   UNL     1     111.579 129.597 142.394  0.00  0.00    +0.000 A 
ATOM     33  C   UNL     1     112.534 128.554 142.192  0.00  0.00    +0.000 A 
ATOM     34  C   UNL     1     111.897 128.868 142.611  0.00  0.00    +0.000 A 
ENDBRANCH  26  29
ENDBRANCH  24  25
ENDBRANCH  22  24
ENDBRANCH  16  22
ENDBRANCH  11  15
ENDBRANCH   4  11
BRANCH   7  35
ATOM     35  O   UNL     1     111.018 127.834 138.530  0.00  0.00    +0.000 OA
BRANCH  35  39
ATOM     36  O   UNL     1     110.412 126.276 139.933  0.00  0.00    +0.000 OA
ATOM     37  O   UNL     1     109.803 128.601 139.342  0.00  0.00    +0.000 OA
ATOM     38  O   UNL     1     108.775 128.620 140.354  0.00  0.00    +0.000 OA
ATOM     39  C   UNL     1     110.613 127.443 139.133  0.00  0.00    +0.000 A 
ATOM     40  C   UNL     1     110.816 126.667 139.330  0.00  0.00    +0.000 A 
ATOM     41  C   UNL     1     110.006 127.826 139.539  0.00  0.00    +0.000 A 
ATOM     42  C   UNL     1     109.602 127.435 140.142  0.00  0.00    +0.000 A 
ATOM     43  C   UNL     1     109.804 126.660 140.340  0.00  0.00    +0.000 A 
ATOM     44  C   UNL     1     108.758 126.635 141.392  0.00  0.00    +0.000 A 
ATOM     45  C   UNL     1     109.391 126.241 140.966  0.00  0.00    +0.000 A 
ATOM     46  C   UNL     1     108.971 127.845 140.558  0.00  0.00    +0.000 A 
ATOM     47  C   UNL     1     108.546 127.443 141.187  0.00  0.00    +0.000 A 
BRANCH  40  50
ATOM     48  O   UNL     1     111.670 124.799 137.343  0.00  0.00    +0.000 OA
ATOM     49  O   UNL     1     113.245 125.133 137.706  0.00  0.00    +0.000 OA
ATOM     50  C   UNL     1     111.423 126.284 138.924  0.00  0.00    +0.000 A 
ATOM     51  C   UNL     1     111.243 125.733 138.336  0.00  0.00    +0.000 A 
ATOM     52  C   UNL     1     112.210 126.450 139.106  0.00  0.00    +0.000 A 
ATOM     53  C   UNL     1     111.850 125.350 137.931  0.00  0.00    +0.000 A 
ATOM     54  C   UNL     1     112.818 126.067 138.700  0.00  0.00    +0.000 A 
ATOM     55  C   UNL     1     112.637 125.516 138.113  0.00  0.00    +0.000 A 
ENDBRANCH  40  50
BRANCH  44  56
ATOM     56  O   UNL     1     108.355 126.241 141.995  0.00  0.00    +0.000 OA
BRANCH  56  65
ATOM     57  O   UNL     1     107.400 125.568 141.170  0.00  0.00    +0.000 OA
ATOM     58  O   UNL     1     105.655 125.944 142.885  0.00  0.00    +0.000 OA
ATOM     59  O   UNL     1     105.283 125.146 141.490  0.00  0.00    +0.000 OA
ATOM     60  O   UNL     1     107.191 126.492 143.137  0.00  0.00    +0.000 OA
ATOM     61  C   UNL     1     106.237 125.819 142.314  0.00  0.00    +0.000 C 
ATOM     62  C   UNL     1     106.051 125.419 141.616  0.00  0.00    +0.000 C 
ATOM     63  C   UNL     1     107.005 126.092 142.440  0.00  0.00    +0.000 C 
ATOM     64  C   UNL     1     106.632 125.294 141.044  0.00  0.00    +0.000 C 
ATOM     65  C   UNL     1     107.587 125.967 141.868  0.00  0.00    +0.000 C 
BRANCH  64  67
ATOM     66  O   UNL     1     106.508 125.283 139.620  0.00  0.00    +0.000 OA
ATOM     67  C   UNL     1     106.446 124.895 140.347  0.00  0.00    +0.000 C 
ENDBRANCH  64  67
ENDBRANCH  56  65
ENDBRANCH  44  56
ENDBRANCH  35  39
ENDBRANCH   7  35
TORSDOF 14
ENDMDL
MODEL 4
REMARK VINA RESULT:     -10.1      2.401      4.937
REMARK  Name = 131752951
REMARK  14 active torsions:
REMARK  status: ('A' for Active; 'I' for Inactive)
REMARK    1  A    between atoms: O_1  and  C_26
REMARK    2  A    between atoms: O_1  and  C_28
REMARK    3  A    between atoms: O_4  and  C_29
REMARK    4  A    between atoms: O_4  and  C_44
REMARK    5  A    between atoms: O_5  and  C_32
REMARK    6  A    between atoms: O_5  and  C_43
REMARK    7  A    between atoms: O_13  and  C_42
REMARK    8  A    between atoms: O_13  and  C_50
REMARK    9  A    between atoms: C_34  and  C_36
REMARK   10  A    between atoms: C_35  and  C_37
REMARK   11  A    between atoms: C_41  and  C_45
REMARK   12  A    between atoms: C_44  and  C_51
REMARK   13  A    between atoms: C_46  and  C_53
REMARK   14  A    between atoms: C_56  and  C_61
REMARK                            x       y       z     vdW  Elec       q    Type
REMARK                         _______ _______ _______ _____ _____    ______ ____
ROOT
ATOM      1  O   UNL     1     111.531 129.502 139.799  0.00  0.00    +0.000 OA
ATOM      2  O   UNL     1     113.943 129.684 139.276  0.00  0.00    +0.000 OA
ATOM      3  O   UNL     1     113.327 130.446 140.604  0.00  0.00    +0.000 OA
ATOM      4  C   UNL     1     112.643 129.182 138.960  0.00  0.00    +0.000 C 
ATOM      5  C   UNL     1     113.139 129.624 139.450  0.00  0.00    +0.000 C 
ATOM      6  C   UNL     1     112.832 130.004 140.114  0.00  0.00    +0.000 C 
ATOM      7  C   UNL     1     111.839 129.121 139.135  0.00  0.00    +0.000 C 
ATOM      8  C   UNL     1     112.028 129.944 140.288  0.00  0.00    +0.000 C 
ENDROOT
BRANCH   8  10
ATOM      9  O   UNL     1     111.196 130.956 140.860  0.00  0.00    +0.000 OA
ATOM     10  C   UNL     1     111.719 130.325 140.953  0.00  0.00    +0.000 C 
ENDBRANCH   8  10
BRANCH   4  11
ATOM     11  O   UNL     1     112.951 128.801 138.297  0.00  0.00    +0.000 OA
BRANCH  11  15
ATOM     12  O   UNL     1     113.000 130.048 137.600  0.00  0.00    +0.000 OA
ATOM     13  O   UNL     1     114.120 128.939 135.693  0.00  0.00    +0.000 OA
ATOM     14  O   UNL     1     113.795 130.556 135.632  0.00  0.00    +0.000 OA
ATOM     15  C   UNL     1     113.162 129.240 137.631  0.00  0.00    +0.000 C 
ATOM     16  C   UNL     1     113.536 128.870 136.994  0.00  0.00    +0.000 C 
ATOM     17  C   UNL     1     113.747 129.309 136.328  0.00  0.00    +0.000 C 
ATOM     18  C   UNL     1     113.584 130.117 136.298  0.00  0.00    +0.000 C 
ATOM     19  C   UNL     1     113.211 130.487 136.934  0.00  0.00    +0.000 C 
BRANCH  19  21
ATOM     20  O   UNL     1     112.266 131.558 136.889  0.00  0.00    +0.000 OA
ATOM     21  C   UNL     1     113.048 131.295 136.904  0.00  0.00    +0.000 C 
ENDBRANCH  19  21
BRANCH  16  22
ATOM     22  O   UNL     1     113.698 128.062 137.025  0.00  0.00    +0.000 OA
BRANCH  22  24
ATOM     23  O   UNL     1     112.877 127.804 135.883  0.00  0.00    +0.000 OA
ATOM     24  C   UNL     1     113.261 127.536 136.562  0.00  0.00    +0.000 C 
BRANCH  24  25
ATOM     25  C   UNL     1     113.208 126.742 136.780  0.00  0.00    +0.000 C 
ATOM     26  C   UNL     1     112.623 126.262 136.450  0.00  0.00    +0.000 C 
BRANCH  26  29
ATOM     27  O   UNL     1     111.322 124.180 137.912  0.00  0.00    +0.000 OA
ATOM     28  O   UNL     1     112.409 123.087 137.324  0.00  0.00    +0.000 OA
ATOM     29  C   UNL     1     112.570 125.469 136.668  0.00  0.00    +0.000 A 
ATOM     30  C   UNL     1     111.972 125.221 137.181  0.00  0.00    +0.000 A 
ATOM     31  C   UNL     1     113.113 124.922 136.374  0.00  0.00    +0.000 A 
ATOM     32  C   UNL     1     111.919 124.427 137.399  0.00  0.00    +0.000 A 
ATOM     33  C   UNL     1     113.059 124.129 136.593  0.00  0.00    +0.000 A 
ATOM     34  C   UNL     1     112.463 123.881 137.105  0.00  0.00    +0.000 A 
ENDBRANCH  26  29
ENDBRANCH  24  25
ENDBRANCH  22  24
ENDBRANCH  16  22
ENDBRANCH  11  15
ENDBRANCH   4  11
BRANCH   7  35
ATOM     35  O   UNL     1     111.343 128.680 138.646  0.00  0.00    +0.000 OA
BRANCH  35  39
ATOM     36  O   UNL     1     109.402 127.772 139.060  0.00  0.00    +0.000 OA
ATOM     37  O   UNL     1     111.757 127.572 139.796  0.00  0.00    +0.000 OA
ATOM     38  O   UNL     1     111.409 126.518 140.718  0.00  0.00    +0.000 OA
ATOM     39  C   UNL     1     110.765 128.193 138.976  0.00  0.00    +0.000 A 
ATOM     40  C   UNL     1     109.980 128.260 138.730  0.00  0.00    +0.000 A 
ATOM     41  C   UNL     1     110.972 127.639 139.550  0.00  0.00    +0.000 A 
ATOM     42  C   UNL     1     110.394 127.151 139.880  0.00  0.00    +0.000 A 
ATOM     43  C   UNL     1     109.609 127.218 139.635  0.00  0.00    +0.000 A 
ATOM     44  C   UNL     1     109.207 126.137 140.570  0.00  0.00    +0.000 A 
ATOM     45  C   UNL     1     108.997 126.716 139.971  0.00  0.00    +0.000 A 
ATOM     46  C   UNL     1     110.622 126.578 140.478  0.00  0.00    +0.000 A 
ATOM     47  C   UNL     1     110.024 126.067 140.826  0.00  0.00    +0.000 A 
BRANCH  40  50
ATOM     48  O   UNL     1     108.954 130.833 138.028  0.00  0.00    +0.000 OA
ATOM     49  O   UNL     1     109.152 130.476 136.429  0.00  0.00    +0.000 OA
ATOM     50  C   UNL     1     109.773 128.814 138.155  0.00  0.00    +0.000 A 
ATOM     51  C   UNL     1     109.467 129.547 138.379  0.00  0.00    +0.000 A 
ATOM     52  C   UNL     1     109.872 128.635 137.356  0.00  0.00    +0.000 A 
ATOM     53  C   UNL     1     109.260 130.100 137.804  0.00  0.00    +0.000 A 
ATOM     54  C   UNL     1     109.665 129.189 136.780  0.00  0.00    +0.000 A 
ATOM     55  C   UNL     1     109.359 129.922 137.005  0.00  0.00    +0.000 A 
ENDBRANCH  40  50
BRANCH  44  56
ATOM     56  O   UNL     1     108.627 125.651 140.898  0.00  0.00    +0.000 OA
BRANCH  56  65
ATOM     57  O   UNL     1     108.119 126.627 141.811  0.00  0.00    +0.000 OA
ATOM     58  O   UNL     1     105.843 125.690 141.545  0.00  0.00    +0.000 OA
ATOM     59  O   UNL     1     106.093 126.978 142.545  0.00  0.00    +0.000 OA
ATOM     60  O   UNL     1     107.110 125.027 140.721  0.00  0.00    +0.000 OA
ATOM     61  C   UNL     1     106.601 126.003 141.633  0.00  0.00    +0.000 C 
ATOM     62  C   UNL     1     106.727 126.647 142.134  0.00  0.00    +0.000 C 
ATOM     63  C   UNL     1     107.235 125.671 141.222  0.00  0.00    +0.000 C 
ATOM     64  C   UNL     1     107.485 126.959 142.223  0.00  0.00    +0.000 C 
ATOM     65  C   UNL     1     107.993 125.983 141.311  0.00  0.00    +0.000 C 
BRANCH  64  67
ATOM     66  O   UNL     1     108.180 127.557 143.320  0.00  0.00    +0.000 OA
ATOM     67  C   UNL     1     107.610 127.603 142.723  0.00  0.00    +0.000 C 
ENDBRANCH  64  67
ENDBRANCH  56  65
ENDBRANCH  44  56
ENDBRANCH  35  39
ENDBRANCH   7  35
TORSDOF 14
ENDMDL
MODEL 5
REMARK VINA RESULT:     -10.1      2.042      5.564
REMARK  Name = 131752951
REMARK  14 active torsions:
REMARK  status: ('A' for Active; 'I' for Inactive)
REMARK    1  A    between atoms: O_1  and  C_26
REMARK    2  A    between atoms: O_1  and  C_28
REMARK    3  A    between atoms: O_4  and  C_29
REMARK    4  A    between atoms: O_4  and  C_44
REMARK    5  A    between atoms: O_5  and  C_32
REMARK    6  A    between atoms: O_5  and  C_43
REMARK    7  A    between atoms: O_13  and  C_42
REMARK    8  A    between atoms: O_13  and  C_50
REMARK    9  A    between atoms: C_34  and  C_36
REMARK   10  A    between atoms: C_35  and  C_37
REMARK   11  A    between atoms: C_41  and  C_45
REMARK   12  A    between atoms: C_44  and  C_51
REMARK   13  A    between atoms: C_46  and  C_53
REMARK   14  A    between atoms: C_56  and  C_61
REMARK                            x       y       z     vdW  Elec       q    Type
REMARK                         _______ _______ _______ _____ _____    ______ ____
ROOT
ATOM      1  O   UNL     1     109.438 130.592 137.249  0.00  0.00    +0.000 OA
ATOM      2  O   UNL     1     108.239 128.901 135.896  0.00  0.00    +0.000 OA
ATOM      3  O   UNL     1     107.878 130.502 135.724  0.00  0.00    +0.000 OA
ATOM      4  C   UNL     1     109.219 129.227 136.883  0.00  0.00    +0.000 C 
ATOM      5  C   UNL     1     108.639 129.465 136.347  0.00  0.00    +0.000 C 
ATOM      6  C   UNL     1     108.458 130.264 136.261  0.00  0.00    +0.000 C 
ATOM      7  C   UNL     1     109.618 129.791 137.334  0.00  0.00    +0.000 C 
ATOM      8  C   UNL     1     108.858 130.828 136.712  0.00  0.00    +0.000 C 
ENDROOT
BRANCH   8  10
ATOM      9  O   UNL     1     109.276 132.169 136.451  0.00  0.00    +0.000 OA
ATOM     10  C   UNL     1     108.678 131.629 136.626  0.00  0.00    +0.000 C 
ENDBRANCH   8  10
BRANCH   4  11
ATOM     11  O   UNL     1     109.399 128.427 136.969  0.00  0.00    +0.000 OA
BRANCH  11  15
ATOM     12  O   UNL     1     110.230 128.466 135.807  0.00  0.00    +0.000 OA
ATOM     13  O   UNL     1     110.279 125.992 135.759  0.00  0.00    +0.000 OA
ATOM     14  O   UNL     1     111.094 126.856 134.613  0.00  0.00    +0.000 OA
ATOM     15  C   UNL     1     109.823 128.034 136.380  0.00  0.00    +0.000 C 
ATOM     16  C   UNL     1     109.839 127.209 136.364  0.00  0.00    +0.000 C 
ATOM     17  C   UNL     1     110.263 126.816 135.775  0.00  0.00    +0.000 C 
ATOM     18  C   UNL     1     110.670 127.249 135.202  0.00  0.00    +0.000 C 
ATOM     19  C   UNL     1     110.653 128.073 135.218  0.00  0.00    +0.000 C 
BRANCH  19  21
ATOM     20  O   UNL     1     111.786 128.853 134.829  0.00  0.00    +0.000 OA
ATOM     21  C   UNL     1     111.060 128.506 134.645  0.00  0.00    +0.000 C 
ENDBRANCH  19  21
BRANCH  16  22
ATOM     22  O   UNL     1     109.432 126.778 136.937  0.00  0.00    +0.000 OA
BRANCH  22  24
ATOM     23  O   UNL     1     110.148 125.569 137.202  0.00  0.00    +0.000 OA
ATOM     24  C   UNL     1     109.848 126.293 137.460  0.00  0.00    +0.000 C 
BRANCH  24  25
ATOM     25  C   UNL     1     109.962 126.532 138.241  0.00  0.00    +0.000 C 
ATOM     26  C   UNL     1     109.755 126.028 138.862  0.00  0.00    +0.000 C 
BRANCH  26  29
ATOM     27  O   UNL     1     108.699 126.582 141.459  0.00  0.00    +0.000 OA
ATOM     28  O   UNL     1     110.210 126.985 141.987  0.00  0.00    +0.000 OA
ATOM     29  C   UNL     1     109.869 126.267 139.643  0.00  0.00    +0.000 A 
ATOM     30  C   UNL     1     109.227 126.305 140.160  0.00  0.00    +0.000 A 
ATOM     31  C   UNL     1     110.624 126.468 139.907  0.00  0.00    +0.000 A 
ATOM     32  C   UNL     1     109.341 126.544 140.941  0.00  0.00    +0.000 A 
ATOM     33  C   UNL     1     110.737 126.708 140.688  0.00  0.00    +0.000 A 
ATOM     34  C   UNL     1     110.097 126.745 141.205  0.00  0.00    +0.000 A 
ENDBRANCH  26  29
ENDBRANCH  24  25
ENDBRANCH  22  24
ENDBRANCH  16  22
ENDBRANCH  11  15
ENDBRANCH   4  11
BRANCH   7  35
ATOM     35  O   UNL     1     110.199 129.554 137.871  0.00  0.00    +0.000 OA
BRANCH  35  39
ATOM     36  O   UNL     1     110.949 130.556 139.658  0.00  0.00    +0.000 OA
ATOM     37  O   UNL     1     108.849 129.550 138.821  0.00  0.00    +0.000 OA
ATOM     38  O   UNL     1     108.169 129.872 140.052  0.00  0.00    +0.000 OA
ATOM     39  C   UNL     1     110.224 129.888 138.625  0.00  0.00    +0.000 A 
ATOM     40  C   UNL     1     110.924 130.223 138.904  0.00  0.00    +0.000 A 
ATOM     41  C   UNL     1     109.550 129.885 139.100  0.00  0.00    +0.000 A 
ATOM     42  C   UNL     1     109.575 130.218 139.854  0.00  0.00    +0.000 A 
ATOM     43  C   UNL     1     110.274 130.554 140.134  0.00  0.00    +0.000 A 
ATOM     44  C   UNL     1     109.615 130.905 141.416  0.00  0.00    +0.000 A 
ATOM     45  C   UNL     1     110.314 130.904 140.917  0.00  0.00    +0.000 A 
ATOM     46  C   UNL     1     108.865 130.210 140.339  0.00  0.00    +0.000 A 
ATOM     47  C   UNL     1     108.885 130.555 141.126  0.00  0.00    +0.000 A 
BRANCH  40  50
ATOM     48  O   UNL     1     112.660 131.570 137.076  0.00  0.00    +0.000 OA
ATOM     49  O   UNL     1     113.623 130.232 137.006  0.00  0.00    +0.000 OA
ATOM     50  C   UNL     1     111.598 130.225 138.430  0.00  0.00    +0.000 A 
ATOM     51  C   UNL     1     111.792 130.896 137.990  0.00  0.00    +0.000 A 
ATOM     52  C   UNL     1     112.080 129.557 138.395  0.00  0.00    +0.000 A 
ATOM     53  C   UNL     1     112.466 130.899 137.516  0.00  0.00    +0.000 A 
ATOM     54  C   UNL     1     112.756 129.559 137.920  0.00  0.00    +0.000 A 
ATOM     55  C   UNL     1     112.948 130.230 137.481  0.00  0.00    +0.000 A 
ENDBRANCH  40  50
BRANCH  44  56
ATOM     56  O   UNL     1     109.643 131.239 142.170  0.00  0.00    +0.000 OA
BRANCH  56  65
ATOM     57  O   UNL     1     110.445 130.294 142.883  0.00  0.00    +0.000 OA
ATOM     58  O   UNL     1     108.773 130.251 144.707  0.00  0.00    +0.000 OA
ATOM     59  O   UNL     1     110.132 129.321 144.811  0.00  0.00    +0.000 OA
ATOM     60  O   UNL     1     108.529 131.209 143.386  0.00  0.00    +0.000 OA
ATOM     61  C   UNL     1     109.330 130.265 144.099  0.00  0.00    +0.000 C 
ATOM     62  C   UNL     1     110.010 129.801 144.151  0.00  0.00    +0.000 C 
ATOM     63  C   UNL     1     109.208 130.744 143.439  0.00  0.00    +0.000 C 
ATOM     64  C   UNL     1     110.568 129.815 143.543  0.00  0.00    +0.000 C 
ATOM     65  C   UNL     1     109.766 130.759 142.830  0.00  0.00    +0.000 C 
BRANCH  64  67
ATOM     66  O   UNL     1     111.983 129.673 143.405  0.00  0.00    +0.000 OA
ATOM     67  C   UNL     1     111.247 129.351 143.595  0.00  0.00    +0.000 C 
ENDBRANCH  64  67
ENDBRANCH  56  65
ENDBRANCH  44  56
ENDBRANCH  35  39
ENDBRANCH   7  35
TORSDOF 14
ENDMDL
MODEL 6
REMARK VINA RESULT:     -10.0      1.805      5.719
REMARK  Name = 131752951
REMARK  14 active torsions:
REMARK  status: ('A' for Active; 'I' for Inactive)
REMARK    1  A    between atoms: O_1  and  C_26
REMARK    2  A    between atoms: O_1  and  C_28
REMARK    3  A    between atoms: O_4  and  C_29
REMARK    4  A    between atoms: O_4  and  C_44
REMARK    5  A    between atoms: O_5  and  C_32
REMARK    6  A    between atoms: O_5  and  C_43
REMARK    7  A    between atoms: O_13  and  C_42
REMARK    8  A    between atoms: O_13  and  C_50
REMARK    9  A    between atoms: C_34  and  C_36
REMARK   10  A    between atoms: C_35  and  C_37
REMARK   11  A    between atoms: C_41  and  C_45
REMARK   12  A    between atoms: C_44  and  C_51
REMARK   13  A    between atoms: C_46  and  C_53
REMARK   14  A    between atoms: C_56  and  C_61
REMARK                            x       y       z     vdW  Elec       q    Type
REMARK                         _______ _______ _______ _____ _____    ______ ____
ROOT
ATOM      1  O   UNL     1     112.939 129.469 137.105  0.00  0.00    +0.000 OA
ATOM      2  O   UNL     1     113.596 127.343 136.022  0.00  0.00    +0.000 OA
ATOM      3  O   UNL     1     114.430 128.729 135.694  0.00  0.00    +0.000 OA
ATOM      4  C   UNL     1     112.741 128.067 136.908  0.00  0.00    +0.000 C 
ATOM      5  C   UNL     1     113.377 128.052 136.383  0.00  0.00    +0.000 C 
ATOM      6  C   UNL     1     113.794 128.744 136.219  0.00  0.00    +0.000 C 
ATOM      7  C   UNL     1     112.522 128.776 137.269  0.00  0.00    +0.000 C 
ATOM      8  C   UNL     1     113.575 129.452 136.580  0.00  0.00    +0.000 C 
ENDROOT
BRANCH   8  10
ATOM      9  O   UNL     1     113.591 130.813 136.144  0.00  0.00    +0.000 OA
ATOM     10  C   UNL     1     113.992 130.146 136.416  0.00  0.00    +0.000 C 
ENDBRANCH   8  10
BRANCH   4  11
ATOM     11  O   UNL     1     112.324 127.375 137.072  0.00  0.00    +0.000 OA
BRANCH  11  15
ATOM     12  O   UNL     1     111.605 127.484 135.842  0.00  0.00    +0.000 OA
ATOM     13  O   UNL     1     110.860 125.135 136.068  0.00  0.00    +0.000 OA
ATOM     14  O   UNL     1     110.390 126.028 134.763  0.00  0.00    +0.000 OA
ATOM     15  C   UNL     1     111.841 127.038 136.495  0.00  0.00    +0.000 C 
ATOM     16  C   UNL     1     111.592 126.254 136.570  0.00  0.00    +0.000 C 
ATOM     17  C   UNL     1     111.108 125.918 135.993  0.00  0.00    +0.000 C 
ATOM     18  C   UNL     1     110.873 126.365 135.340  0.00  0.00    +0.000 C 
ATOM     19  C   UNL     1     111.121 127.147 135.265  0.00  0.00    +0.000 C 
BRANCH  19  21
ATOM     20  O   UNL     1     110.383 128.240 134.715  0.00  0.00    +0.000 OA
ATOM     21  C   UNL     1     110.886 127.594 134.612  0.00  0.00    +0.000 C 
ENDBRANCH  19  21
BRANCH  16  22
ATOM     22  O   UNL     1     111.828 125.809 137.223  0.00  0.00    +0.000 OA
BRANCH  22  24
ATOM     23  O   UNL     1     111.023 124.686 137.594  0.00  0.00    +0.000 OA
ATOM     24  C   UNL     1     111.260 125.467 137.716  0.00  0.00    +0.000 C 
BRANCH  24  25
ATOM     25  C   UNL     1     110.929 125.908 138.329  0.00  0.00    +0.000 C 
ATOM     26  C   UNL     1     110.746 125.543 139.047  0.00  0.00    +0.000 C 
BRANCH  26  29
ATOM     27  O   UNL     1     108.463 126.735 140.285  0.00  0.00    +0.000 OA
ATOM     28  O   UNL     1     109.420 127.306 141.501  0.00  0.00    +0.000 OA
ATOM     29  C   UNL     1     110.415 125.984 139.661  0.00  0.00    +0.000 A 
ATOM     30  C   UNL     1     109.604 126.139 139.666  0.00  0.00    +0.000 A 
ATOM     31  C   UNL     1     110.894 126.269 140.269  0.00  0.00    +0.000 A 
ATOM     32  C   UNL     1     109.274 126.579 140.280  0.00  0.00    +0.000 A 
ATOM     33  C   UNL     1     110.562 126.710 140.882  0.00  0.00    +0.000 A 
ATOM     34  C   UNL     1     109.752 126.865 140.888  0.00  0.00    +0.000 A 
ENDBRANCH  26  29
ENDBRANCH  24  25
ENDBRANCH  22  24
ENDBRANCH  16  22
ENDBRANCH  11  15
ENDBRANCH   4  11
BRANCH   7  35
ATOM     35  O   UNL     1     111.886 128.792 137.794  0.00  0.00    +0.000 OA
BRANCH  35  39
ATOM     36  O   UNL     1     111.419 130.211 139.386  0.00  0.00    +0.000 OA
ATOM     37  O   UNL     1     113.149 128.532 138.823  0.00  0.00    +0.000 OA
ATOM     38  O   UNL     1     113.862 128.815 140.045  0.00  0.00    +0.000 OA
ATOM     39  C   UNL     1     111.941 129.222 138.496  0.00  0.00    +0.000 A 
ATOM     40  C   UNL     1     111.364 129.781 138.684  0.00  0.00    +0.000 A 
ATOM     41  C   UNL     1     112.572 129.092 139.010  0.00  0.00    +0.000 A 
ATOM     42  C   UNL     1     112.627 129.521 139.713  0.00  0.00    +0.000 A 
ATOM     43  C   UNL     1     112.052 130.081 139.901  0.00  0.00    +0.000 A 
ATOM     44  C   UNL     1     112.753 130.404 141.169  0.00  0.00    +0.000 A 
ATOM     45  C   UNL     1     112.097 130.535 140.629  0.00  0.00    +0.000 A 
ATOM     46  C   UNL     1     113.290 129.376 140.240  0.00  0.00    +0.000 A 
ATOM     47  C   UNL     1     113.354 129.821 140.974  0.00  0.00    +0.000 A 
BRANCH  40  50
ATOM     48  O   UNL     1     110.142 131.312 136.602  0.00  0.00    +0.000 OA
ATOM     49  O   UNL     1     108.837 130.302 136.626  0.00  0.00    +0.000 OA
ATOM     50  C   UNL     1     110.733 129.912 138.169  0.00  0.00    +0.000 A 
ATOM     51  C   UNL     1     110.753 130.547 137.643  0.00  0.00    +0.000 A 
ATOM     52  C   UNL     1     110.081 129.407 138.181  0.00  0.00    +0.000 A 
ATOM     53  C   UNL     1     110.122 130.677 137.129  0.00  0.00    +0.000 A 
ATOM     54  C   UNL     1     109.448 129.537 137.667  0.00  0.00    +0.000 A 
ATOM     55  C   UNL     1     109.470 130.172 137.141  0.00  0.00    +0.000 A 
ENDBRANCH  40  50
BRANCH  44  56
ATOM     56  O   UNL     1     112.805 130.834 141.870  0.00  0.00    +0.000 OA
BRANCH  56  65
ATOM     57  O   UNL     1     112.040 129.985 142.728  0.00  0.00    +0.000 OA
ATOM     58  O   UNL     1     110.903 131.969 143.676  0.00  0.00    +0.000 OA
ATOM     59  O   UNL     1     110.516 130.460 144.218  0.00  0.00    +0.000 OA
ATOM     60  O   UNL     1     112.047 132.156 142.502  0.00  0.00    +0.000 OA
ATOM     61  C   UNL     1     111.282 131.308 143.360  0.00  0.00    +0.000 C 
ATOM     62  C   UNL     1     111.088 130.553 143.631  0.00  0.00    +0.000 C 
ATOM     63  C   UNL     1     111.854 131.402 142.773  0.00  0.00    +0.000 C 
ATOM     64  C   UNL     1     111.467 129.892 143.315  0.00  0.00    +0.000 C 
ATOM     65  C   UNL     1     112.233 130.740 142.457  0.00  0.00    +0.000 C 
BRANCH  64  67
ATOM     66  O   UNL     1     111.852 128.548 143.613  0.00  0.00    +0.000 OA
ATOM     67  C   UNL     1     111.274 129.137 143.586  0.00  0.00    +0.000 C 
ENDBRANCH  64  67
ENDBRANCH  56  65
ENDBRANCH  44  56
ENDBRANCH  35  39
ENDBRANCH   7  35
TORSDOF 14
ENDMDL
MODEL 7
REMARK VINA RESULT:     -10.0      2.721      6.453
REMARK  Name = 131752951
REMARK  14 active torsions:
REMARK  status: ('A' for Active; 'I' for Inactive)
REMARK    1  A    between atoms: O_1  and  C_26
REMARK    2  A    between atoms: O_1  and  C_28
REMARK    3  A    between atoms: O_4  and  C_29
REMARK    4  A    between atoms: O_4  and  C_44
REMARK    5  A    between atoms: O_5  and  C_32
REMARK    6  A    between atoms: O_5  and  C_43
REMARK    7  A    between atoms: O_13  and  C_42
REMARK    8  A    between atoms: O_13  and  C_50
REMARK    9  A    between atoms: C_34  and  C_36
REMARK   10  A    between atoms: C_35  and  C_37
REMARK   11  A    between atoms: C_41  and  C_45
REMARK   12  A    between atoms: C_44  and  C_51
REMARK   13  A    between atoms: C_46  and  C_53
REMARK   14  A    between atoms: C_56  and  C_61
REMARK                            x       y       z     vdW  Elec       q    Type
REMARK                         _______ _______ _______ _____ _____    ______ ____
ROOT
ATOM      1  O   UNL     1     112.141 129.574 139.308  0.00  0.00    +0.000 OA
ATOM      2  O   UNL     1     110.914 128.745 137.325  0.00  0.00    +0.000 OA
ATOM      3  O   UNL     1     111.631 130.230 137.290  0.00  0.00    +0.000 OA
ATOM      4  C   UNL     1     111.373 128.554 138.665  0.00  0.00    +0.000 C 
ATOM      5  C   UNL     1     111.323 129.021 137.986  0.00  0.00    +0.000 C 
ATOM      6  C   UNL     1     111.681 129.763 137.968  0.00  0.00    +0.000 C 
ATOM      7  C   UNL     1     111.782 128.830 139.326  0.00  0.00    +0.000 C 
ATOM      8  C   UNL     1     112.090 130.040 138.629  0.00  0.00    +0.000 C 
ENDROOT
BRANCH   8  10
ATOM      9  O   UNL     1     113.257 130.853 138.761  0.00  0.00    +0.000 OA
ATOM     10  C   UNL     1     112.449 130.783 138.612  0.00  0.00    +0.000 C 
ENDBRANCH   8  10
BRANCH   4  11
ATOM     11  O   UNL     1     111.014 127.812 138.683  0.00  0.00    +0.000 OA
BRANCH  11  15
ATOM     12  O   UNL     1     112.102 127.255 137.941  0.00  0.00    +0.000 OA
ATOM     13  O   UNL     1     110.825 125.157 137.642  0.00  0.00    +0.000 OA
ATOM     14  O   UNL     1     112.338 125.300 137.001  0.00  0.00    +0.000 OA
ATOM     15  C   UNL     1     111.345 127.184 138.262  0.00  0.00    +0.000 C 
ATOM     16  C   UNL     1     110.919 126.484 138.162  0.00  0.00    +0.000 C 
ATOM     17  C   UNL     1     111.250 125.856 137.742  0.00  0.00    +0.000 C 
ATOM     18  C   UNL     1     112.007 125.928 137.421  0.00  0.00    +0.000 C 
ATOM     19  C   UNL     1     112.433 126.627 137.521  0.00  0.00    +0.000 C 
BRANCH  19  21
ATOM     20  O   UNL     1     113.851 126.645 137.690  0.00  0.00    +0.000 OA
ATOM     21  C   UNL     1     113.190 126.700 137.200  0.00  0.00    +0.000 C 
ENDBRANCH  19  21
BRANCH  16  22
ATOM     22  O   UNL     1     110.163 126.413 138.483  0.00  0.00    +0.000 OA
BRANCH  22  24
ATOM     23  O   UNL     1     110.598 125.413 139.408  0.00  0.00    +0.000 OA
ATOM     24  C   UNL     1     110.049 125.986 139.181  0.00  0.00    +0.000 C 
BRANCH  24  25
ATOM     25  C   UNL     1     109.388 126.133 139.651  0.00  0.00    +0.000 C 
ATOM     26  C   UNL     1     109.358 125.844 140.424  0.00  0.00    +0.000 C 
BRANCH  26  29
ATOM     27  O   UNL     1     108.091 127.314 142.522  0.00  0.00    +0.000 OA
ATOM     28  O   UNL     1     106.712 126.435 142.305  0.00  0.00    +0.000 OA
ATOM     29  C   UNL     1     108.697 125.991 140.894  0.00  0.00    +0.000 A 
ATOM     30  C   UNL     1     108.725 126.579 141.473  0.00  0.00    +0.000 A 
ATOM     31  C   UNL     1     108.007 125.552 140.785  0.00  0.00    +0.000 A 
ATOM     32  C   UNL     1     108.063 126.726 141.943  0.00  0.00    +0.000 A 
ATOM     33  C   UNL     1     107.346 125.700 141.256  0.00  0.00    +0.000 A 
ATOM     34  C   UNL     1     107.373 126.287 141.834  0.00  0.00    +0.000 A 
ENDBRANCH  26  29
ENDBRANCH  24  25
ENDBRANCH  22  24
ENDBRANCH  16  22
ENDBRANCH  11  15
ENDBRANCH   4  11
BRANCH   7  35
ATOM     35  O   UNL     1     111.832 128.365 140.005  0.00  0.00    +0.000 OA
BRANCH  35  39
ATOM     36  O   UNL     1     112.201 128.935 142.079  0.00  0.00    +0.000 OA
ATOM     37  O   UNL     1     110.493 129.276 140.320  0.00  0.00    +0.000 OA
ATOM     38  O   UNL     1     109.696 130.085 141.210  0.00  0.00    +0.000 OA
ATOM     39  C   UNL     1     111.732 128.707 140.749  0.00  0.00    +0.000 A 
ATOM     40  C   UNL     1     112.301 128.593 141.335  0.00  0.00    +0.000 A 
ATOM     41  C   UNL     1     111.063 129.162 140.906  0.00  0.00    +0.000 A 
ATOM     42  C   UNL     1     110.962 129.504 141.650  0.00  0.00    +0.000 A 
ATOM     43  C   UNL     1     111.531 129.390 142.237  0.00  0.00    +0.000 A 
ATOM     44  C   UNL     1     110.743 130.216 143.186  0.00  0.00    +0.000 A 
ATOM     45  C   UNL     1     111.438 129.741 143.016  0.00  0.00    +0.000 A 
ATOM     46  C   UNL     1     110.260 129.976 141.802  0.00  0.00    +0.000 A 
ATOM     47  C   UNL     1     110.149 130.335 142.575  0.00  0.00    +0.000 A 
BRANCH  40  50
ATOM     48  O   UNL     1     115.066 128.416 140.633  0.00  0.00    +0.000 OA
ATOM     49  O   UNL     1     114.979 126.770 140.705  0.00  0.00    +0.000 OA
ATOM     50  C   UNL     1     112.970 128.138 141.178  0.00  0.00    +0.000 A 
ATOM     51  C   UNL     1     113.684 128.504 140.984  0.00  0.00    +0.000 A 
ATOM     52  C   UNL     1     112.927 127.314 141.214  0.00  0.00    +0.000 A 
ATOM     53  C   UNL     1     114.353 128.049 140.827  0.00  0.00    +0.000 A 
ATOM     54  C   UNL     1     113.597 126.858 141.056  0.00  0.00    +0.000 A 
ATOM     55  C   UNL     1     114.309 127.226 140.863  0.00  0.00    +0.000 A 
ENDBRANCH  40  50
BRANCH  44  56
ATOM     56  O   UNL     1     110.645 130.557 143.930  0.00  0.00    +0.000 OA
BRANCH  56  65
ATOM     57  O   UNL     1     111.418 131.737 143.697  0.00  0.00    +0.000 OA
ATOM     58  O   UNL     1     112.304 131.612 146.005  0.00  0.00    +0.000 OA
ATOM     59  O   UNL     1     112.781 132.833 145.002  0.00  0.00    +0.000 OA
ATOM     60  O   UNL     1     111.236 130.475 145.468  0.00  0.00    +0.000 OA
ATOM     61  C   UNL     1     112.009 131.654 145.235  0.00  0.00    +0.000 C 
ATOM     62  C   UNL     1     112.247 132.264 144.734  0.00  0.00    +0.000 C 
ATOM     63  C   UNL     1     111.475 131.085 144.967  0.00  0.00    +0.000 C 
ATOM     64  C   UNL     1     111.952 132.306 143.965  0.00  0.00    +0.000 C 
ATOM     65  C   UNL     1     111.179 131.127 144.198  0.00  0.00    +0.000 C 
BRANCH  64  67
ATOM     66  O   UNL     1     111.632 133.314 143.004  0.00  0.00    +0.000 OA
ATOM     67  C   UNL     1     112.190 132.916 143.464  0.00  0.00    +0.000 C 
ENDBRANCH  64  67
ENDBRANCH  56  65
ENDBRANCH  44  56
ENDBRANCH  35  39
ENDBRANCH   7  35
TORSDOF 14
ENDMDL
MODEL 8
REMARK VINA RESULT:     -10.0      2.655      5.876
REMARK  Name = 131752951
REMARK  14 active torsions:
REMARK  status: ('A' for Active; 'I' for Inactive)
REMARK    1  A    between atoms: O_1  and  C_26
REMARK    2  A    between atoms: O_1  and  C_28
REMARK    3  A    between atoms: O_4  and  C_29
REMARK    4  A    between atoms: O_4  and  C_44
REMARK    5  A    between atoms: O_5  and  C_32
REMARK    6  A    between atoms: O_5  and  C_43
REMARK    7  A    between atoms: O_13  and  C_42
REMARK    8  A    between atoms: O_13  and  C_50
REMARK    9  A    between atoms: C_34  and  C_36
REMARK   10  A    between atoms: C_35  and  C_37
REMARK   11  A    between atoms: C_41  and  C_45
REMARK   12  A    between atoms: C_44  and  C_51
REMARK   13  A    between atoms: C_46  and  C_53
REMARK   14  A    between atoms: C_56  and  C_61
REMARK                            x       y       z     vdW  Elec       q    Type
REMARK                         _______ _______ _______ _____ _____    ______ ____
ROOT
ATOM      1  O   UNL     1     111.789 125.969 138.055  0.00  0.00    +0.000 OA
ATOM      2  O   UNL     1     113.895 127.195 138.488  0.00  0.00    +0.000 OA
ATOM      3  O   UNL     1     113.939 125.595 138.087  0.00  0.00    +0.000 OA
ATOM      4  C   UNL     1     112.469 127.179 138.400  0.00  0.00    +0.000 C 
ATOM      5  C   UNL     1     113.193 126.787 138.344  0.00  0.00    +0.000 C 
ATOM      6  C   UNL     1     113.215 125.987 138.143  0.00  0.00    +0.000 C 
ATOM      7  C   UNL     1     111.767 126.770 138.256  0.00  0.00    +0.000 C 
ATOM      8  C   UNL     1     112.513 125.579 137.999  0.00  0.00    +0.000 C 
ENDROOT
BRANCH   8  10
ATOM      9  O   UNL     1     112.193 124.521 137.093  0.00  0.00    +0.000 OA
ATOM     10  C   UNL     1     112.535 124.778 137.798  0.00  0.00    +0.000 C 
ENDBRANCH   8  10
BRANCH   4  11
ATOM     11  O   UNL     1     112.447 127.978 138.601  0.00  0.00    +0.000 OA
BRANCH  11  15
ATOM     12  O   UNL     1     112.791 128.340 137.262  0.00  0.00    +0.000 OA
ATOM     13  O   UNL     1     113.189 130.670 137.994  0.00  0.00    +0.000 OA
ATOM     14  O   UNL     1     113.400 130.255 136.411  0.00  0.00    +0.000 OA
ATOM     15  C   UNL     1     112.685 128.547 138.053  0.00  0.00    +0.000 C 
ATOM     16  C   UNL     1     112.818 129.325 138.297  0.00  0.00    +0.000 C 
ATOM     17  C   UNL     1     113.056 129.894 137.750  0.00  0.00    +0.000 C 
ATOM     18  C   UNL     1     113.161 129.686 136.958  0.00  0.00    +0.000 C 
ATOM     19  C   UNL     1     113.029 128.909 136.714  0.00  0.00    +0.000 C 
BRANCH  19  21
ATOM     20  O   UNL     1     112.480 128.523 135.453  0.00  0.00    +0.000 OA
ATOM     21  C   UNL     1     113.134 128.701 135.923  0.00  0.00    +0.000 C 
ENDBRANCH  19  21
BRANCH  16  22
ATOM     22  O   UNL     1     112.712 129.532 139.089  0.00  0.00    +0.000 OA
BRANCH  22  24
ATOM     23  O   UNL     1     112.463 130.916 139.343  0.00  0.00    +0.000 OA
ATOM     24  C   UNL     1     112.191 130.139 139.290  0.00  0.00    +0.000 C 
BRANCH  24  25
ATOM     25  C   UNL     1     111.397 129.969 139.437  0.00  0.00    +0.000 C 
ATOM     26  C   UNL     1     111.008 130.332 140.068  0.00  0.00    +0.000 C 
BRANCH  26  29
ATOM     27  O   UNL     1     108.256 130.530 139.325  0.00  0.00    +0.000 OA
ATOM     28  O   UNL     1     107.833 129.652 140.657  0.00  0.00    +0.000 OA
ATOM     29  C   UNL     1     110.215 130.162 140.216  0.00  0.00    +0.000 A 
ATOM     30  C   UNL     1     109.632 130.431 139.697  0.00  0.00    +0.000 A 
ATOM     31  C   UNL     1     110.004 129.723 140.882  0.00  0.00    +0.000 A 
ATOM     32  C   UNL     1     108.838 130.261 139.845  0.00  0.00    +0.000 A 
ATOM     33  C   UNL     1     109.209 129.553 141.028  0.00  0.00    +0.000 A 
ATOM     34  C   UNL     1     108.627 129.822 140.510  0.00  0.00    +0.000 A 
ENDBRANCH  26  29
ENDBRANCH  24  25
ENDBRANCH  22  24
ENDBRANCH  16  22
ENDBRANCH  11  15
ENDBRANCH   4  11
BRANCH   7  35
ATOM     35  O   UNL     1     111.043 127.161 138.312  0.00  0.00    +0.000 OA
BRANCH  35  39
ATOM     36  O   UNL     1     109.050 126.356 138.696  0.00  0.00    +0.000 OA
ATOM     37  O   UNL     1     111.221 126.612 139.858  0.00  0.00    +0.000 OA
ATOM     38  O   UNL     1     110.695 125.975 141.041  0.00  0.00    +0.000 OA
ATOM     39  C   UNL     1     110.408 126.801 138.698  0.00  0.00    +0.000 A 
ATOM     40  C   UNL     1     109.685 126.716 138.310  0.00  0.00    +0.000 A 
ATOM     41  C   UNL     1     110.497 126.527 139.470  0.00  0.00    +0.000 A 
ATOM     42  C   UNL     1     109.863 126.167 139.856  0.00  0.00    +0.000 A 
ATOM     43  C   UNL     1     109.139 126.082 139.469  0.00  0.00    +0.000 A 
ATOM     44  C   UNL     1     108.558 125.421 140.665  0.00  0.00    +0.000 A 
ATOM     45  C   UNL     1     108.471 125.709 139.860  0.00  0.00    +0.000 A 
ATOM     46  C   UNL     1     109.968 125.886 140.661  0.00  0.00    +0.000 A 
ATOM     47  C   UNL     1     109.311 125.510 141.069  0.00  0.00    +0.000 A 
BRANCH  40  50
ATOM     48  O   UNL     1     109.565 126.205 135.501  0.00  0.00    +0.000 OA
ATOM     49  O   UNL     1     109.328 127.813 135.218  0.00  0.00    +0.000 OA
ATOM     50  C   UNL     1     109.596 126.990 137.538  0.00  0.00    +0.000 A 
ATOM     51  C   UNL     1     109.625 126.460 136.905  0.00  0.00    +0.000 A 
ATOM     52  C   UNL     1     109.477 127.794 137.397  0.00  0.00    +0.000 A 
ATOM     53  C   UNL     1     109.536 126.734 136.133  0.00  0.00    +0.000 A 
ATOM     54  C   UNL     1     109.388 128.069 136.623  0.00  0.00    +0.000 A 
ATOM     55  C   UNL     1     109.417 127.539 135.992  0.00  0.00    +0.000 A 
ENDBRANCH  40  50
BRANCH  44  56
ATOM     56  O   UNL     1     107.921 125.062 141.048  0.00  0.00    +0.000 OA
BRANCH  56  65
ATOM     57  O   UNL     1     107.534 126.109 141.942  0.00  0.00    +0.000 OA
ATOM     58  O   UNL     1     105.162 125.746 141.338  0.00  0.00    +0.000 OA
ATOM     59  O   UNL     1     105.565 126.913 142.433  0.00  0.00    +0.000 OA
ATOM     60  O   UNL     1     106.340 124.821 140.646  0.00  0.00    +0.000 OA
ATOM     61  C   UNL     1     105.953 125.867 141.539  0.00  0.00    +0.000 C 
ATOM     62  C   UNL     1     106.154 126.450 142.087  0.00  0.00    +0.000 C 
ATOM     63  C   UNL     1     106.542 125.404 141.193  0.00  0.00    +0.000 C 
ATOM     64  C   UNL     1     106.945 126.571 142.288  0.00  0.00    +0.000 C 
ATOM     65  C   UNL     1     107.333 125.525 141.395  0.00  0.00    +0.000 C 
BRANCH  64  67
ATOM     66  O   UNL     1     107.577 126.955 143.512  0.00  0.00    +0.000 OA
ATOM     67  C   UNL     1     107.147 127.155 142.835  0.00  0.00    +0.000 C 
ENDBRANCH  64  67
ENDBRANCH  56  65
ENDBRANCH  44  56
ENDBRANCH  35  39
ENDBRANCH   7  35
TORSDOF 14
ENDMDL
MODEL 9
REMARK VINA RESULT:     -10.0      1.878      5.902
REMARK  Name = 131752951
REMARK  14 active torsions:
REMARK  status: ('A' for Active; 'I' for Inactive)
REMARK    1  A    between atoms: O_1  and  C_26
REMARK    2  A    between atoms: O_1  and  C_28
REMARK    3  A    between atoms: O_4  and  C_29
REMARK    4  A    between atoms: O_4  and  C_44
REMARK    5  A    between atoms: O_5  and  C_32
REMARK    6  A    between atoms: O_5  and  C_43
REMARK    7  A    between atoms: O_13  and  C_42
REMARK    8  A    between atoms: O_13  and  C_50
REMARK    9  A    between atoms: C_34  and  C_36
REMARK   10  A    between atoms: C_35  and  C_37
REMARK   11  A    between atoms: C_41  and  C_45
REMARK   12  A    between atoms: C_44  and  C_51
REMARK   13  A    between atoms: C_46  and  C_53
REMARK   14  A    between atoms: C_56  and  C_61
REMARK                            x       y       z     vdW  Elec       q    Type
REMARK                         _______ _______ _______ _____ _____    ______ ____
ROOT
ATOM      1  O   UNL     1     110.241 127.034 140.136  0.00  0.00    +0.000 OA
ATOM      2  O   UNL     1     108.812 126.159 138.315  0.00  0.00    +0.000 OA
ATOM      3  O   UNL     1     108.508 125.731 139.879  0.00  0.00    +0.000 OA
ATOM      4  C   UNL     1     109.916 126.956 138.746  0.00  0.00    +0.000 C 
ATOM      5  C   UNL     1     109.288 126.451 138.922  0.00  0.00    +0.000 C 
ATOM      6  C   UNL     1     109.137 126.237 139.703  0.00  0.00    +0.000 C 
ATOM      7  C   UNL     1     110.393 127.248 139.353  0.00  0.00    +0.000 C 
ATOM      8  C   UNL     1     109.613 126.528 140.310  0.00  0.00    +0.000 C 
ENDROOT
BRANCH   8  10
ATOM      9  O   UNL     1     110.029 125.898 141.524  0.00  0.00    +0.000 OA
ATOM     10  C   UNL     1     109.462 126.315 141.093  0.00  0.00    +0.000 C 
ENDBRANCH   8  10
BRANCH   4  11
ATOM     11  O   UNL     1     110.068 127.170 137.964  0.00  0.00    +0.000 OA
BRANCH  11  15
ATOM     12  O   UNL     1     110.718 125.919 137.728  0.00  0.00    +0.000 OA
ATOM     13  O   UNL     1     110.689 126.362 135.294  0.00  0.00    +0.000 OA
ATOM     14  O   UNL     1     111.349 124.965 135.870  0.00  0.00    +0.000 OA
ATOM     15  C   UNL     1     110.388 126.618 137.441  0.00  0.00    +0.000 C 
ATOM     16  C   UNL     1     110.378 126.766 136.628  0.00  0.00    +0.000 C 
ATOM     17  C   UNL     1     110.699 126.215 136.105  0.00  0.00    +0.000 C 
ATOM     18  C   UNL     1     111.029 125.516 136.394  0.00  0.00    +0.000 C 
ATOM     19  C   UNL     1     111.039 125.368 137.204  0.00  0.00    +0.000 C 
BRANCH  19  21
ATOM     20  O   UNL     1     112.012 124.700 138.009  0.00  0.00    +0.000 OA
ATOM     21  C   UNL     1     111.369 124.669 137.493  0.00  0.00    +0.000 C 
ENDBRANCH  19  21
BRANCH  16  22
ATOM     22  O   UNL     1     110.048 127.465 136.341  0.00  0.00    +0.000 OA
BRANCH  22  24
ATOM     23  O   UNL     1     110.756 127.885 135.172  0.00  0.00    +0.000 OA
ATOM     24  C   UNL     1     110.524 128.017 135.952  0.00  0.00    +0.000 C 
BRANCH  24  25
ATOM     25  C   UNL     1     110.767 128.700 136.346  0.00  0.00    +0.000 C 
ATOM     26  C   UNL     1     110.783 129.422 135.946  0.00  0.00    +0.000 C 
BRANCH  26  29
ATOM     27  O   UNL     1     110.157 131.928 137.171  0.00  0.00    +0.000 OA
ATOM     28  O   UNL     1     111.754 132.156 137.519  0.00  0.00    +0.000 OA
ATOM     29  C   UNL     1     111.026 130.105 136.339  0.00  0.00    +0.000 A 
ATOM     30  C   UNL     1     110.470 130.675 136.558  0.00  0.00    +0.000 A 
ATOM     31  C   UNL     1     111.824 130.219 136.514  0.00  0.00    +0.000 A 
ATOM     32  C   UNL     1     110.713 131.358 136.952  0.00  0.00    +0.000 A 
ATOM     33  C   UNL     1     112.066 130.903 136.907  0.00  0.00    +0.000 A 
ATOM     34  C   UNL     1     111.511 131.472 137.126  0.00  0.00    +0.000 A 
ENDBRANCH  26  29
ENDBRANCH  24  25
ENDBRANCH  22  24
ENDBRANCH  16  22
ENDBRANCH  11  15
ENDBRANCH   4  11
BRANCH   7  35
ATOM     35  O   UNL     1     111.021 127.753 139.178  0.00  0.00    +0.000 OA
BRANCH  35  39
ATOM     36  O   UNL     1     112.031 129.215 140.444  0.00  0.00    +0.000 OA
ATOM     37  O   UNL     1     109.804 128.838 139.433  0.00  0.00    +0.000 OA
ATOM     38  O   UNL     1     109.299 130.056 140.019  0.00  0.00    +0.000 OA
ATOM     39  C   UNL     1     111.155 128.421 139.643  0.00  0.00    +0.000 A 
ATOM     40  C   UNL     1     111.897 128.547 139.980  0.00  0.00    +0.000 A 
ATOM     41  C   UNL     1     110.546 128.963 139.770  0.00  0.00    +0.000 A 
ATOM     42  C   UNL     1     110.680 129.632 140.234  0.00  0.00    +0.000 A 
ATOM     43  C   UNL     1     111.422 129.758 140.572  0.00  0.00    +0.000 A 
ATOM     44  C   UNL     1     110.945 131.019 141.194  0.00  0.00    +0.000 A 
ATOM     45  C   UNL     1     111.575 130.450 141.058  0.00  0.00    +0.000 A 
ATOM     46  C   UNL     1     110.038 130.189 140.360  0.00  0.00    +0.000 A 
ATOM     47  C   UNL     1     110.171 130.888 140.843  0.00  0.00    +0.000 A 
BRANCH  40  50
ATOM     48  O   UNL     1     113.510 126.375 140.901  0.00  0.00    +0.000 OA
ATOM     49  O   UNL     1     114.332 126.378 139.470  0.00  0.00    +0.000 OA
ATOM     50  C   UNL     1     112.505 128.005 139.853  0.00  0.00    +0.000 A 
ATOM     51  C   UNL     1     112.704 127.461 140.440  0.00  0.00    +0.000 A 
ATOM     52  C   UNL     1     112.916 128.007 139.137  0.00  0.00    +0.000 A 
ATOM     53  C   UNL     1     113.312 126.919 140.313  0.00  0.00    +0.000 A 
ATOM     54  C   UNL     1     113.526 127.464 139.010  0.00  0.00    +0.000 A 
ATOM     55  C   UNL     1     113.723 126.921 139.598  0.00  0.00    +0.000 A 
ENDBRANCH  40  50
BRANCH  44  56
ATOM     56  O   UNL     1     111.081 131.686 141.659  0.00  0.00    +0.000 OA
BRANCH  56  65
ATOM     57  O   UNL     1     110.396 131.331 142.862  0.00  0.00    +0.000 OA
ATOM     58  O   UNL     1     112.359 132.043 144.190  0.00  0.00    +0.000 OA
ATOM     59  O   UNL     1     111.020 131.450 144.950  0.00  0.00    +0.000 OA
ATOM     60  O   UNL     1     112.390 132.161 142.545  0.00  0.00    +0.000 OA
ATOM     61  C   UNL     1     111.705 131.805 143.748  0.00  0.00    +0.000 C 
ATOM     62  C   UNL     1     111.035 131.509 144.128  0.00  0.00    +0.000 C 
ATOM     63  C   UNL     1     111.720 131.864 142.925  0.00  0.00    +0.000 C 
ATOM     64  C   UNL     1     110.381 131.272 143.685  0.00  0.00    +0.000 C 
ATOM     65  C   UNL     1     111.065 131.627 142.482  0.00  0.00    +0.000 C 
BRANCH  64  67
ATOM     66  O   UNL     1     108.971 131.311 143.918  0.00  0.00    +0.000 OA
ATOM     67  C   UNL     1     109.711 130.976 144.065  0.00  0.00    +0.000 C 
ENDBRANCH  64  67
ENDBRANCH  56  65
ENDBRANCH  44  56
ENDBRANCH  35  39
ENDBRANCH   7  35
TORSDOF 14
ENDMDL
MODEL 10
REMARK VINA RESULT:      -9.9      3.304      4.805
REMARK  Name = 131752951
REMARK  14 active torsions:
REMARK  status: ('A' for Active; 'I' for Inactive)
REMARK    1  A    between atoms: O_1  and  C_26
REMARK    2  A    between atoms: O_1  and  C_28
REMARK    3  A    between atoms: O_4  and  C_29
REMARK    4  A    between atoms: O_4  and  C_44
REMARK    5  A    between atoms: O_5  and  C_32
REMARK    6  A    between atoms: O_5  and  C_43
REMARK    7  A    between atoms: O_13  and  C_42
REMARK    8  A    between atoms: O_13  and  C_50
REMARK    9  A    between atoms: C_34  and  C_36
REMARK   10  A    between atoms: C_35  and  C_37
REMARK   11  A    between atoms: C_41  and  C_45
REMARK   12  A    between atoms: C_44  and  C_51
REMARK   13  A    between atoms: C_46  and  C_53
REMARK   14  A    between atoms: C_56  and  C_61
REMARK                            x       y       z     vdW  Elec       q    Type
REMARK                         _______ _______ _______ _____ _____    ______ ____
ROOT
ATOM      1  O   UNL     1     109.660 129.822 140.277  0.00  0.00    +0.000 OA
ATOM      2  O   UNL     1     107.274 129.748 140.930  0.00  0.00    +0.000 OA
ATOM      3  O   UNL     1     107.933 131.154 140.371  0.00  0.00    +0.000 OA
ATOM      4  C   UNL     1     108.535 129.094 140.774  0.00  0.00    +0.000 C 
ATOM      5  C   UNL     1     108.069 129.773 140.712  0.00  0.00    +0.000 C 
ATOM      6  C   UNL     1     108.399 130.475 140.433  0.00  0.00    +0.000 C 
ATOM      7  C   UNL     1     109.330 129.119 140.556  0.00  0.00    +0.000 C 
ATOM      8  C   UNL     1     109.194 130.500 140.216  0.00  0.00    +0.000 C 
ENDROOT
BRANCH   8  10
ATOM      9  O   UNL     1     110.142 131.561 140.350  0.00  0.00    +0.000 OA
ATOM     10  C   UNL     1     109.524 131.203 139.936  0.00  0.00    +0.000 C 
ENDBRANCH   8  10
BRANCH   4  11
ATOM     11  O   UNL     1     108.206 128.392 141.053  0.00  0.00    +0.000 OA
BRANCH  11  15
ATOM     12  O   UNL     1     108.338 128.838 142.404  0.00  0.00    +0.000 OA
ATOM     13  O   UNL     1     106.840 127.017 143.154  0.00  0.00    +0.000 OA
ATOM     14  O   UNL     1     107.473 128.071 144.255  0.00  0.00    +0.000 OA
ATOM     15  C   UNL     1     108.022 128.312 141.853  0.00  0.00    +0.000 C 
ATOM     16  C   UNL     1     107.523 127.704 142.104  0.00  0.00    +0.000 C 
ATOM     17  C   UNL     1     107.339 127.624 142.904  0.00  0.00    +0.000 C 
ATOM     18  C   UNL     1     107.656 128.151 143.454  0.00  0.00    +0.000 C 
ATOM     19  C   UNL     1     108.155 128.758 143.204  0.00  0.00    +0.000 C 
BRANCH  19  21
ATOM     20  O   UNL     1     109.235 129.167 144.047  0.00  0.00    +0.000 OA
ATOM     21  C   UNL     1     108.472 129.285 143.754  0.00  0.00    +0.000 C 
ENDBRANCH  19  21
BRANCH  16  22
ATOM     22  O   UNL     1     107.207 127.178 141.553  0.00  0.00    +0.000 OA
BRANCH  22  24
ATOM     23  O   UNL     1     108.174 126.161 141.826  0.00  0.00    +0.000 OA
ATOM     24  C   UNL     1     107.418 126.380 141.577  0.00  0.00    +0.000 C 
BRANCH  24  25
ATOM     25  C   UNL     1     106.874 125.803 141.351  0.00  0.00    +0.000 C 
ATOM     26  C   UNL     1     107.052 125.290 140.729  0.00  0.00    +0.000 C 
BRANCH  26  29
ATOM     27  O   UNL     1     105.025 124.366 138.938  0.00  0.00    +0.000 OA
ATOM     28  O   UNL     1     104.875 122.981 139.823  0.00  0.00    +0.000 OA
ATOM     29  C   UNL     1     106.508 124.712 140.503  0.00  0.00    +0.000 A 
ATOM     30  C   UNL     1     106.039 124.828 139.833  0.00  0.00    +0.000 A 
ATOM     31  C   UNL     1     106.433 124.020 140.945  0.00  0.00    +0.000 A 
ATOM     32  C   UNL     1     105.495 124.250 139.607  0.00  0.00    +0.000 A 
ATOM     33  C   UNL     1     105.888 123.443 140.718  0.00  0.00    +0.000 A 
ATOM     34  C   UNL     1     105.419 123.558 140.050  0.00  0.00    +0.000 A 
ENDBRANCH  26  29
ENDBRANCH  24  25
ENDBRANCH  22  24
ENDBRANCH  16  22
ENDBRANCH  11  15
ENDBRANCH   4  11
BRANCH   7  35
ATOM     35  O   UNL     1     109.796 128.441 140.618  0.00  0.00    +0.000 OA
BRANCH  35  39
ATOM     36  O   UNL     1     111.647 127.945 139.573  0.00  0.00    +0.000 OA
ATOM     37  O   UNL     1     109.242 128.253 139.075  0.00  0.00    +0.000 OA
ATOM     38  O   UNL     1     109.463 127.963 137.679  0.00  0.00    +0.000 OA
ATOM     39  C   UNL     1     110.321 128.244 140.012  0.00  0.00    +0.000 A 
ATOM     40  C   UNL     1     111.122 128.142 140.178  0.00  0.00    +0.000 A 
ATOM     41  C   UNL     1     110.043 128.150 139.242  0.00  0.00    +0.000 A 
ATOM     42  C   UNL     1     110.568 127.953 138.636  0.00  0.00    +0.000 A 
ATOM     43  C   UNL     1     111.369 127.850 138.801  0.00  0.00    +0.000 A 
ATOM     44  C   UNL     1     111.643 127.546 137.374  0.00  0.00    +0.000 A 
ATOM     45  C   UNL     1     111.926 127.645 138.179  0.00  0.00    +0.000 A 
ATOM     46  C   UNL     1     110.266 127.858 137.837  0.00  0.00    +0.000 A 
ATOM     47  C   UNL     1     110.807 127.653 137.201  0.00  0.00    +0.000 A 
BRANCH  40  50
ATOM     48  O   UNL     1     112.431 129.730 142.162  0.00  0.00    +0.000 OA
ATOM     49  O   UNL     1     112.232 128.517 143.263  0.00  0.00    +0.000 OA
ATOM     50  C   UNL     1     111.400 128.236 140.949  0.00  0.00    +0.000 A 
ATOM     51  C   UNL     1     111.777 128.936 141.170  0.00  0.00    +0.000 A 
ATOM     52  C   UNL     1     111.300 127.630 141.500  0.00  0.00    +0.000 A 
ATOM     53  C   UNL     1     112.054 129.030 141.941  0.00  0.00    +0.000 A 
ATOM     54  C   UNL     1     111.578 127.723 142.272  0.00  0.00    +0.000 A 
ATOM     55  C   UNL     1     111.955 128.424 142.491  0.00  0.00    +0.000 A 
ENDBRANCH  40  50
BRANCH  44  56
ATOM     56  O   UNL     1     112.169 127.349 136.770  0.00  0.00    +0.000 OA
BRANCH  56  65
ATOM     57  O   UNL     1     111.968 125.933 136.787  0.00  0.00    +0.000 OA
ATOM     58  O   UNL     1     114.393 125.586 136.433  0.00  0.00    +0.000 OA
ATOM     59  O   UNL     1     113.384 124.287 136.568  0.00  0.00    +0.000 OA
ATOM     60  O   UNL     1     113.785 127.116 136.534  0.00  0.00    +0.000 OA
ATOM     61  C   UNL     1     113.585 125.702 136.551  0.00  0.00    +0.000 C 
ATOM     62  C   UNL     1     113.080 125.052 136.619  0.00  0.00    +0.000 C 
ATOM     63  C   UNL     1     113.281 126.467 136.602  0.00  0.00    +0.000 C 
ATOM     64  C   UNL     1     112.272 125.168 136.737  0.00  0.00    +0.000 C 
ATOM     65  C   UNL     1     112.473 126.583 136.720  0.00  0.00    +0.000 C 
BRANCH  64  67
ATOM     66  O   UNL     1     111.395 124.359 137.524  0.00  0.00    +0.000 OA
ATOM     67  C   UNL     1     111.768 124.519 136.804  0.00  0.00    +0.000 C 
ENDBRANCH  64  67
ENDBRANCH  56  65
ENDBRANCH  44  56
ENDBRANCH  35  39
ENDBRANCH   7  35
TORSDOF 14
ENDMDL
