MODEL 1
REMARK VINA RESULT:      -9.7      0.000      0.000
REMARK  Name = 131833629
REMARK  4 active torsions:
REMARK  status: ('A' for Active; 'I' for Inactive)
REMARK    1  A    between atoms: S_1  and  O_3
REMARK    2  A    between atoms: O_3  and  C_13
REMARK    3  A    between atoms: C_14  and  C_18
REMARK    4  A    between atoms: C_25  and  C_27
REMARK                            x       y       z     vdW  Elec       q    Type
REMARK                         _______ _______ _______ _____ _____    ______ ____
ROOT
ATOM      1  O   UNL     1     111.986 125.895 136.335  0.00  0.00    +0.000 OA
ATOM      2  O   UNL     1     114.617 125.927 137.509  0.00  0.00    +0.000 OA
ATOM      3  O   UNL     1     113.309 123.425 137.059  0.00  0.00    +0.000 OA
ATOM      4  O   UNL     1     111.993 123.367 136.473  0.00  0.00    +0.000 OA
ATOM      5  C   UNL     1     113.312 125.898 136.927  0.00  0.00    +0.000 A 
ATOM      6  C   UNL     1     112.660 125.470 136.659  0.00  0.00    +0.000 A 
ATOM      7  C   UNL     1     113.964 125.500 137.240  0.00  0.00    +0.000 A 
ATOM      8  C   UNL     1     112.659 124.647 136.702  0.00  0.00    +0.000 A 
ATOM      9  C   UNL     1     113.964 124.676 137.284  0.00  0.00    +0.000 A 
ATOM     10  C   UNL     1     113.310 124.250 137.015  0.00  0.00    +0.000 A 
ATOM     11  C   UNL     1     111.984 124.191 136.425  0.00  0.00    +0.000 A 
ATOM     12  C   UNL     1     111.304 125.457 136.053  0.00  0.00    +0.000 A 
ATOM     13  C   UNL     1     111.303 124.599 136.099  0.00  0.00    +0.000 A 
ENDROOT
BRANCH   5  18
ATOM     14  O   UNL     1     113.517 127.096 136.178  0.00  0.00    +0.000 OA
ATOM     15  O   UNL     1     112.906 128.441 138.163  0.00  0.00    +0.000 OA
ATOM     16  O   UNL     1     113.315 129.193 136.752  0.00  0.00    +0.000 OA
ATOM     17  C   UNL     1     113.109 127.169 137.546  0.00  0.00    +0.000 C 
ATOM     18  C   UNL     1     113.313 126.720 136.883  0.00  0.00    +0.000 C 
ATOM     19  C   UNL     1     113.110 127.993 137.502  0.00  0.00    +0.000 C 
ATOM     20  C   UNL     1     113.314 128.368 136.796  0.00  0.00    +0.000 C 
ATOM     21  C   UNL     1     113.518 127.920 136.134  0.00  0.00    +0.000 C 
BRANCH  17  22
ATOM     22  O   UNL     1     112.904 126.794 138.251  0.00  0.00    +0.000 OA
BRANCH  22  23
ATOM     23  S   UNL     1     112.726 127.243 138.919  0.00  0.00    +0.000 S 
ATOM     24  O   UNL     1     112.548 127.692 139.589  0.00  0.00    +0.000 OA
ATOM     25  O   UNL     1     113.523 127.247 139.129  0.00  0.00    +0.000 OA
ATOM     26  O   UNL     1     111.927 127.239 138.710  0.00  0.00    +0.000 OA
ENDBRANCH  22  23
ENDBRANCH  17  22
ENDBRANCH   5  18
BRANCH  12  27
ATOM     27  C   UNL     1     110.653 125.856 135.741  0.00  0.00    +0.000 A 
ATOM     28  C   UNL     1     110.586 125.963 134.926  0.00  0.00    +0.000 A 
ATOM     29  C   UNL     1     110.069 126.149 136.244  0.00  0.00    +0.000 A 
ATOM     30  C   UNL     1     109.935 126.362 134.614  0.00  0.00    +0.000 A 
ATOM     31  C   UNL     1     109.417 126.549 135.932  0.00  0.00    +0.000 A 
ATOM     32  C   UNL     1     109.351 126.656 135.117  0.00  0.00    +0.000 A 
ENDBRANCH  12  27
TORSDOF 4
ENDMDL
MODEL 2
REMARK VINA RESULT:      -9.5      1.488      3.184
REMARK  Name = 131833629
REMARK  4 active torsions:
REMARK  status: ('A' for Active; 'I' for Inactive)
REMARK    1  A    between atoms: S_1  and  O_3
REMARK    2  A    between atoms: O_3  and  C_13
REMARK    3  A    between atoms: C_14  and  C_18
REMARK    4  A    between atoms: C_25  and  C_27
REMARK                            x       y       z     vdW  Elec       q    Type
REMARK                         _______ _______ _______ _____ _____    ______ ____
ROOT
ATOM      1  O   UNL     1     112.412 126.543 136.211  0.00  0.00    +0.000 OA
ATOM      2  O   UNL     1     110.666 128.495 135.012  0.00  0.00    +0.000 OA
ATOM      3  O   UNL     1     109.897 125.742 135.024  0.00  0.00    +0.000 OA
ATOM      4  O   UNL     1     110.743 124.735 135.615  0.00  0.00    +0.000 OA
ATOM      5  C   UNL     1     111.523 127.517 135.603  0.00  0.00    +0.000 A 
ATOM      6  C   UNL     1     111.680 126.732 135.802  0.00  0.00    +0.000 A 
ATOM      7  C   UNL     1     110.823 127.710 135.211  0.00  0.00    +0.000 A 
ATOM      8  C   UNL     1     111.138 126.141 135.609  0.00  0.00    +0.000 A 
ATOM      9  C   UNL     1     110.281 127.119 135.018  0.00  0.00    +0.000 A 
ATOM     10  C   UNL     1     110.439 126.334 135.217  0.00  0.00    +0.000 A 
ATOM     11  C   UNL     1     111.291 125.319 135.812  0.00  0.00    +0.000 A 
ATOM     12  C   UNL     1     112.582 125.728 136.422  0.00  0.00    +0.000 A 
ATOM     13  C   UNL     1     112.017 125.112 136.221  0.00  0.00    +0.000 A 
ENDROOT
BRANCH   5  18
ATOM     14  O   UNL     1     112.711 128.251 135.305  0.00  0.00    +0.000 OA
ATOM     15  O   UNL     1     112.396 129.596 137.358  0.00  0.00    +0.000 OA
ATOM     16  O   UNL     1     113.690 129.883 136.375  0.00  0.00    +0.000 OA
ATOM     17  C   UNL     1     111.959 128.556 136.481  0.00  0.00    +0.000 C 
ATOM     18  C   UNL     1     112.064 128.108 135.796  0.00  0.00    +0.000 C 
ATOM     19  C   UNL     1     112.501 129.148 136.674  0.00  0.00    +0.000 C 
ATOM     20  C   UNL     1     113.147 129.291 136.182  0.00  0.00    +0.000 C 
ATOM     21  C   UNL     1     113.253 128.843 135.498  0.00  0.00    +0.000 C 
BRANCH  17  22
ATOM     22  O   UNL     1     111.312 128.413 136.972  0.00  0.00    +0.000 OA
BRANCH  22  23
ATOM     23  S   UNL     1     111.189 128.883 137.639  0.00  0.00    +0.000 S 
ATOM     24  O   UNL     1     111.066 129.354 138.306  0.00  0.00    +0.000 OA
ATOM     25  O   UNL     1     111.616 128.346 138.097  0.00  0.00    +0.000 OA
ATOM     26  O   UNL     1     110.762 129.421 137.182  0.00  0.00    +0.000 OA
ENDBRANCH  22  23
ENDBRANCH  17  22
ENDBRANCH   5  18
BRANCH  12  27
ATOM     27  C   UNL     1     113.282 125.537 136.814  0.00  0.00    +0.000 A 
ATOM     28  C   UNL     1     113.320 125.584 137.636  0.00  0.00    +0.000 A 
ATOM     29  C   UNL     1     113.944 125.299 136.383  0.00  0.00    +0.000 A 
ATOM     30  C   UNL     1     114.021 125.393 138.029  0.00  0.00    +0.000 A 
ATOM     31  C   UNL     1     114.645 125.108 136.775  0.00  0.00    +0.000 A 
ATOM     32  C   UNL     1     114.683 125.156 137.598  0.00  0.00    +0.000 A 
ENDBRANCH  12  27
TORSDOF 4
ENDMDL
MODEL 3
REMARK VINA RESULT:      -9.4      1.399      3.354
REMARK  Name = 131833629
REMARK  4 active torsions:
REMARK  status: ('A' for Active; 'I' for Inactive)
REMARK    1  A    between atoms: S_1  and  O_3
REMARK    2  A    between atoms: O_3  and  C_13
REMARK    3  A    between atoms: C_14  and  C_18
REMARK    4  A    between atoms: C_25  and  C_27
REMARK                            x       y       z     vdW  Elec       q    Type
REMARK                         _______ _______ _______ _____ _____    ______ ____
ROOT
ATOM      1  O   UNL     1     112.365 127.314 136.008  0.00  0.00    +0.000 OA
ATOM      2  O   UNL     1     111.415 124.611 136.308  0.00  0.00    +0.000 OA
ATOM      3  O   UNL     1     109.877 126.480 134.786  0.00  0.00    +0.000 OA
ATOM      4  O   UNL     1     110.319 127.841 134.613  0.00  0.00    +0.000 OA
ATOM      5  C   UNL     1     111.875 125.955 136.152  0.00  0.00    +0.000 A 
ATOM      6  C   UNL     1     111.771 126.713 135.846  0.00  0.00    +0.000 A 
ATOM      7  C   UNL     1     111.311 125.370 136.002  0.00  0.00    +0.000 A 
ATOM      8  C   UNL     1     111.106 126.888 135.391  0.00  0.00    +0.000 A 
ATOM      9  C   UNL     1     110.646 125.545 135.547  0.00  0.00    +0.000 A 
ATOM     10  C   UNL     1     110.544 126.304 135.242  0.00  0.00    +0.000 A 
ATOM     11  C   UNL     1     110.988 127.676 135.067  0.00  0.00    +0.000 A 
ATOM     12  C   UNL     1     112.263 128.106 135.692  0.00  0.00    +0.000 A 
ATOM     13  C   UNL     1     111.570 128.288 135.219  0.00  0.00    +0.000 A 
ENDROOT
BRANCH   5  18
ATOM     14  O   UNL     1     113.246 125.566 136.239  0.00  0.00    +0.000 OA
ATOM     15  O   UNL     1     113.123 125.683 138.707  0.00  0.00    +0.000 OA
ATOM     16  O   UNL     1     114.537 125.255 137.971  0.00  0.00    +0.000 OA
ATOM     17  C   UNL     1     112.499 125.819 137.430  0.00  0.00    +0.000 C 
ATOM     18  C   UNL     1     112.540 125.780 136.606  0.00  0.00    +0.000 C 
ATOM     19  C   UNL     1     113.164 125.644 137.885  0.00  0.00    +0.000 C 
ATOM     20  C   UNL     1     113.871 125.430 137.516  0.00  0.00    +0.000 C 
ATOM     21  C   UNL     1     113.912 125.391 136.694  0.00  0.00    +0.000 C 
BRANCH  17  22
ATOM     22  O   UNL     1     111.792 126.033 137.797  0.00  0.00    +0.000 OA
BRANCH  22  23
ATOM     23  S   UNL     1     111.731 126.006 138.619  0.00  0.00    +0.000 S 
ATOM     24  O   UNL     1     111.670 125.979 139.443  0.00  0.00    +0.000 OA
ATOM     25  O   UNL     1     111.954 126.799 138.662  0.00  0.00    +0.000 OA
ATOM     26  O   UNL     1     111.508 125.213 138.578  0.00  0.00    +0.000 OA
ENDBRANCH  22  23
ENDBRANCH  17  22
ENDBRANCH   5  18
BRANCH  12  27
ATOM     27  C   UNL     1     112.828 128.689 135.843  0.00  0.00    +0.000 A 
ATOM     28  C   UNL     1     113.483 128.767 135.348  0.00  0.00    +0.000 A 
ATOM     29  C   UNL     1     112.737 129.193 136.489  0.00  0.00    +0.000 A 
ATOM     30  C   UNL     1     114.047 129.350 135.499  0.00  0.00    +0.000 A 
ATOM     31  C   UNL     1     113.302 129.777 136.641  0.00  0.00    +0.000 A 
ATOM     32  C   UNL     1     113.957 129.854 136.145  0.00  0.00    +0.000 A 
ENDBRANCH  12  27
TORSDOF 4
ENDMDL
MODEL 4
REMARK VINA RESULT:      -9.3      1.336      3.093
REMARK  Name = 131833629
REMARK  4 active torsions:
REMARK  status: ('A' for Active; 'I' for Inactive)
REMARK    1  A    between atoms: S_1  and  O_3
REMARK    2  A    between atoms: O_3  and  C_13
REMARK    3  A    between atoms: C_14  and  C_18
REMARK    4  A    between atoms: C_25  and  C_27
REMARK                            x       y       z     vdW  Elec       q    Type
REMARK                         _______ _______ _______ _____ _____    ______ ____
ROOT
ATOM      1  O   UNL     1     112.552 126.643 136.674  0.00  0.00    +0.000 OA
ATOM      2  O   UNL     1     111.392 124.044 137.120  0.00  0.00    +0.000 OA
ATOM      3  O   UNL     1     114.211 124.272 136.704  0.00  0.00    +0.000 OA
ATOM      4  O   UNL     1     114.829 125.555 136.478  0.00  0.00    +0.000 OA
ATOM      5  C   UNL     1     111.980 125.328 136.898  0.00  0.00    +0.000 A 
ATOM      6  C   UNL     1     112.646 125.793 136.754  0.00  0.00    +0.000 A 
ATOM      7  C   UNL     1     112.058 124.509 136.977  0.00  0.00    +0.000 A 
ATOM      8  C   UNL     1     113.389 125.441 136.690  0.00  0.00    +0.000 A 
ATOM      9  C   UNL     1     112.801 124.158 136.912  0.00  0.00    +0.000 A 
ATOM     10  C   UNL     1     113.466 124.624 136.769  0.00  0.00    +0.000 A 
ATOM     11  C   UNL     1     114.090 125.916 136.540  0.00  0.00    +0.000 A 
ATOM     12  C   UNL     1     113.241 127.133 136.524  0.00  0.00    +0.000 A 
ATOM     13  C   UNL     1     114.015 126.767 136.457  0.00  0.00    +0.000 A 
ENDROOT
BRANCH   5  18
ATOM     14  O   UNL     1     110.801 125.849 136.283  0.00  0.00    +0.000 OA
ATOM     15  O   UNL     1     109.879 126.394 138.514  0.00  0.00    +0.000 OA
ATOM     16  O   UNL     1     109.006 126.735 137.155  0.00  0.00    +0.000 OA
ATOM     17  C   UNL     1     110.929 125.861 137.706  0.00  0.00    +0.000 C 
ATOM     18  C   UNL     1     111.237 125.679 136.962  0.00  0.00    +0.000 C 
ATOM     19  C   UNL     1     110.186 126.213 137.771  0.00  0.00    +0.000 C 
ATOM     20  C   UNL     1     109.750 126.383 137.091  0.00  0.00    +0.000 C 
ATOM     21  C   UNL     1     110.057 126.201 136.347  0.00  0.00    +0.000 C 
BRANCH  17  22
ATOM     22  O   UNL     1     111.366 125.691 138.385  0.00  0.00    +0.000 OA
BRANCH  22  23
ATOM     23  S   UNL     1     111.045 125.844 139.129  0.00  0.00    +0.000 S 
ATOM     24  O   UNL     1     110.724 125.997 139.875  0.00  0.00    +0.000 OA
ATOM     25  O   UNL     1     110.694 125.097 139.132  0.00  0.00    +0.000 OA
ATOM     26  O   UNL     1     111.396 126.591 139.128  0.00  0.00    +0.000 OA
ENDBRANCH  22  23
ENDBRANCH  17  22
ENDBRANCH   5  18
BRANCH  12  27
ATOM     27  C   UNL     1     113.161 127.951 136.445  0.00  0.00    +0.000 A 
ATOM     28  C   UNL     1     113.225 128.438 137.108  0.00  0.00    +0.000 A 
ATOM     29  C   UNL     1     113.016 128.281 135.704  0.00  0.00    +0.000 A 
ATOM     30  C   UNL     1     113.144 129.255 137.029  0.00  0.00    +0.000 A 
ATOM     31  C   UNL     1     112.935 129.099 135.624  0.00  0.00    +0.000 A 
ATOM     32  C   UNL     1     112.999 129.586 136.287  0.00  0.00    +0.000 A 
ENDBRANCH  12  27
TORSDOF 4
ENDMDL
MODEL 5
REMARK VINA RESULT:      -9.3      1.424      2.021
REMARK  Name = 131833629
REMARK  4 active torsions:
REMARK  status: ('A' for Active; 'I' for Inactive)
REMARK    1  A    between atoms: S_1  and  O_3
REMARK    2  A    between atoms: O_3  and  C_13
REMARK    3  A    between atoms: C_14  and  C_18
REMARK    4  A    between atoms: C_25  and  C_27
REMARK                            x       y       z     vdW  Elec       q    Type
REMARK                         _______ _______ _______ _____ _____    ______ ____
ROOT
ATOM      1  O   UNL     1     112.122 126.178 136.997  0.00  0.00    +0.000 OA
ATOM      2  O   UNL     1     113.612 126.791 139.386  0.00  0.00    +0.000 OA
ATOM      3  O   UNL     1     114.605 124.810 137.580  0.00  0.00    +0.000 OA
ATOM      4  O   UNL     1     113.889 124.475 136.374  0.00  0.00    +0.000 OA
ATOM      5  C   UNL     1     112.883 126.478 138.198  0.00  0.00    +0.000 A 
ATOM      6  C   UNL     1     112.805 126.043 137.501  0.00  0.00    +0.000 A 
ATOM      7  C   UNL     1     113.535 126.357 138.689  0.00  0.00    +0.000 A 
ATOM      8  C   UNL     1     113.380 125.487 137.295  0.00  0.00    +0.000 A 
ATOM      9  C   UNL     1     114.109 125.801 138.483  0.00  0.00    +0.000 A 
ATOM     10  C   UNL     1     114.031 125.367 137.786  0.00  0.00    +0.000 A 
ATOM     11  C   UNL     1     113.310 125.029 136.571  0.00  0.00    +0.000 A 
ATOM     12  C   UNL     1     112.036 125.729 136.270  0.00  0.00    +0.000 A 
ATOM     13  C   UNL     1     112.633 125.150 136.056  0.00  0.00    +0.000 A 
ENDROOT
BRANCH   5  18
ATOM     14  O   UNL     1     112.339 127.794 138.087  0.00  0.00    +0.000 OA
ATOM     15  O   UNL     1     110.526 127.177 139.654  0.00  0.00    +0.000 OA
ATOM     16  O   UNL     1     110.586 128.700 139.021  0.00  0.00    +0.000 OA
ATOM     17  C   UNL     1     111.704 126.827 138.926  0.00  0.00    +0.000 C 
ATOM     18  C   UNL     1     112.309 127.033 138.403  0.00  0.00    +0.000 C 
ATOM     19  C   UNL     1     111.130 127.383 139.132  0.00  0.00    +0.000 C 
ATOM     20  C   UNL     1     111.161 128.144 138.815  0.00  0.00    +0.000 C 
ATOM     21  C   UNL     1     111.765 128.350 138.293  0.00  0.00    +0.000 C 
BRANCH  17  22
ATOM     22  O   UNL     1     111.674 126.066 139.242  0.00  0.00    +0.000 OA
BRANCH  22  23
ATOM     23  S   UNL     1     111.086 125.869 139.786  0.00  0.00    +0.000 S 
ATOM     24  O   UNL     1     110.497 125.672 140.330  0.00  0.00    +0.000 OA
ATOM     25  O   UNL     1     110.614 125.583 139.173  0.00  0.00    +0.000 OA
ATOM     26  O   UNL     1     111.557 126.155 140.401  0.00  0.00    +0.000 OA
ENDBRANCH  22  23
ENDBRANCH  17  22
ENDBRANCH   5  18
BRANCH  12  27
ATOM     27  C   UNL     1     111.383 125.852 135.781  0.00  0.00    +0.000 A 
ATOM     28  C   UNL     1     111.363 126.502 135.275  0.00  0.00    +0.000 A 
ATOM     29  C   UNL     1     110.749 125.324 135.798  0.00  0.00    +0.000 A 
ATOM     30  C   UNL     1     110.710 126.625 134.786  0.00  0.00    +0.000 A 
ATOM     31  C   UNL     1     110.096 125.446 135.309  0.00  0.00    +0.000 A 
ATOM     32  C   UNL     1     110.077 126.097 134.803  0.00  0.00    +0.000 A 
ENDBRANCH  12  27
TORSDOF 4
ENDMDL
MODEL 6
REMARK VINA RESULT:      -9.2      1.582      3.565
REMARK  Name = 131833629
REMARK  4 active torsions:
REMARK  status: ('A' for Active; 'I' for Inactive)
REMARK    1  A    between atoms: S_1  and  O_3
REMARK    2  A    between atoms: O_3  and  C_13
REMARK    3  A    between atoms: C_14  and  C_18
REMARK    4  A    between atoms: C_25  and  C_27
REMARK                            x       y       z     vdW  Elec       q    Type
REMARK                         _______ _______ _______ _____ _____    ______ ____
ROOT
ATOM      1  O   UNL     1     112.662 126.699 136.828  0.00  0.00    +0.000 OA
ATOM      2  O   UNL     1     111.488 124.087 137.143  0.00  0.00    +0.000 OA
ATOM      3  O   UNL     1     114.252 124.310 136.447  0.00  0.00    +0.000 OA
ATOM      4  O   UNL     1     114.876 125.599 136.280  0.00  0.00    +0.000 OA
ATOM      5  C   UNL     1     112.083 125.376 136.984  0.00  0.00    +0.000 A 
ATOM      6  C   UNL     1     112.742 125.843 136.815  0.00  0.00    +0.000 A 
ATOM      7  C   UNL     1     112.147 124.553 136.974  0.00  0.00    +0.000 A 
ATOM      8  C   UNL     1     113.465 125.487 136.636  0.00  0.00    +0.000 A 
ATOM      9  C   UNL     1     112.870 124.198 136.795  0.00  0.00    +0.000 A 
ATOM     10  C   UNL     1     113.528 124.666 136.626  0.00  0.00    +0.000 A 
ATOM     11  C   UNL     1     114.158 125.964 136.458  0.00  0.00    +0.000 A 
ATOM     12  C   UNL     1     113.345 127.190 136.653  0.00  0.00    +0.000 A 
ATOM     13  C   UNL     1     114.097 126.820 136.467  0.00  0.00    +0.000 A 
ENDROOT
BRANCH   5  18
ATOM     14  O   UNL     1     111.192 125.955 137.938  0.00  0.00    +0.000 OA
ATOM     15  O   UNL     1     109.530 126.349 136.148  0.00  0.00    +0.000 OA
ATOM     16  O   UNL     1     109.192 126.797 137.700  0.00  0.00    +0.000 OA
ATOM     17  C   UNL     1     110.806 125.863 136.566  0.00  0.00    +0.000 C 
ATOM     18  C   UNL     1     111.361 125.731 137.163  0.00  0.00    +0.000 C 
ATOM     19  C   UNL     1     110.084 126.218 136.745  0.00  0.00    +0.000 C 
ATOM     20  C   UNL     1     109.916 126.442 137.521  0.00  0.00    +0.000 C 
ATOM     21  C   UNL     1     110.469 126.310 138.117  0.00  0.00    +0.000 C 
BRANCH  17  22
ATOM     22  O   UNL     1     110.975 125.638 135.790  0.00  0.00    +0.000 OA
BRANCH  22  23
ATOM     23  S   UNL     1     110.405 125.732 135.201  0.00  0.00    +0.000 S 
ATOM     24  O   UNL     1     109.834 125.824 134.612  0.00  0.00    +0.000 OA
ATOM     25  O   UNL     1     110.098 124.988 135.381  0.00  0.00    +0.000 OA
ATOM     26  O   UNL     1     110.712 126.476 135.020  0.00  0.00    +0.000 OA
ENDBRANCH  22  23
ENDBRANCH  17  22
ENDBRANCH   5  18
BRANCH  12  27
ATOM     27  C   UNL     1     113.278 128.012 136.664  0.00  0.00    +0.000 A 
ATOM     28  C   UNL     1     113.182 128.428 135.958  0.00  0.00    +0.000 A 
ATOM     29  C   UNL     1     113.306 128.419 137.381  0.00  0.00    +0.000 A 
ATOM     30  C   UNL     1     113.115 129.250 135.968  0.00  0.00    +0.000 A 
ATOM     31  C   UNL     1     113.239 129.242 137.392  0.00  0.00    +0.000 A 
ATOM     32  C   UNL     1     113.144 129.657 136.686  0.00  0.00    +0.000 A 
ENDBRANCH  12  27
TORSDOF 4
ENDMDL
MODEL 7
REMARK VINA RESULT:      -9.2      1.841      3.721
REMARK  Name = 131833629
REMARK  4 active torsions:
REMARK  status: ('A' for Active; 'I' for Inactive)
REMARK    1  A    between atoms: S_1  and  O_3
REMARK    2  A    between atoms: O_3  and  C_13
REMARK    3  A    between atoms: C_14  and  C_18
REMARK    4  A    between atoms: C_25  and  C_27
REMARK                            x       y       z     vdW  Elec       q    Type
REMARK                         _______ _______ _______ _____ _____    ______ ____
ROOT
ATOM      1  O   UNL     1     112.928 126.798 137.803  0.00  0.00    +0.000 OA
ATOM      2  O   UNL     1     112.418 129.162 139.370  0.00  0.00    +0.000 OA
ATOM      3  O   UNL     1     113.535 129.426 136.752  0.00  0.00    +0.000 OA
ATOM      4  O   UNL     1     113.805 128.267 135.936  0.00  0.00    +0.000 OA
ATOM      5  C   UNL     1     112.676 127.998 138.582  0.00  0.00    +0.000 A 
ATOM      6  C   UNL     1     112.948 127.654 137.884  0.00  0.00    +0.000 A 
ATOM      7  C   UNL     1     112.690 128.818 138.671  0.00  0.00    +0.000 A 
ATOM      8  C   UNL     1     113.234 128.130 137.274  0.00  0.00    +0.000 A 
ATOM      9  C   UNL     1     112.977 129.294 138.061  0.00  0.00    +0.000 A 
ATOM     10  C   UNL     1     113.248 128.950 137.363  0.00  0.00    +0.000 A 
ATOM     11  C   UNL     1     113.520 127.783 136.541  0.00  0.00    +0.000 A 
ATOM     12  C   UNL     1     113.209 126.435 137.078  0.00  0.00    +0.000 A 
ATOM     13  C   UNL     1     113.508 126.930 136.443  0.00  0.00    +0.000 A 
ENDROOT
BRANCH   5  18
ATOM     14  O   UNL     1     111.610 127.253 139.174  0.00  0.00    +0.000 OA
ATOM     15  O   UNL     1     113.090 126.632 141.057  0.00  0.00    +0.000 OA
ATOM     16  O   UNL     1     111.530 126.094 141.022  0.00  0.00    +0.000 OA
ATOM     17  C   UNL     1     112.883 127.315 139.820  0.00  0.00    +0.000 C 
ATOM     18  C   UNL     1     112.390 127.522 139.192  0.00  0.00    +0.000 C 
ATOM     19  C   UNL     1     112.597 126.839 140.430  0.00  0.00    +0.000 C 
ATOM     20  C   UNL     1     111.817 126.570 140.412  0.00  0.00    +0.000 C 
ATOM     21  C   UNL     1     111.324 126.777 139.784  0.00  0.00    +0.000 C 
BRANCH  17  22
ATOM     22  O   UNL     1     113.663 127.584 139.838  0.00  0.00    +0.000 OA
BRANCH  22  23
ATOM     23  S   UNL     1     114.154 127.380 140.468  0.00  0.00    +0.000 S 
ATOM     24  O   UNL     1     114.646 127.177 141.100  0.00  0.00    +0.000 OA
ATOM     25  O   UNL     1     113.907 128.052 140.878  0.00  0.00    +0.000 OA
ATOM     26  O   UNL     1     114.403 126.708 140.059  0.00  0.00    +0.000 OA
ENDBRANCH  22  23
ENDBRANCH  17  22
ENDBRANCH   5  18
BRANCH  12  27
ATOM     27  C   UNL     1     113.194 125.614 136.992  0.00  0.00    +0.000 A 
ATOM     28  C   UNL     1     113.857 125.165 137.189  0.00  0.00    +0.000 A 
ATOM     29  C   UNL     1     112.514 125.242 136.708  0.00  0.00    +0.000 A 
ATOM     30  C   UNL     1     113.841 124.345 137.102  0.00  0.00    +0.000 A 
ATOM     31  C   UNL     1     112.498 124.421 136.622  0.00  0.00    +0.000 A 
ATOM     32  C   UNL     1     113.162 123.973 136.819  0.00  0.00    +0.000 A 
ENDBRANCH  12  27
TORSDOF 4
ENDMDL
MODEL 8
REMARK VINA RESULT:      -9.2      2.015      4.015
REMARK  Name = 131833629
REMARK  4 active torsions:
REMARK  status: ('A' for Active; 'I' for Inactive)
REMARK    1  A    between atoms: S_1  and  O_3
REMARK    2  A    between atoms: O_3  and  C_13
REMARK    3  A    between atoms: C_14  and  C_18
REMARK    4  A    between atoms: C_25  and  C_27
REMARK                            x       y       z     vdW  Elec       q    Type
REMARK                         _______ _______ _______ _____ _____    ______ ____
ROOT
ATOM      1  O   UNL     1     112.766 126.907 137.577  0.00  0.00    +0.000 OA
ATOM      2  O   UNL     1     111.144 129.030 138.654  0.00  0.00    +0.000 OA
ATOM      3  O   UNL     1     112.798 129.542 136.380  0.00  0.00    +0.000 OA
ATOM      4  O   UNL     1     113.624 128.505 135.811  0.00  0.00    +0.000 OA
ATOM      5  C   UNL     1     111.953 127.985 138.110  0.00  0.00    +0.000 A 
ATOM      6  C   UNL     1     112.498 127.723 137.550  0.00  0.00    +0.000 A 
ATOM      7  C   UNL     1     111.689 128.768 138.094  0.00  0.00    +0.000 A 
ATOM      8  C   UNL     1     112.780 128.242 136.973  0.00  0.00    +0.000 A 
ATOM      9  C   UNL     1     111.971 129.286 137.517  0.00  0.00    +0.000 A 
ATOM     10  C   UNL     1     112.516 129.022 136.957  0.00  0.00    +0.000 A 
ATOM     11  C   UNL     1     113.349 127.979 136.384  0.00  0.00    +0.000 A 
ATOM     12  C   UNL     1     113.334 126.627 136.996  0.00  0.00    +0.000 A 
ATOM     13  C   UNL     1     113.627 127.167 136.396  0.00  0.00    +0.000 A 
ENDROOT
BRANCH   5  18
ATOM     14  O   UNL     1     112.108 127.338 139.374  0.00  0.00    +0.000 OA
ATOM     15  O   UNL     1     109.953 126.169 139.040  0.00  0.00    +0.000 OA
ATOM     16  O   UNL     1     110.827 125.911 140.417  0.00  0.00    +0.000 OA
ATOM     17  C   UNL     1     110.953 127.077 138.575  0.00  0.00    +0.000 C 
ATOM     18  C   UNL     1     111.672 127.468 138.686  0.00  0.00    +0.000 C 
ATOM     19  C   UNL     1     110.671 126.559 139.152  0.00  0.00    +0.000 C 
ATOM     20  C   UNL     1     111.109 126.430 139.839  0.00  0.00    +0.000 C 
ATOM     21  C   UNL     1     111.827 126.820 139.951  0.00  0.00    +0.000 C 
BRANCH  17  22
ATOM     22  O   UNL     1     110.516 127.206 137.887  0.00  0.00    +0.000 OA
BRANCH  22  23
ATOM     23  S   UNL     1     109.770 126.864 137.803  0.00  0.00    +0.000 S 
ATOM     24  O   UNL     1     109.024 126.522 137.719  0.00  0.00    +0.000 OA
ATOM     25  O   UNL     1     110.110 126.219 137.417  0.00  0.00    +0.000 OA
ATOM     26  O   UNL     1     109.430 127.509 138.189  0.00  0.00    +0.000 OA
ENDBRANCH  22  23
ENDBRANCH  17  22
ENDBRANCH   5  18
BRANCH  12  27
ATOM     27  C   UNL     1     113.596 125.845 137.015  0.00  0.00    +0.000 A 
ATOM     28  C   UNL     1     113.178 125.259 136.612  0.00  0.00    +0.000 A 
ATOM     29  C   UNL     1     114.277 125.649 137.436  0.00  0.00    +0.000 A 
ATOM     30  C   UNL     1     113.440 124.477 136.631  0.00  0.00    +0.000 A 
ATOM     31  C   UNL     1     114.541 124.866 137.456  0.00  0.00    +0.000 A 
ATOM     32  C   UNL     1     114.121 124.281 137.053  0.00  0.00    +0.000 A 
ENDBRANCH  12  27
TORSDOF 4
ENDMDL
MODEL 9
REMARK VINA RESULT:      -9.2     11.665     12.687
REMARK  Name = 131833629
REMARK  4 active torsions:
REMARK  status: ('A' for Active; 'I' for Inactive)
REMARK    1  A    between atoms: S_1  and  O_3
REMARK    2  A    between atoms: O_3  and  C_13
REMARK    3  A    between atoms: C_14  and  C_18
REMARK    4  A    between atoms: C_25  and  C_27
REMARK                            x       y       z     vdW  Elec       q    Type
REMARK                         _______ _______ _______ _____ _____    ______ ____
ROOT
ATOM      1  O   UNL     1     105.044 125.677 147.749  0.00  0.00    +0.000 OA
ATOM      2  O   UNL     1     107.646 125.652 146.511  0.00  0.00    +0.000 OA
ATOM      3  O   UNL     1     107.242 124.236 148.962  0.00  0.00    +0.000 OA
ATOM      4  O   UNL     1     105.955 124.224 149.612  0.00  0.00    +0.000 OA
ATOM      5  C   UNL     1     106.361 125.656 147.135  0.00  0.00    +0.000 A 
ATOM      6  C   UNL     1     105.865 125.422 147.752  0.00  0.00    +0.000 A 
ATOM      7  C   UNL     1     107.151 125.417 147.128  0.00  0.00    +0.000 A 
ATOM      8  C   UNL     1     106.159 124.948 148.360  0.00  0.00    +0.000 A 
ATOM      9  C   UNL     1     107.445 124.944 147.736  0.00  0.00    +0.000 A 
ATOM     10  C   UNL     1     106.948 124.710 148.352  0.00  0.00    +0.000 A 
ATOM     11  C   UNL     1     105.652 124.698 149.008  0.00  0.00    +0.000 A 
ATOM     12  C   UNL     1     104.523 125.436 148.388  0.00  0.00    +0.000 A 
ATOM     13  C   UNL     1     104.829 124.943 149.021  0.00  0.00    +0.000 A 
ENDROOT
BRANCH   5  18
ATOM     14  O   UNL     1     106.035 126.948 146.621  0.00  0.00    +0.000 OA
ATOM     15  O   UNL     1     105.251 125.911 144.515  0.00  0.00    +0.000 OA
ATOM     16  O   UNL     1     105.186 127.550 144.702  0.00  0.00    +0.000 OA
ATOM     17  C   UNL     1     105.806 125.783 145.825  0.00  0.00    +0.000 C 
ATOM     18  C   UNL     1     106.067 126.129 146.528  0.00  0.00    +0.000 C 
ATOM     19  C   UNL     1     105.512 126.257 145.217  0.00  0.00    +0.000 C 
ATOM     20  C   UNL     1     105.480 127.076 145.311  0.00  0.00    +0.000 C 
ATOM     21  C   UNL     1     105.741 127.422 146.012  0.00  0.00    +0.000 C 
BRANCH  17  22
ATOM     22  O   UNL     1     105.838 124.965 145.732  0.00  0.00    +0.000 OA
BRANCH  22  23
ATOM     23  S   UNL     1     105.595 124.621 145.023  0.00  0.00    +0.000 S 
ATOM     24  O   UNL     1     105.350 124.277 144.313  0.00  0.00    +0.000 OA
ATOM     25  O   UNL     1     104.822 124.581 145.308  0.00  0.00    +0.000 OA
ATOM     26  O   UNL     1     106.367 124.661 144.737  0.00  0.00    +0.000 OA
ENDBRANCH  22  23
ENDBRANCH  17  22
ENDBRANCH   5  18
BRANCH  12  27
ATOM     27  C   UNL     1     103.734 125.676 148.393  0.00  0.00    +0.000 A 
ATOM     28  C   UNL     1     103.152 125.189 148.073  0.00  0.00    +0.000 A 
ATOM     29  C   UNL     1     103.527 126.406 148.719  0.00  0.00    +0.000 A 
ATOM     30  C   UNL     1     102.363 125.429 148.078  0.00  0.00    +0.000 A 
ATOM     31  C   UNL     1     102.738 126.647 148.725  0.00  0.00    +0.000 A 
ATOM     32  C   UNL     1     102.156 126.158 148.404  0.00  0.00    +0.000 A 
ENDBRANCH  12  27
TORSDOF 4
ENDMDL
MODEL 10
REMARK VINA RESULT:      -9.1      1.772      3.534
REMARK  Name = 131833629
REMARK  4 active torsions:
REMARK  status: ('A' for Active; 'I' for Inactive)
REMARK    1  A    between atoms: S_1  and  O_3
REMARK    2  A    between atoms: O_3  and  C_13
REMARK    3  A    between atoms: C_14  and  C_18
REMARK    4  A    between atoms: C_25  and  C_27
REMARK                            x       y       z     vdW  Elec       q    Type
REMARK                         _______ _______ _______ _____ _____    ______ ____
ROOT
ATOM      1  O   UNL     1     111.639 126.101 137.039  0.00  0.00    +0.000 OA
ATOM      2  O   UNL     1     109.333 127.692 137.711  0.00  0.00    +0.000 OA
ATOM      3  O   UNL     1     109.296 126.096 135.340  0.00  0.00    +0.000 OA
ATOM      4  O   UNL     1     110.430 125.286 134.969  0.00  0.00    +0.000 OA
ATOM      5  C   UNL     1     110.470 126.898 137.367  0.00  0.00    +0.000 A 
ATOM      6  C   UNL     1     110.843 126.368 136.856  0.00  0.00    +0.000 A 
ATOM      7  C   UNL     1     109.706 127.162 137.201  0.00  0.00    +0.000 A 
ATOM      8  C   UNL     1     110.451 126.101 136.181  0.00  0.00    +0.000 A 
ATOM      9  C   UNL     1     109.314 126.895 136.526  0.00  0.00    +0.000 A 
ATOM     10  C   UNL     1     109.688 126.364 136.016  0.00  0.00    +0.000 A 
ATOM     11  C   UNL     1     110.830 125.548 135.642  0.00  0.00    +0.000 A 
ATOM     12  C   UNL     1     112.033 125.549 136.512  0.00  0.00    +0.000 A 
ATOM     13  C   UNL     1     111.625 125.271 135.809  0.00  0.00    +0.000 A 
ENDROOT
BRANCH   5  18
ATOM     14  O   UNL     1     111.389 127.797 137.990  0.00  0.00    +0.000 OA
ATOM     15  O   UNL     1     110.980 126.702 140.171  0.00  0.00    +0.000 OA
ATOM     16  O   UNL     1     112.036 127.967 140.068  0.00  0.00    +0.000 OA
ATOM     17  C   UNL     1     110.725 126.800 138.769  0.00  0.00    +0.000 C 
ATOM     18  C   UNL     1     110.861 127.165 138.041  0.00  0.00    +0.000 C 
ATOM     19  C   UNL     1     111.116 127.067 139.444  0.00  0.00    +0.000 C 
ATOM     20  C   UNL     1     111.644 127.700 139.392  0.00  0.00    +0.000 C 
ATOM     21  C   UNL     1     111.780 128.065 138.665  0.00  0.00    +0.000 C 
BRANCH  17  22
ATOM     22  O   UNL     1     110.198 126.168 138.820  0.00  0.00    +0.000 OA
BRANCH  22  23
ATOM     23  S   UNL     1     110.043 125.820 139.552  0.00  0.00    +0.000 S 
ATOM     24  O   UNL     1     109.887 125.472 140.284  0.00  0.00    +0.000 OA
ATOM     25  O   UNL     1     109.434 126.362 139.680  0.00  0.00    +0.000 OA
ATOM     26  O   UNL     1     110.651 125.277 139.424  0.00  0.00    +0.000 OA
ENDBRANCH  22  23
ENDBRANCH  17  22
ENDBRANCH   5  18
BRANCH  12  27
ATOM     27  C   UNL     1     112.797 125.287 136.679  0.00  0.00    +0.000 A 
ATOM     28  C   UNL     1     112.912 124.558 137.047  0.00  0.00    +0.000 A 
ATOM     29  C   UNL     1     113.446 125.755 136.479  0.00  0.00    +0.000 A 
ATOM     30  C   UNL     1     113.677 124.297 137.215  0.00  0.00    +0.000 A 
ATOM     31  C   UNL     1     114.211 125.494 136.646  0.00  0.00    +0.000 A 
ATOM     32  C   UNL     1     114.326 124.764 137.015  0.00  0.00    +0.000 A 
ENDBRANCH  12  27
TORSDOF 4
ENDMDL
