MODEL 1
REMARK VINA RESULT:      -8.2      0.000      0.000
REMARK  Name = 5464461
REMARK  4 active torsions:
REMARK  status: ('A' for Active; 'I' for Inactive)
REMARK    1  A    between atoms: O_2  and  C_12
REMARK    2  A    between atoms: O_3  and  C_17
REMARK    3  A    between atoms: O_7  and  C_21
REMARK    4  A    between atoms: C_11  and  C_14
REMARK                            x       y       z     vdW  Elec       q    Type
REMARK                         _______ _______ _______ _____ _____    ______ ____
ROOT
ATOM      1  O   UNL     1     104.814 124.184 147.213  0.00  0.00    +0.000 OA
ATOM      2  O   UNL     1     107.218 125.440 146.216  0.00  0.00    +0.000 OA
ATOM      3  O   UNL     1     106.148 125.068 145.324  0.00  0.00    +0.000 OA
ATOM      4  O   UNL     1     106.934 124.908 149.074  0.00  0.00    +0.000 OA
ATOM      5  C   UNL     1     106.004 124.805 146.721  0.00  0.00    +0.000 A 
ATOM      6  C   UNL     1     105.559 124.511 147.350  0.00  0.00    +0.000 A 
ATOM      7  C   UNL     1     104.514 124.152 146.445  0.00  0.00    +0.000 A 
ATOM      8  C   UNL     1     104.958 124.447 145.815  0.00  0.00    +0.000 A 
ATOM      9  C   UNL     1     105.703 124.773 145.954  0.00  0.00    +0.000 A 
ATOM     10  C   UNL     1     106.781 125.148 146.852  0.00  0.00    +0.000 A 
ATOM     11  C   UNL     1     105.862 124.539 148.155  0.00  0.00    +0.000 A 
ATOM     12  C   UNL     1     107.099 125.184 147.649  0.00  0.00    +0.000 A 
ATOM     13  C   UNL     1     106.636 124.877 148.305  0.00  0.00    +0.000 A 
ENDROOT
BRANCH   7  15
ATOM     14  O   UNL     1     101.535 122.843 145.894  0.00  0.00    +0.000 OA
ATOM     15  C   UNL     1     103.769 123.825 146.307  0.00  0.00    +0.000 A 
ATOM     16  C   UNL     1     103.089 124.252 146.497  0.00  0.00    +0.000 A 
ATOM     17  C   UNL     1     103.704 123.070 145.979  0.00  0.00    +0.000 A 
ATOM     18  C   UNL     1     102.345 123.924 146.359  0.00  0.00    +0.000 A 
ATOM     19  C   UNL     1     102.960 122.743 145.842  0.00  0.00    +0.000 A 
ATOM     20  C   UNL     1     102.280 123.171 146.032  0.00  0.00    +0.000 A 
BRANCH  18  21
ATOM     21  O   UNL     1     101.665 124.351 146.549  0.00  0.00    +0.000 OA
ATOM     22  C   UNL     1     101.572 124.665 147.306  0.00  0.00    +0.000 C 
ENDBRANCH  18  21
ENDBRANCH   7  15
BRANCH   8  23
ATOM     23  O   UNL     1     104.658 124.414 145.048  0.00  0.00    +0.000 OA
ATOM     24  C   UNL     1     105.160 124.531 144.403  0.00  0.00    +0.000 C 
ENDBRANCH   8  23
BRANCH  12  25
ATOM     25  O   UNL     1     107.844 125.511 147.784  0.00  0.00    +0.000 OA
ATOM     26  C   UNL     1     108.489 125.020 147.937  0.00  0.00    +0.000 C 
ENDBRANCH  12  25
TORSDOF 4
ENDMDL
MODEL 2
REMARK VINA RESULT:      -8.1      0.963      4.368
REMARK  Name = 5464461
REMARK  4 active torsions:
REMARK  status: ('A' for Active; 'I' for Inactive)
REMARK    1  A    between atoms: O_2  and  C_12
REMARK    2  A    between atoms: O_3  and  C_17
REMARK    3  A    between atoms: O_7  and  C_21
REMARK    4  A    between atoms: C_11  and  C_14
REMARK                            x       y       z     vdW  Elec       q    Type
REMARK                         _______ _______ _______ _____ _____    ______ ____
ROOT
ATOM      1  O   UNL     1     104.698 124.846 146.964  0.00  0.00    +0.000 OA
ATOM      2  O   UNL     1     103.317 123.007 145.215  0.00  0.00    +0.000 OA
ATOM      3  O   UNL     1     104.564 123.615 144.822  0.00  0.00    +0.000 OA
ATOM      4  O   UNL     1     102.183 123.658 147.827  0.00  0.00    +0.000 OA
ATOM      5  C   UNL     1     104.014 123.936 146.100  0.00  0.00    +0.000 A 
ATOM      6  C   UNL     1     104.059 124.347 146.814  0.00  0.00    +0.000 A 
ATOM      7  C   UNL     1     105.294 124.935 146.399  0.00  0.00    +0.000 A 
ATOM      8  C   UNL     1     105.249 124.524 145.685  0.00  0.00    +0.000 A 
ATOM      9  C   UNL     1     104.609 124.025 145.536  0.00  0.00    +0.000 A 
ATOM     10  C   UNL     1     103.353 123.413 145.932  0.00  0.00    +0.000 A 
ATOM     11  C   UNL     1     103.445 124.263 147.410  0.00  0.00    +0.000 A 
ATOM     12  C   UNL     1     102.730 123.317 146.516  0.00  0.00    +0.000 A 
ATOM     13  C   UNL     1     102.777 123.744 147.260  0.00  0.00    +0.000 A 
ENDROOT
BRANCH   7  15
ATOM     14  O   UNL     1     107.849 126.934 146.999  0.00  0.00    +0.000 OA
ATOM     15  C   UNL     1     105.933 125.434 146.549  0.00  0.00    +0.000 A 
ATOM     16  C   UNL     1     106.613 125.137 146.909  0.00  0.00    +0.000 A 
ATOM     17  C   UNL     1     105.891 126.231 146.339  0.00  0.00    +0.000 A 
ATOM     18  C   UNL     1     107.252 125.638 147.059  0.00  0.00    +0.000 A 
ATOM     19  C   UNL     1     106.530 126.731 146.490  0.00  0.00    +0.000 A 
ATOM     20  C   UNL     1     107.211 126.434 146.849  0.00  0.00    +0.000 A 
BRANCH  18  21
ATOM     21  O   UNL     1     107.932 125.341 147.419  0.00  0.00    +0.000 OA
ATOM     22  C   UNL     1     107.875 124.915 148.123  0.00  0.00    +0.000 C 
ENDBRANCH  18  21
ENDBRANCH   7  15
BRANCH   8  23
ATOM     23  O   UNL     1     105.844 124.613 145.121  0.00  0.00    +0.000 OA
ATOM     24  C   UNL     1     105.671 124.511 144.321  0.00  0.00    +0.000 C 
ENDBRANCH   8  23
BRANCH  12  25
ATOM     25  O   UNL     1     102.092 122.817 146.364  0.00  0.00    +0.000 OA
ATOM     26  C   UNL     1     101.374 123.132 146.107  0.00  0.00    +0.000 C 
ENDBRANCH  12  25
TORSDOF 4
ENDMDL
MODEL 3
REMARK VINA RESULT:      -8.1      1.115      4.659
REMARK  Name = 5464461
REMARK  4 active torsions:
REMARK  status: ('A' for Active; 'I' for Inactive)
REMARK    1  A    between atoms: O_2  and  C_12
REMARK    2  A    between atoms: O_3  and  C_17
REMARK    3  A    between atoms: O_7  and  C_21
REMARK    4  A    between atoms: C_11  and  C_14
REMARK                            x       y       z     vdW  Elec       q    Type
REMARK                         _______ _______ _______ _____ _____    ______ ____
ROOT
ATOM      1  O   UNL     1     104.828 124.232 146.633  0.00  0.00    +0.000 OA
ATOM      2  O   UNL     1     102.172 124.139 147.767  0.00  0.00    +0.000 OA
ATOM      3  O   UNL     1     103.234 124.868 148.416  0.00  0.00    +0.000 OA
ATOM      4  O   UNL     1     102.734 122.740 145.266  0.00  0.00    +0.000 OA
ATOM      5  C   UNL     1     103.514 124.185 147.193  0.00  0.00    +0.000 A 
ATOM      6  C   UNL     1     104.045 123.974 146.599  0.00  0.00    +0.000 A 
ATOM      7  C   UNL     1     105.079 124.704 147.262  0.00  0.00    +0.000 A 
ATOM      8  C   UNL     1     104.548 124.915 147.857  0.00  0.00    +0.000 A 
ATOM      9  C   UNL     1     103.765 124.656 147.822  0.00  0.00    +0.000 A 
ATOM     10  C   UNL     1     102.696 123.922 147.168  0.00  0.00    +0.000 A 
ATOM     11  C   UNL     1     103.795 123.483 145.938  0.00  0.00    +0.000 A 
ATOM     12  C   UNL     1     102.429 123.431 146.516  0.00  0.00    +0.000 A 
ATOM     13  C   UNL     1     102.982 123.211 145.897  0.00  0.00    +0.000 A 
ENDROOT
BRANCH   7  15
ATOM     14  O   UNL     1     108.210 125.737 147.400  0.00  0.00    +0.000 OA
ATOM     15  C   UNL     1     105.861 124.962 147.296  0.00  0.00    +0.000 A 
ATOM     16  C   UNL     1     106.118 125.568 146.798  0.00  0.00    +0.000 A 
ATOM     17  C   UNL     1     106.388 124.614 147.829  0.00  0.00    +0.000 A 
ATOM     18  C   UNL     1     106.901 125.826 146.833  0.00  0.00    +0.000 A 
ATOM     19  C   UNL     1     107.170 124.873 147.863  0.00  0.00    +0.000 A 
ATOM     20  C   UNL     1     107.427 125.479 147.365  0.00  0.00    +0.000 A 
BRANCH  18  21
ATOM     21  O   UNL     1     107.158 126.431 146.336  0.00  0.00    +0.000 OA
ATOM     22  C   UNL     1     106.694 127.105 146.231  0.00  0.00    +0.000 C 
ENDBRANCH  18  21
ENDBRANCH   7  15
BRANCH   8  23
ATOM     23  O   UNL     1     104.799 125.386 148.486  0.00  0.00    +0.000 OA
ATOM     24  C   UNL     1     104.262 125.881 148.870  0.00  0.00    +0.000 C 
ENDBRANCH   8  23
BRANCH  12  25
ATOM     25  O   UNL     1     101.645 123.174 146.484  0.00  0.00    +0.000 OA
ATOM     26  C   UNL     1     101.110 123.543 145.975  0.00  0.00    +0.000 C 
ENDBRANCH  12  25
TORSDOF 4
ENDMDL
MODEL 4
REMARK VINA RESULT:      -8.1      6.920      8.168
REMARK  Name = 5464461
REMARK  4 active torsions:
REMARK  status: ('A' for Active; 'I' for Inactive)
REMARK    1  A    between atoms: O_2  and  C_12
REMARK    2  A    between atoms: O_3  and  C_17
REMARK    3  A    between atoms: O_7  and  C_21
REMARK    4  A    between atoms: C_11  and  C_14
REMARK                            x       y       z     vdW  Elec       q    Type
REMARK                         _______ _______ _______ _____ _____    ______ ____
ROOT
ATOM      1  O   UNL     1     103.394 130.162 142.311  0.00  0.00    +0.000 OA
ATOM      2  O   UNL     1     104.278 127.776 140.942  0.00  0.00    +0.000 OA
ATOM      3  O   UNL     1     103.348 128.688 140.323  0.00  0.00    +0.000 OA
ATOM      4  O   UNL     1     105.274 128.367 143.624  0.00  0.00    +0.000 OA
ATOM      5  C   UNL     1     103.832 128.982 141.635  0.00  0.00    +0.000 A 
ATOM      6  C   UNL     1     103.847 129.473 142.297  0.00  0.00    +0.000 A 
ATOM      7  C   UNL     1     102.925 130.360 141.661  0.00  0.00    +0.000 A 
ATOM      8  C   UNL     1     102.909 129.869 140.998  0.00  0.00    +0.000 A 
ATOM      9  C   UNL     1     103.363 129.180 140.986  0.00  0.00    +0.000 A 
ATOM     10  C   UNL     1     104.300 128.261 141.609  0.00  0.00    +0.000 A 
ATOM     11  C   UNL     1     104.332 129.278 142.980  0.00  0.00    +0.000 A 
ATOM     12  C   UNL     1     104.790 128.050 142.282  0.00  0.00    +0.000 A 
ATOM     13  C   UNL     1     104.806 128.562 142.972  0.00  0.00    +0.000 A 
ENDROOT
BRANCH   7  15
ATOM     14  O   UNL     1     101.110 133.116 141.717  0.00  0.00    +0.000 OA
ATOM     15  C   UNL     1     102.472 131.049 141.675  0.00  0.00    +0.000 A 
ATOM     16  C   UNL     1     102.795 131.762 141.413  0.00  0.00    +0.000 A 
ATOM     17  C   UNL     1     101.694 131.026 141.951  0.00  0.00    +0.000 A 
ATOM     18  C   UNL     1     102.341 132.450 141.427  0.00  0.00    +0.000 A 
ATOM     19  C   UNL     1     101.241 131.715 141.964  0.00  0.00    +0.000 A 
ATOM     20  C   UNL     1     101.564 132.427 141.703  0.00  0.00    +0.000 A 
BRANCH  18  21
ATOM     21  O   UNL     1     102.664 133.163 141.165  0.00  0.00    +0.000 OA
ATOM     22  C   UNL     1     103.454 133.341 141.324  0.00  0.00    +0.000 C 
ENDBRANCH  18  21
ENDBRANCH   7  15
BRANCH   8  23
ATOM     23  O   UNL     1     102.441 130.067 140.349  0.00  0.00    +0.000 OA
ATOM     24  C   UNL     1     102.256 129.494 139.785  0.00  0.00    +0.000 C 
ENDBRANCH   8  23
BRANCH  12  25
ATOM     25  O   UNL     1     105.242 127.361 142.266  0.00  0.00    +0.000 OA
ATOM     26  C   UNL     1     106.050 127.401 142.102  0.00  0.00    +0.000 C 
ENDBRANCH  12  25
TORSDOF 4
ENDMDL
MODEL 5
REMARK VINA RESULT:      -7.9      2.580      4.330
REMARK  Name = 5464461
REMARK  4 active torsions:
REMARK  status: ('A' for Active; 'I' for Inactive)
REMARK    1  A    between atoms: O_2  and  C_12
REMARK    2  A    between atoms: O_3  and  C_17
REMARK    3  A    between atoms: O_7  and  C_21
REMARK    4  A    between atoms: C_11  and  C_14
REMARK                            x       y       z     vdW  Elec       q    Type
REMARK                         _______ _______ _______ _____ _____    ______ ____
ROOT
ATOM      1  O   UNL     1     106.509 124.930 146.033  0.00  0.00    +0.000 OA
ATOM      2  O   UNL     1     105.924 127.148 144.277  0.00  0.00    +0.000 OA
ATOM      3  O   UNL     1     106.422 127.367 145.613  0.00  0.00    +0.000 OA
ATOM      4  O   UNL     1     105.506 124.410 143.349  0.00  0.00    +0.000 OA
ATOM      5  C   UNL     1     106.219 126.026 145.164  0.00  0.00    +0.000 A 
ATOM      6  C   UNL     1     106.248 125.214 145.304  0.00  0.00    +0.000 A 
ATOM      7  C   UNL     1     106.741 125.459 146.623  0.00  0.00    +0.000 A 
ATOM      8  C   UNL     1     106.712 126.271 146.483  0.00  0.00    +0.000 A 
ATOM      9  C   UNL     1     106.451 126.555 145.753  0.00  0.00    +0.000 A 
ATOM     10  C   UNL     1     105.949 126.334 144.408  0.00  0.00    +0.000 A 
ATOM     11  C   UNL     1     106.010 124.653 144.698  0.00  0.00    +0.000 A 
ATOM     12  C   UNL     1     105.707 125.788 143.791  0.00  0.00    +0.000 A 
ATOM     13  C   UNL     1     105.737 124.942 143.937  0.00  0.00    +0.000 A 
ENDROOT
BRANCH   7  15
ATOM     14  O   UNL     1     107.787 124.322 149.540  0.00  0.00    +0.000 OA
ATOM     15  C   UNL     1     107.002 125.175 147.352  0.00  0.00    +0.000 A 
ATOM     16  C   UNL     1     106.457 124.897 147.906  0.00  0.00    +0.000 A 
ATOM     17  C   UNL     1     107.809 125.168 147.528  0.00  0.00    +0.000 A 
ATOM     18  C   UNL     1     106.719 124.613 148.635  0.00  0.00    +0.000 A 
ATOM     19  C   UNL     1     108.069 124.884 148.257  0.00  0.00    +0.000 A 
ATOM     20  C   UNL     1     107.525 124.606 148.810  0.00  0.00    +0.000 A 
BRANCH  18  21
ATOM     21  O   UNL     1     106.174 124.335 149.189  0.00  0.00    +0.000 OA
ATOM     22  C   UNL     1     105.454 124.724 149.290  0.00  0.00    +0.000 C 
ENDBRANCH  18  21
ENDBRANCH   7  15
BRANCH   8  23
ATOM     23  O   UNL     1     106.943 126.800 147.072  0.00  0.00    +0.000 OA
ATOM     24  C   UNL     1     106.679 127.581 147.052  0.00  0.00    +0.000 C 
ENDBRANCH   8  23
BRANCH  12  25
ATOM     25  O   UNL     1     105.446 126.075 143.062  0.00  0.00    +0.000 OA
ATOM     26  C   UNL     1     105.955 126.075 142.413  0.00  0.00    +0.000 C 
ENDBRANCH  12  25
TORSDOF 4
ENDMDL
MODEL 6
REMARK VINA RESULT:      -7.8     12.297     14.018
REMARK  Name = 5464461
REMARK  4 active torsions:
REMARK  status: ('A' for Active; 'I' for Inactive)
REMARK    1  A    between atoms: O_2  and  C_12
REMARK    2  A    between atoms: O_3  and  C_17
REMARK    3  A    between atoms: O_7  and  C_21
REMARK    4  A    between atoms: C_11  and  C_14
REMARK                            x       y       z     vdW  Elec       q    Type
REMARK                         _______ _______ _______ _____ _____    ______ ____
ROOT
ATOM      1  O   UNL     1     113.481 126.955 136.587  0.00  0.00    +0.000 OA
ATOM      2  O   UNL     1     111.300 125.162 135.973  0.00  0.00    +0.000 OA
ATOM      3  O   UNL     1     111.169 126.586 135.785  0.00  0.00    +0.000 OA
ATOM      4  O   UNL     1     113.820 124.091 136.991  0.00  0.00    +0.000 OA
ATOM      5  C   UNL     1     112.403 126.068 136.284  0.00  0.00    +0.000 A 
ATOM      6  C   UNL     1     113.174 126.191 136.551  0.00  0.00    +0.000 A 
ATOM      7  C   UNL     1     113.016 127.598 136.356  0.00  0.00    +0.000 A 
ATOM      8  C   UNL     1     112.246 127.474 136.089  0.00  0.00    +0.000 A 
ATOM      9  C   UNL     1     111.940 126.709 136.053  0.00  0.00    +0.000 A 
ATOM     10  C   UNL     1     112.072 125.275 136.241  0.00  0.00    +0.000 A 
ATOM     11  C   UNL     1     113.667 125.530 136.794  0.00  0.00    +0.000 A 
ATOM     12  C   UNL     1     112.551 124.603 136.481  0.00  0.00    +0.000 A 
ATOM     13  C   UNL     1     113.353 124.731 136.759  0.00  0.00    +0.000 A 
ENDROOT
BRANCH   7  15
ATOM     14  O   UNL     1     114.245 130.657 136.504  0.00  0.00    +0.000 OA
ATOM     15  C   UNL     1     113.324 128.362 136.392  0.00  0.00    +0.000 A 
ATOM     16  C   UNL     1     113.764 128.661 135.762  0.00  0.00    +0.000 A 
ATOM     17  C   UNL     1     113.191 128.829 137.061  0.00  0.00    +0.000 A 
ATOM     18  C   UNL     1     114.071 129.426 135.799  0.00  0.00    +0.000 A 
ATOM     19  C   UNL     1     113.498 129.593 137.097  0.00  0.00    +0.000 A 
ATOM     20  C   UNL     1     113.938 129.892 136.466  0.00  0.00    +0.000 A 
BRANCH  18  21
ATOM     21  O   UNL     1     114.510 129.725 135.168  0.00  0.00    +0.000 OA
ATOM     22  C   UNL     1     114.924 129.211 134.673  0.00  0.00    +0.000 C 
ENDBRANCH  18  21
ENDBRANCH   7  15
BRANCH   8  23
ATOM     23  O   UNL     1     111.782 128.116 135.858  0.00  0.00    +0.000 OA
ATOM     24  C   UNL     1     111.156 128.004 135.333  0.00  0.00    +0.000 C 
ENDBRANCH   8  23
BRANCH  12  25
ATOM     25  O   UNL     1     112.241 123.839 136.444  0.00  0.00    +0.000 OA
ATOM     26  C   UNL     1     111.950 123.478 137.126  0.00  0.00    +0.000 C 
ENDBRANCH  12  25
TORSDOF 4
ENDMDL
MODEL 7
REMARK VINA RESULT:      -7.7     11.623     13.518
REMARK  Name = 5464461
REMARK  4 active torsions:
REMARK  status: ('A' for Active; 'I' for Inactive)
REMARK    1  A    between atoms: O_2  and  C_12
REMARK    2  A    between atoms: O_3  and  C_17
REMARK    3  A    between atoms: O_7  and  C_21
REMARK    4  A    between atoms: C_11  and  C_14
REMARK                            x       y       z     vdW  Elec       q    Type
REMARK                         _______ _______ _______ _____ _____    ______ ____
ROOT
ATOM      1  O   UNL     1     113.466 127.257 136.249  0.00  0.00    +0.000 OA
ATOM      2  O   UNL     1     113.227 129.741 137.705  0.00  0.00    +0.000 OA
ATOM      3  O   UNL     1     112.984 128.474 138.350  0.00  0.00    +0.000 OA
ATOM      4  O   UNL     1     113.973 129.777 134.881  0.00  0.00    +0.000 OA
ATOM      5  C   UNL     1     113.348 128.486 136.969  0.00  0.00    +0.000 A 
ATOM      6  C   UNL     1     113.509 128.080 136.269  0.00  0.00    +0.000 A 
ATOM      7  C   UNL     1     113.262 126.839 136.932  0.00  0.00    +0.000 A 
ATOM      8  C   UNL     1     113.102 127.244 137.632  0.00  0.00    +0.000 A 
ATOM      9  C   UNL     1     113.145 128.068 137.650  0.00  0.00    +0.000 A 
ATOM     10  C   UNL     1     113.390 129.344 137.000  0.00  0.00    +0.000 A 
ATOM     11  C   UNL     1     113.722 128.504 135.552  0.00  0.00    +0.000 A 
ATOM     12  C   UNL     1     113.601 129.784 136.294  0.00  0.00    +0.000 A 
ATOM     13  C   UNL     1     113.769 129.362 135.565  0.00  0.00    +0.000 A 
ENDROOT
BRANCH   7  15
ATOM     14  O   UNL     1     113.094 123.544 136.856  0.00  0.00    +0.000 OA
ATOM     15  C   UNL     1     113.220 126.015 136.913  0.00  0.00    +0.000 A 
ATOM     16  C   UNL     1     112.526 125.643 136.666  0.00  0.00    +0.000 A 
ATOM     17  C   UNL     1     113.872 125.563 137.140  0.00  0.00    +0.000 A 
ATOM     18  C   UNL     1     112.484 124.819 136.648  0.00  0.00    +0.000 A 
ATOM     19  C   UNL     1     113.829 124.739 137.121  0.00  0.00    +0.000 A 
ATOM     20  C   UNL     1     113.135 124.368 136.875  0.00  0.00    +0.000 A 
BRANCH  18  21
ATOM     21  O   UNL     1     111.790 124.447 136.401  0.00  0.00    +0.000 OA
ATOM     22  C   UNL     1     111.225 124.869 135.974  0.00  0.00    +0.000 C 
ENDBRANCH  18  21
ENDBRANCH   7  15
BRANCH   8  23
ATOM     23  O   UNL     1     112.898 126.827 138.313  0.00  0.00    +0.000 OA
ATOM     24  C   UNL     1     112.479 127.201 138.917  0.00  0.00    +0.000 C 
ENDBRANCH   8  23
BRANCH  12  25
ATOM     25  O   UNL     1     113.644 130.608 136.315  0.00  0.00    +0.000 OA
ATOM     26  C   UNL     1     114.378 130.983 136.344  0.00  0.00    +0.000 C 
ENDBRANCH  12  25
TORSDOF 4
ENDMDL
MODEL 8
REMARK VINA RESULT:      -7.7     11.907     13.524
REMARK  Name = 5464461
REMARK  4 active torsions:
REMARK  status: ('A' for Active; 'I' for Inactive)
REMARK    1  A    between atoms: O_2  and  C_12
REMARK    2  A    between atoms: O_3  and  C_17
REMARK    3  A    between atoms: O_7  and  C_21
REMARK    4  A    between atoms: C_11  and  C_14
REMARK                            x       y       z     vdW  Elec       q    Type
REMARK                         _______ _______ _______ _____ _____    ______ ____
ROOT
ATOM      1  O   UNL     1     112.618 127.386 136.238  0.00  0.00    +0.000 OA
ATOM      2  O   UNL     1     110.052 127.302 134.911  0.00  0.00    +0.000 OA
ATOM      3  O   UNL     1     110.643 126.109 135.466  0.00  0.00    +0.000 OA
ATOM      4  O   UNL     1     111.488 129.836 135.142  0.00  0.00    +0.000 OA
ATOM      5  C   UNL     1     111.349 127.345 135.581  0.00  0.00    +0.000 A 
ATOM      6  C   UNL     1     112.008 127.771 135.839  0.00  0.00    +0.000 A 
ATOM      7  C   UNL     1     112.570 126.574 136.379  0.00  0.00    +0.000 A 
ATOM      8  C   UNL     1     111.912 126.148 136.122  0.00  0.00    +0.000 A 
ATOM      9  C   UNL     1     111.302 126.535 135.723  0.00  0.00    +0.000 A 
ATOM     10  C   UNL     1     110.707 127.736 135.165  0.00  0.00    +0.000 A 
ATOM     11  C   UNL     1     112.069 128.617 135.697  0.00  0.00    +0.000 A 
ATOM     12  C   UNL     1     110.751 128.581 135.014  0.00  0.00    +0.000 A 
ATOM     13  C   UNL     1     111.436 129.024 135.282  0.00  0.00    +0.000 A 
ENDROOT
BRANCH   7  15
ATOM     14  O   UNL     1     115.014 125.032 137.973  0.00  0.00    +0.000 OA
ATOM     15  C   UNL     1     113.181 126.189 136.778  0.00  0.00    +0.000 A 
ATOM     16  C   UNL     1     113.239 126.247 137.599  0.00  0.00    +0.000 A 
ATOM     17  C   UNL     1     113.734 125.744 136.356  0.00  0.00    +0.000 A 
ATOM     18  C   UNL     1     113.851 125.861 137.997  0.00  0.00    +0.000 A 
ATOM     19  C   UNL     1     114.344 125.359 136.754  0.00  0.00    +0.000 A 
ATOM     20  C   UNL     1     114.403 125.418 137.575  0.00  0.00    +0.000 A 
BRANCH  18  21
ATOM     21  O   UNL     1     113.909 125.920 138.818  0.00  0.00    +0.000 OA
ATOM     22  C   UNL     1     113.501 126.513 139.220  0.00  0.00    +0.000 C 
ENDBRANCH  18  21
ENDBRANCH   7  15
BRANCH   8  23
ATOM     23  O   UNL     1     111.864 125.337 136.264  0.00  0.00    +0.000 OA
ATOM     24  C   UNL     1     111.132 124.958 136.246  0.00  0.00    +0.000 C 
ENDBRANCH   8  23
BRANCH  12  25
ATOM     25  O   UNL     1     110.139 128.964 134.615  0.00  0.00    +0.000 OA
ATOM     26  C   UNL     1     109.641 129.480 135.022  0.00  0.00    +0.000 C 
ENDBRANCH  12  25
TORSDOF 4
ENDMDL
MODEL 9
REMARK VINA RESULT:      -7.7     10.504     12.695
REMARK  Name = 5464461
REMARK  4 active torsions:
REMARK  status: ('A' for Active; 'I' for Inactive)
REMARK    1  A    between atoms: O_2  and  C_12
REMARK    2  A    between atoms: O_3  and  C_17
REMARK    3  A    between atoms: O_7  and  C_21
REMARK    4  A    between atoms: C_11  and  C_14
REMARK                            x       y       z     vdW  Elec       q    Type
REMARK                         _______ _______ _______ _____ _____    ______ ____
ROOT
ATOM      1  O   UNL     1     110.009 127.024 136.219  0.00  0.00    +0.000 OA
ATOM      2  O   UNL     1     110.725 129.622 135.178  0.00  0.00    +0.000 OA
ATOM      3  O   UNL     1     111.730 128.622 135.438  0.00  0.00    +0.000 OA
ATOM      4  O   UNL     1     107.924 128.994 135.717  0.00  0.00    +0.000 OA
ATOM      5  C   UNL     1     110.362 128.309 135.704  0.00  0.00    +0.000 A 
ATOM      6  C   UNL     1     109.788 127.777 135.964  0.00  0.00    +0.000 A 
ATOM      7  C   UNL     1     110.805 126.804 136.213  0.00  0.00    +0.000 A 
ATOM      8  C   UNL     1     111.378 127.336 135.953  0.00  0.00    +0.000 A 
ATOM      9  C   UNL     1     111.156 128.089 135.698  0.00  0.00    +0.000 A 
ATOM     10  C   UNL     1     110.144 129.097 135.436  0.00  0.00    +0.000 A 
ATOM     11  C   UNL     1     108.957 127.994 135.974  0.00  0.00    +0.000 A 
ATOM     12  C   UNL     1     109.318 129.332 135.440  0.00  0.00    +0.000 A 
ATOM     13  C   UNL     1     108.720 128.777 135.710  0.00  0.00    +0.000 A 
ENDROOT
BRANCH   7  15
ATOM     14  O   UNL     1     111.688 123.791 137.230  0.00  0.00    +0.000 OA
ATOM     15  C   UNL     1     111.025 126.051 136.468  0.00  0.00    +0.000 A 
ATOM     16  C   UNL     1     111.090 125.890 137.274  0.00  0.00    +0.000 A 
ATOM     17  C   UNL     1     111.182 125.458 135.915  0.00  0.00    +0.000 A 
ATOM     18  C   UNL     1     111.310 125.136 137.528  0.00  0.00    +0.000 A 
ATOM     19  C   UNL     1     111.402 124.705 136.169  0.00  0.00    +0.000 A 
ATOM     20  C   UNL     1     111.467 124.544 136.976  0.00  0.00    +0.000 A 
BRANCH  18  21
ATOM     21  O   UNL     1     111.375 124.975 138.335  0.00  0.00    +0.000 OA
ATOM     22  C   UNL     1     110.988 125.455 138.883  0.00  0.00    +0.000 C 
ENDBRANCH  18  21
ENDBRANCH   7  15
BRANCH   8  23
ATOM     23  O   UNL     1     112.173 127.116 135.947  0.00  0.00    +0.000 OA
ATOM     24  C   UNL     1     112.759 127.685 136.060  0.00  0.00    +0.000 C 
ENDBRANCH   8  23
BRANCH  12  25
ATOM     25  O   UNL     1     109.099 130.085 135.184  0.00  0.00    +0.000 OA
ATOM     26  C   UNL     1     108.910 130.669 135.736  0.00  0.00    +0.000 C 
ENDBRANCH  12  25
TORSDOF 4
ENDMDL
MODEL 10
REMARK VINA RESULT:      -7.7      1.638      2.177
REMARK  Name = 5464461
REMARK  4 active torsions:
REMARK  status: ('A' for Active; 'I' for Inactive)
REMARK    1  A    between atoms: O_2  and  C_12
REMARK    2  A    between atoms: O_3  and  C_17
REMARK    3  A    between atoms: O_7  and  C_21
REMARK    4  A    between atoms: C_11  and  C_14
REMARK                            x       y       z     vdW  Elec       q    Type
REMARK                         _______ _______ _______ _____ _____    ______ ____
ROOT
ATOM      1  O   UNL     1     103.874 125.019 146.932  0.00  0.00    +0.000 OA
ATOM      2  O   UNL     1     105.974 124.497 145.017  0.00  0.00    +0.000 OA
ATOM      3  O   UNL     1     104.891 123.564 145.207  0.00  0.00    +0.000 OA
ATOM      4  O   UNL     1     106.029 126.949 146.603  0.00  0.00    +0.000 OA
ATOM      5  C   UNL     1     104.913 124.761 145.985  0.00  0.00    +0.000 A 
ATOM      6  C   UNL     1     104.574 125.246 146.560  0.00  0.00    +0.000 A 
ATOM      7  C   UNL     1     103.513 124.305 146.728  0.00  0.00    +0.000 A 
ATOM      8  C   UNL     1     103.852 123.820 146.153  0.00  0.00    +0.000 A 
ATOM      9  C   UNL     1     104.552 124.049 145.782  0.00  0.00    +0.000 A 
ATOM     10  C   UNL     1     105.643 124.988 145.591  0.00  0.00    +0.000 A 
ATOM     11  C   UNL     1     104.941 125.992 146.780  0.00  0.00    +0.000 A 
ATOM     12  C   UNL     1     106.023 125.730 145.798  0.00  0.00    +0.000 A 
ATOM     13  C   UNL     1     105.671 126.235 146.397  0.00  0.00    +0.000 A 
ENDROOT
BRANCH   7  15
ATOM     14  O   UNL     1     100.710 123.395 148.214  0.00  0.00    +0.000 OA
ATOM     15  C   UNL     1     102.813 124.077 147.100  0.00  0.00    +0.000 A 
ATOM     16  C   UNL     1     102.837 123.721 147.844  0.00  0.00    +0.000 A 
ATOM     17  C   UNL     1     102.087 124.206 146.728  0.00  0.00    +0.000 A 
ATOM     18  C   UNL     1     102.136 123.493 148.215  0.00  0.00    +0.000 A 
ATOM     19  C   UNL     1     101.387 123.978 147.099  0.00  0.00    +0.000 A 
ATOM     20  C   UNL     1     101.411 123.622 147.843  0.00  0.00    +0.000 A 
BRANCH  18  21
ATOM     21  O   UNL     1     102.160 123.137 148.959  0.00  0.00    +0.000 OA
ATOM     22  C   UNL     1     102.544 123.513 149.584  0.00  0.00    +0.000 C 
ENDBRANCH  18  21
ENDBRANCH   7  15
BRANCH   8  23
ATOM     23  O   UNL     1     103.490 123.107 145.950  0.00  0.00    +0.000 OA
ATOM     24  C   UNL     1     103.677 122.739 145.236  0.00  0.00    +0.000 C 
ENDBRANCH   8  23
BRANCH  12  25
ATOM     25  O   UNL     1     106.724 125.956 145.425  0.00  0.00    +0.000 OA
ATOM     26  C   UNL     1     106.712 126.547 144.850  0.00  0.00    +0.000 C 
ENDBRANCH  12  25
TORSDOF 4
ENDMDL
