MODEL 1
REMARK VINA RESULT:     -11.3      0.000      0.000
REMARK  Name = 
REMARK  9 active torsions:
REMARK  status: ('A' for Active; 'I' for Inactive)
REMARK    1  A    between atoms: C_1  and  O_52
REMARK    2  A    between atoms: C_8  and  O_18
REMARK    3  A    between atoms: C_9  and  C_12
REMARK    4  A    between atoms: O_18  and  C_28
REMARK    5  A    between atoms: C_22  and  O_39
REMARK    6  A    between atoms: C_24  and  O_37
REMARK    7  A    between atoms: C_30  and  C_36
REMARK    8  A    between atoms: C_36  and  O_37
REMARK    9  A    between atoms: O_39  and  C_46
REMARK                            x       y       z     vdW  Elec       q    Type
REMARK                         _______ _______ _______ _____ _____    ______ ____
ROOT
ATOM      1  C   UNL     1     108.062 127.933 142.069  0.00  0.00    +0.000 C 
ATOM      2  C   UNL     1     108.030 128.115 141.019  0.00  0.00    +0.000 C 
ATOM      3  O   UNL     1     107.535 127.460 141.699  0.00  0.00    +0.000 OA
ATOM      4  C   UNL     1     106.817 126.681 141.852  0.00  0.00    +0.000 C 
ATOM      5  C   UNL     1     106.849 126.499 142.902  0.00  0.00    +0.000 C 
ATOM      6  C   UNL     1     107.344 127.154 142.223  0.00  0.00    +0.000 C 
ATOM      7  O   UNL     1     108.547 128.570 141.428  0.00  0.00    +0.000 OA
ATOM      8  O   UNL     1     107.370 127.010 143.055  0.00  0.00    +0.000 OA
ATOM      9  O   UNL     1     107.256 126.722 143.878  0.00  0.00    +0.000 OA
ENDROOT
BRANCH   2  10
ATOM     10  O   UNL     1     108.951 129.149 140.658  0.00  0.00    +0.000 OA
BRANCH  10  18
ATOM     11  C   UNL     1     109.947 131.853 137.243  0.00  0.00    +0.000 A 
ATOM     12  C   UNL     1     109.022 132.055 137.622  0.00  0.00    +0.000 A 
ATOM     13  C   UNL     1     108.663 131.513 138.408  0.00  0.00    +0.000 A 
ATOM     14  C   UNL     1     109.230 130.769 138.814  0.00  0.00    +0.000 A 
ATOM     15  C   UNL     1     110.155 130.567 138.435  0.00  0.00    +0.000 A 
ATOM     16  C   UNL     1     110.513 131.109 137.650  0.00  0.00    +0.000 A 
ATOM     17  C   UNL     1     108.871 130.227 139.600  0.00  0.00    +0.000 A 
ATOM     18  C   UNL     1     109.437 129.483 140.006  0.00  0.00    +0.000 A 
ATOM     19  C   UNL     1     110.362 129.280 139.627  0.00  0.00    +0.000 A 
ATOM     20  O   UNL     1     110.720 129.823 138.842  0.00  0.00    +0.000 OA
ATOM     21  O   UNL     1     108.150 130.384 139.895  0.00  0.00    +0.000 OA
ATOM     22  O   UNL     1     107.739 131.715 138.787  0.00  0.00    +0.000 OA
BRANCH  19  23
ATOM     23  C   UNL     1     110.927 128.536 140.034  0.00  0.00    +0.000 A 
ATOM     24  C   UNL     1     110.907 127.582 139.622  0.00  0.00    +0.000 A 
ATOM     25  C   UNL     1     111.483 126.824 140.037  0.00  0.00    +0.000 A 
ATOM     26  C   UNL     1     112.081 127.020 140.864  0.00  0.00    +0.000 A 
ATOM     27  C   UNL     1     112.102 127.974 141.276  0.00  0.00    +0.000 A 
ATOM     28  C   UNL     1     111.525 128.732 140.861  0.00  0.00    +0.000 A 
ATOM     29  O   UNL     1     112.726 126.172 141.328  0.00  0.00    +0.000 OA
ENDBRANCH  19  23
BRANCH  11  30
ATOM     30  O   UNL     1     110.339 132.282 136.553  0.00  0.00    +0.000 OA
ATOM     31  C   UNL     1     110.336 133.196 136.627  0.00  0.00    +0.000 C 
ENDBRANCH  11  30
ENDBRANCH  10  18
ENDBRANCH   2  10
BRANCH   4  32
ATOM     32  C   UNL     1     106.239 125.998 142.249  0.00  0.00    +0.000 C 
BRANCH  32  33
ATOM     33  O   UNL     1     105.998 126.006 141.472  0.00  0.00    +0.000 OA
BRANCH  33  38
ATOM     34  C   UNL     1     105.649 124.037 140.834  0.00  0.00    +0.000 C 
ATOM     35  C   UNL     1     105.133 123.496 140.074  0.00  0.00    +0.000 C 
ATOM     36  C   UNL     1     105.260 124.522 140.332  0.00  0.00    +0.000 C 
ATOM     37  C   UNL     1     105.045 125.550 140.114  0.00  0.00    +0.000 C 
ATOM     38  C   UNL     1     105.561 126.091 140.873  0.00  0.00    +0.000 C 
ATOM     39  O   UNL     1     105.434 125.064 140.616  0.00  0.00    +0.000 OA
ATOM     40  C   UNL     1     105.546 123.131 140.619  0.00  0.00    +0.000 C 
ATOM     41  O   UNL     1     105.092 122.817 139.964  0.00  0.00    +0.000 OA
ATOM     42  O   UNL     1     104.519 125.541 139.385  0.00  0.00    +0.000 OA
BRANCH  36  43
ATOM     43  O   UNL     1     104.785 124.025 139.634  0.00  0.00    +0.000 OA
BRANCH  43  48
ATOM     44  C   UNL     1     103.068 123.745 139.105  0.00  0.00    +0.000 C 
ATOM     45  C   UNL     1     102.463 123.514 138.259  0.00  0.00    +0.000 C 
ATOM     46  C   UNL     1     103.504 123.655 138.441  0.00  0.00    +0.000 C 
ATOM     47  C   UNL     1     104.502 123.677 138.051  0.00  0.00    +0.000 C 
ATOM     48  C   UNL     1     105.107 123.909 138.898  0.00  0.00    +0.000 C 
ATOM     49  O   UNL     1     104.066 123.767 138.715  0.00  0.00    +0.000 OA
ATOM     50  C   UNL     1     102.246 123.637 138.975  0.00  0.00    +0.000 C 
ATOM     51  O   UNL     1     101.872 123.388 137.931  0.00  0.00    +0.000 OA
ATOM     52  O   UNL     1     102.948 123.442 137.663  0.00  0.00    +0.000 OA
ATOM     53  O   UNL     1     104.428 123.492 137.175  0.00  0.00    +0.000 OA
ENDBRANCH  43  48
ENDBRANCH  36  43
ENDBRANCH  33  38
ENDBRANCH  32  33
ENDBRANCH   4  32
TORSDOF 9
ENDMDL
MODEL 2
REMARK VINA RESULT:     -10.8      3.446      7.813
REMARK  Name = 
REMARK  9 active torsions:
REMARK  status: ('A' for Active; 'I' for Inactive)
REMARK    1  A    between atoms: C_1  and  O_52
REMARK    2  A    between atoms: C_8  and  O_18
REMARK    3  A    between atoms: C_9  and  C_12
REMARK    4  A    between atoms: O_18  and  C_28
REMARK    5  A    between atoms: C_22  and  O_39
REMARK    6  A    between atoms: C_24  and  O_37
REMARK    7  A    between atoms: C_30  and  C_36
REMARK    8  A    between atoms: C_36  and  O_37
REMARK    9  A    between atoms: O_39  and  C_46
REMARK                            x       y       z     vdW  Elec       q    Type
REMARK                         _______ _______ _______ _____ _____    ______ ____
ROOT
ATOM      1  C   UNL     1     107.114 126.150 141.682  0.00  0.00    +0.000 C 
ATOM      2  C   UNL     1     106.999 127.207 141.756  0.00  0.00    +0.000 C 
ATOM      3  O   UNL     1     107.771 126.540 141.447  0.00  0.00    +0.000 OA
ATOM      4  C   UNL     1     108.766 126.412 141.071  0.00  0.00    +0.000 C 
ATOM      5  C   UNL     1     108.881 125.355 140.997  0.00  0.00    +0.000 C 
ATOM      6  C   UNL     1     108.109 126.020 141.305  0.00  0.00    +0.000 C 
ATOM      7  O   UNL     1     106.362 126.778 141.982  0.00  0.00    +0.000 OA
ATOM      8  O   UNL     1     108.200 125.183 141.247  0.00  0.00    +0.000 OA
ATOM      9  O   UNL     1     108.479 124.359 141.118  0.00  0.00    +0.000 OA
ENDROOT
BRANCH   2  10
ATOM     10  O   UNL     1     105.699 127.539 142.253  0.00  0.00    +0.000 OA
BRANCH  10  18
ATOM     11  C   UNL     1     102.540 130.700 142.268  0.00  0.00    +0.000 A 
ATOM     12  C   UNL     1     102.607 130.243 141.359  0.00  0.00    +0.000 A 
ATOM     13  C   UNL     1     103.289 129.499 141.211  0.00  0.00    +0.000 A 
ATOM     14  C   UNL     1     103.903 129.212 141.972  0.00  0.00    +0.000 A 
ATOM     15  C   UNL     1     103.836 129.668 142.882  0.00  0.00    +0.000 A 
ATOM     16  C   UNL     1     103.154 130.412 143.029  0.00  0.00    +0.000 A 
ATOM     17  C   UNL     1     104.585 128.468 141.824  0.00  0.00    +0.000 A 
ATOM     18  C   UNL     1     105.199 128.180 142.586  0.00  0.00    +0.000 A 
ATOM     19  C   UNL     1     105.131 128.637 143.496  0.00  0.00    +0.000 A 
ATOM     20  O   UNL     1     104.450 129.380 143.643  0.00  0.00    +0.000 OA
ATOM     21  O   UNL     1     104.637 128.112 141.115  0.00  0.00    +0.000 OA
ATOM     22  O   UNL     1     103.356 129.043 140.302  0.00  0.00    +0.000 OA
BRANCH  19  23
ATOM     23  C   UNL     1     105.745 128.349 144.256  0.00  0.00    +0.000 A 
ATOM     24  C   UNL     1     106.623 128.873 144.444  0.00  0.00    +0.000 A 
ATOM     25  C   UNL     1     107.249 128.579 145.219  0.00  0.00    +0.000 A 
ATOM     26  C   UNL     1     106.997 127.761 145.808  0.00  0.00    +0.000 A 
ATOM     27  C   UNL     1     106.119 127.236 145.621  0.00  0.00    +0.000 A 
ATOM     28  C   UNL     1     105.494 127.531 144.845  0.00  0.00    +0.000 A 
ATOM     29  O   UNL     1     107.696 127.432 146.675  0.00  0.00    +0.000 OA
ENDBRANCH  19  23
BRANCH  11  30
ATOM     30  O   UNL     1     101.968 131.363 142.484  0.00  0.00    +0.000 OA
ATOM     31  C   UNL     1     101.425 131.631 141.795  0.00  0.00    +0.000 C 
ENDBRANCH  11  30
ENDBRANCH  10  18
ENDBRANCH   2  10
BRANCH   4  32
ATOM     32  C   UNL     1     109.606 126.033 140.745  0.00  0.00    +0.000 C 
BRANCH  32  33
ATOM     33  O   UNL     1     109.775 126.828 140.790  0.00  0.00    +0.000 OA
BRANCH  33  38
ATOM     34  C   UNL     1     111.807 127.126 141.221  0.00  0.00    +0.000 C 
ATOM     35  C   UNL     1     112.561 127.877 141.161  0.00  0.00    +0.000 C 
ATOM     36  C   UNL     1     111.527 127.808 140.913  0.00  0.00    +0.000 C 
ATOM     37  C   UNL     1     110.650 128.284 140.519  0.00  0.00    +0.000 C 
ATOM     38  C   UNL     1     109.897 127.532 140.580  0.00  0.00    +0.000 C 
ATOM     39  O   UNL     1     110.931 127.602 140.828  0.00  0.00    +0.000 OA
ATOM     40  C   UNL     1     112.716 127.172 141.444  0.00  0.00    +0.000 C 
ATOM     41  O   UNL     1     113.225 127.854 141.343  0.00  0.00    +0.000 OA
ATOM     42  O   UNL     1     110.902 129.118 140.299  0.00  0.00    +0.000 OA
BRANCH  36  43
ATOM     43  O   UNL     1     112.220 128.499 140.857  0.00  0.00    +0.000 OA
BRANCH  43  48
ATOM     44  C   UNL     1     113.071 129.442 139.557  0.00  0.00    +0.000 C 
ATOM     45  C   UNL     1     113.559 130.368 139.355  0.00  0.00    +0.000 C 
ATOM     46  C   UNL     1     113.082 129.921 140.197  0.00  0.00    +0.000 C 
ATOM     47  C   UNL     1     112.785 129.999 141.224  0.00  0.00    +0.000 C 
ATOM     48  C   UNL     1     112.297 129.073 141.425  0.00  0.00    +0.000 C 
ATOM     49  O   UNL     1     112.774 129.521 140.584  0.00  0.00    +0.000 OA
ATOM     50  C   UNL     1     113.444 129.783 138.887  0.00  0.00    +0.000 C 
ATOM     51  O   UNL     1     113.893 130.824 138.964  0.00  0.00    +0.000 OA
ATOM     52  O   UNL     1     113.530 130.772 140.012  0.00  0.00    +0.000 OA
ATOM     53  O   UNL     1     113.064 130.808 141.499  0.00  0.00    +0.000 OA
ENDBRANCH  43  48
ENDBRANCH  36  43
ENDBRANCH  33  38
ENDBRANCH  32  33
ENDBRANCH   4  32
TORSDOF 9
ENDMDL
MODEL 3
REMARK VINA RESULT:     -10.8      5.103      7.626
REMARK  Name = 
REMARK  9 active torsions:
REMARK  status: ('A' for Active; 'I' for Inactive)
REMARK    1  A    between atoms: C_1  and  O_52
REMARK    2  A    between atoms: C_8  and  O_18
REMARK    3  A    between atoms: C_9  and  C_12
REMARK    4  A    between atoms: O_18  and  C_28
REMARK    5  A    between atoms: C_22  and  O_39
REMARK    6  A    between atoms: C_24  and  O_37
REMARK    7  A    between atoms: C_30  and  C_36
REMARK    8  A    between atoms: C_36  and  O_37
REMARK    9  A    between atoms: O_39  and  C_46
REMARK                            x       y       z     vdW  Elec       q    Type
REMARK                         _______ _______ _______ _____ _____    ______ ____
ROOT
ATOM      1  C   UNL     1     110.882 131.275 139.550  0.00  0.00    +0.000 C 
ATOM      2  C   UNL     1     111.271 130.571 140.250  0.00  0.00    +0.000 C 
ATOM      3  O   UNL     1     111.135 130.606 139.193  0.00  0.00    +0.000 OA
ATOM      4  C   UNL     1     111.240 130.117 138.246  0.00  0.00    +0.000 C 
ATOM      5  C   UNL     1     110.852 130.821 137.546  0.00  0.00    +0.000 C 
ATOM      6  C   UNL     1     110.987 130.787 138.602  0.00  0.00    +0.000 C 
ATOM      7  O   UNL     1     111.006 131.257 140.567  0.00  0.00    +0.000 OA
ATOM      8  O   UNL     1     110.679 131.345 138.048  0.00  0.00    +0.000 OA
ATOM      9  O   UNL     1     110.406 131.782 137.335  0.00  0.00    +0.000 OA
ENDROOT
BRANCH   2  10
ATOM     10  O   UNL     1     111.195 131.091 141.581  0.00  0.00    +0.000 OA
BRANCH  10  18
ATOM     11  C   UNL     1     112.148 132.035 145.844  0.00  0.00    +0.000 A 
ATOM     12  C   UNL     1     112.080 132.882 145.280  0.00  0.00    +0.000 A 
ATOM     13  C   UNL     1     111.866 132.816 144.285  0.00  0.00    +0.000 A 
ATOM     14  C   UNL     1     111.722 131.904 143.854  0.00  0.00    +0.000 A 
ATOM     15  C   UNL     1     111.790 131.056 144.418  0.00  0.00    +0.000 A 
ATOM     16  C   UNL     1     112.004 131.123 145.412  0.00  0.00    +0.000 A 
ATOM     17  C   UNL     1     111.508 131.838 142.859  0.00  0.00    +0.000 A 
ATOM     18  C   UNL     1     111.364 130.925 142.428  0.00  0.00    +0.000 A 
ATOM     19  C   UNL     1     111.433 130.078 142.992  0.00  0.00    +0.000 A 
ATOM     20  O   UNL     1     111.646 130.145 143.986  0.00  0.00    +0.000 OA
ATOM     21  O   UNL     1     111.455 132.498 142.420  0.00  0.00    +0.000 OA
ATOM     22  O   UNL     1     111.798 133.663 143.722  0.00  0.00    +0.000 OA
BRANCH  19  23
ATOM     23  C   UNL     1     111.288 129.166 142.560  0.00  0.00    +0.000 A 
ATOM     24  C   UNL     1     112.100 128.620 142.213  0.00  0.00    +0.000 A 
ATOM     25  C   UNL     1     111.953 127.690 141.773  0.00  0.00    +0.000 A 
ATOM     26  C   UNL     1     110.992 127.307 141.680  0.00  0.00    +0.000 A 
ATOM     27  C   UNL     1     110.178 127.853 142.028  0.00  0.00    +0.000 A 
ATOM     28  C   UNL     1     110.327 128.783 142.468  0.00  0.00    +0.000 A 
ATOM     29  O   UNL     1     110.826 126.268 141.189  0.00  0.00    +0.000 OA
ENDBRANCH  19  23
BRANCH  11  30
ATOM     30  O   UNL     1     112.332 132.003 146.727  0.00  0.00    +0.000 OA
ATOM     31  C   UNL     1     113.214 132.147 146.933  0.00  0.00    +0.000 C 
ENDBRANCH  11  30
ENDBRANCH  10  18
ENDBRANCH   2  10
BRANCH   4  32
ATOM     32  C   UNL     1     111.226 129.902 137.292  0.00  0.00    +0.000 C 
BRANCH  32  33
ATOM     33  O   UNL     1     111.501 129.213 137.627  0.00  0.00    +0.000 OA
BRANCH  33  38
ATOM     34  C   UNL     1     113.030 128.276 136.535  0.00  0.00    +0.000 C 
ATOM     35  C   UNL     1     113.519 127.333 136.444  0.00  0.00    +0.000 C 
ATOM     36  C   UNL     1     112.731 127.733 137.040  0.00  0.00    +0.000 C 
ATOM     37  C   UNL     1     111.998 127.575 137.806  0.00  0.00    +0.000 C 
ATOM     38  C   UNL     1     111.509 128.518 137.897  0.00  0.00    +0.000 C 
ATOM     39  O   UNL     1     112.298 128.118 137.302  0.00  0.00    +0.000 OA
ATOM     40  C   UNL     1     113.725 127.938 136.005  0.00  0.00    +0.000 C 
ATOM     41  O   UNL     1     114.033 127.139 136.029  0.00  0.00    +0.000 OA
ATOM     42  O   UNL     1     112.090 126.718 138.061  0.00  0.00    +0.000 OA
BRANCH  36  43
ATOM     43  O   UNL     1     113.180 126.866 136.956  0.00  0.00    +0.000 OA
BRANCH  43  48
ATOM     44  C   UNL     1     112.725 125.152 136.555  0.00  0.00    +0.000 C 
ATOM     45  C   UNL     1     112.997 124.135 136.725  0.00  0.00    +0.000 C 
ATOM     46  C   UNL     1     113.363 125.088 137.033  0.00  0.00    +0.000 C 
ATOM     47  C   UNL     1     114.083 125.648 137.595  0.00  0.00    +0.000 C 
ATOM     48  C   UNL     1     113.812 126.665 137.425  0.00  0.00    +0.000 C 
ATOM     49  O   UNL     1     113.445 125.713 137.117  0.00  0.00    +0.000 OA
ATOM     50  C   UNL     1     112.427 124.409 136.305  0.00  0.00    +0.000 C 
ATOM     51  O   UNL     1     112.935 123.455 136.655  0.00  0.00    +0.000 OA
ATOM     52  O   UNL     1     113.612 124.154 137.189  0.00  0.00    +0.000 OA
ATOM     53  O   UNL     1     114.621 125.040 137.980  0.00  0.00    +0.000 OA
ENDBRANCH  43  48
ENDBRANCH  36  43
ENDBRANCH  33  38
ENDBRANCH  32  33
ENDBRANCH   4  32
TORSDOF 9
ENDMDL
MODEL 4
REMARK VINA RESULT:     -10.7      2.812      5.391
REMARK  Name = 
REMARK  9 active torsions:
REMARK  status: ('A' for Active; 'I' for Inactive)
REMARK    1  A    between atoms: C_1  and  O_52
REMARK    2  A    between atoms: C_8  and  O_18
REMARK    3  A    between atoms: C_9  and  C_12
REMARK    4  A    between atoms: O_18  and  C_28
REMARK    5  A    between atoms: C_22  and  O_39
REMARK    6  A    between atoms: C_24  and  O_37
REMARK    7  A    between atoms: C_30  and  C_36
REMARK    8  A    between atoms: C_36  and  O_37
REMARK    9  A    between atoms: O_39  and  C_46
REMARK                            x       y       z     vdW  Elec       q    Type
REMARK                         _______ _______ _______ _____ _____    ______ ____
ROOT
ATOM      1  C   UNL     1     110.088 129.791 139.984  0.00  0.00    +0.000 C 
ATOM      2  C   UNL     1     110.207 128.764 139.724  0.00  0.00    +0.000 C 
ATOM      3  O   UNL     1     109.587 129.319 140.390  0.00  0.00    +0.000 OA
ATOM      4  C   UNL     1     108.808 129.314 141.125  0.00  0.00    +0.000 C 
ATOM      5  C   UNL     1     108.690 130.340 141.386  0.00  0.00    +0.000 C 
ATOM      6  C   UNL     1     109.309 129.787 140.720  0.00  0.00    +0.000 C 
ATOM      7  O   UNL     1     110.692 129.272 139.338  0.00  0.00    +0.000 OA
ATOM      8  O   UNL     1     109.215 130.600 140.926  0.00  0.00    +0.000 OA
ATOM      9  O   UNL     1     108.975 131.375 141.265  0.00  0.00    +0.000 OA
ENDROOT
BRANCH   2  10
ATOM     10  O   UNL     1     111.230 128.610 138.734  0.00  0.00    +0.000 OA
BRANCH  10  18
ATOM     11  C   UNL     1     113.825 125.449 136.935  0.00  0.00    +0.000 A 
ATOM     12  C   UNL     1     114.029 125.581 137.925  0.00  0.00    +0.000 A 
ATOM     13  C   UNL     1     113.511 126.273 138.465  0.00  0.00    +0.000 A 
ATOM     14  C   UNL     1     112.788 126.834 138.014  0.00  0.00    +0.000 A 
ATOM     15  C   UNL     1     112.583 126.702 137.024  0.00  0.00    +0.000 A 
ATOM     16  C   UNL     1     113.102 126.010 136.485  0.00  0.00    +0.000 A 
ATOM     17  C   UNL     1     112.269 127.526 138.554  0.00  0.00    +0.000 A 
ATOM     18  C   UNL     1     111.546 128.086 138.103  0.00  0.00    +0.000 A 
ATOM     19  C   UNL     1     111.342 127.954 137.113  0.00  0.00    +0.000 A 
ATOM     20  O   UNL     1     111.861 127.262 136.574  0.00  0.00    +0.000 OA
ATOM     21  O   UNL     1     112.428 127.629 139.326  0.00  0.00    +0.000 OA
ATOM     22  O   UNL     1     113.715 126.405 139.455  0.00  0.00    +0.000 OA
BRANCH  19  23
ATOM     23  C   UNL     1     110.619 128.515 136.663  0.00  0.00    +0.000 A 
ATOM     24  C   UNL     1     110.845 129.462 136.300  0.00  0.00    +0.000 A 
ATOM     25  C   UNL     1     110.108 130.033 135.841  0.00  0.00    +0.000 A 
ATOM     26  C   UNL     1     109.145 129.657 135.746  0.00  0.00    +0.000 A 
ATOM     27  C   UNL     1     108.917 128.710 136.109  0.00  0.00    +0.000 A 
ATOM     28  C   UNL     1     109.655 128.139 136.568  0.00  0.00    +0.000 A 
ATOM     29  O   UNL     1     108.320 130.295 135.234  0.00  0.00    +0.000 OA
ENDBRANCH  19  23
BRANCH  11  30
ATOM     30  O   UNL     1     114.234 124.862 136.386  0.00  0.00    +0.000 OA
ATOM     31  C   UNL     1     115.096 125.088 136.167  0.00  0.00    +0.000 C 
ENDBRANCH  11  30
ENDBRANCH  10  18
ENDBRANCH   2  10
BRANCH   4  32
ATOM     32  C   UNL     1     108.142 129.575 141.792  0.00  0.00    +0.000 C 
BRANCH  32  33
ATOM     33  O   UNL     1     108.107 128.763 141.815  0.00  0.00    +0.000 OA
BRANCH  33  38
ATOM     34  C   UNL     1     106.133 128.149 142.180  0.00  0.00    +0.000 C 
ATOM     35  C   UNL     1     105.583 127.304 142.524  0.00  0.00    +0.000 C 
ATOM     36  C   UNL     1     106.611 127.536 142.366  0.00  0.00    +0.000 C 
ATOM     37  C   UNL     1     107.634 127.218 142.406  0.00  0.00    +0.000 C 
ATOM     38  C   UNL     1     108.184 128.063 142.061  0.00  0.00    +0.000 C 
ATOM     39  O   UNL     1     107.156 127.831 142.220  0.00  0.00    +0.000 OA
ATOM     40  C   UNL     1     105.226 127.959 142.314  0.00  0.00    +0.000 C 
ATOM     41  O   UNL     1     104.904 127.220 142.604  0.00  0.00    +0.000 OA
ATOM     42  O   UNL     1     107.616 126.373 142.712  0.00  0.00    +0.000 OA
BRANCH  36  43
ATOM     43  O   UNL     1     106.106 126.759 142.683  0.00  0.00    +0.000 OA
BRANCH  43  48
ATOM     44  C   UNL     1     105.944 125.794 144.216  0.00  0.00    +0.000 C 
ATOM     45  C   UNL     1     105.712 124.824 144.593  0.00  0.00    +0.000 C 
ATOM     46  C   UNL     1     105.774 125.277 143.630  0.00  0.00    +0.000 C 
ATOM     47  C   UNL     1     105.683 125.173 142.567  0.00  0.00    +0.000 C 
ATOM     48  C   UNL     1     105.915 126.143 142.190  0.00  0.00    +0.000 C 
ATOM     49  O   UNL     1     105.853 125.690 143.153  0.00  0.00    +0.000 OA
ATOM     50  C   UNL     1     105.899 125.450 144.979  0.00  0.00    +0.000 C 
ATOM     51  O   UNL     1     105.618 124.354 145.084  0.00  0.00    +0.000 OA
ATOM     52  O   UNL     1     105.561 124.387 143.976  0.00  0.00    +0.000 OA
ATOM     53  O   UNL     1     105.450 124.317 142.422  0.00  0.00    +0.000 OA
ENDBRANCH  43  48
ENDBRANCH  36  43
ENDBRANCH  33  38
ENDBRANCH  32  33
ENDBRANCH   4  32
TORSDOF 9
ENDMDL
MODEL 5
REMARK VINA RESULT:     -10.6      3.686      7.156
REMARK  Name = 
REMARK  9 active torsions:
REMARK  status: ('A' for Active; 'I' for Inactive)
REMARK    1  A    between atoms: C_1  and  O_52
REMARK    2  A    between atoms: C_8  and  O_18
REMARK    3  A    between atoms: C_9  and  C_12
REMARK    4  A    between atoms: O_18  and  C_28
REMARK    5  A    between atoms: C_22  and  O_39
REMARK    6  A    between atoms: C_24  and  O_37
REMARK    7  A    between atoms: C_30  and  C_36
REMARK    8  A    between atoms: C_36  and  O_37
REMARK    9  A    between atoms: O_39  and  C_46
REMARK                            x       y       z     vdW  Elec       q    Type
REMARK                         _______ _______ _______ _____ _____    ______ ____
ROOT
ATOM      1  C   UNL     1     109.236 127.051 141.928  0.00  0.00    +0.000 C 
ATOM      2  C   UNL     1     110.019 127.765 141.814  0.00  0.00    +0.000 C 
ATOM      3  O   UNL     1     109.714 126.876 141.313  0.00  0.00    +0.000 OA
ATOM      4  C   UNL     1     109.885 126.173 140.523  0.00  0.00    +0.000 C 
ATOM      5  C   UNL     1     109.102 125.459 140.637  0.00  0.00    +0.000 C 
ATOM      6  C   UNL     1     109.405 126.348 141.138  0.00  0.00    +0.000 C 
ATOM      7  O   UNL     1     109.515 127.905 142.422  0.00  0.00    +0.000 OA
ATOM      8  O   UNL     1     108.785 125.782 141.229  0.00  0.00    +0.000 OA
ATOM      9  O   UNL     1     108.226 125.106 141.162  0.00  0.00    +0.000 OA
ENDROOT
BRANCH   2  10
ATOM     10  O   UNL     1     109.922 128.783 142.816  0.00  0.00    +0.000 OA
BRANCH  10  18
ATOM     11  C   UNL     1     112.030 131.760 145.397  0.00  0.00    +0.000 A 
ATOM     12  C   UNL     1     112.106 130.816 145.776  0.00  0.00    +0.000 A 
ATOM     13  C   UNL     1     111.671 130.034 145.288  0.00  0.00    +0.000 A 
ATOM     14  C   UNL     1     111.159 130.195 144.421  0.00  0.00    +0.000 A 
ATOM     15  C   UNL     1     111.082 131.139 144.042  0.00  0.00    +0.000 A 
ATOM     16  C   UNL     1     111.518 131.920 144.531  0.00  0.00    +0.000 A 
ATOM     17  C   UNL     1     110.723 129.413 143.934  0.00  0.00    +0.000 A 
ATOM     18  C   UNL     1     110.211 129.574 143.067  0.00  0.00    +0.000 A 
ATOM     19  C   UNL     1     110.135 130.518 142.688  0.00  0.00    +0.000 A 
ATOM     20  O   UNL     1     110.571 131.300 143.176  0.00  0.00    +0.000 OA
ATOM     21  O   UNL     1     110.783 128.677 144.229  0.00  0.00    +0.000 OA
ATOM     22  O   UNL     1     111.747 129.091 145.667  0.00  0.00    +0.000 OA
BRANCH  19  23
ATOM     23  C   UNL     1     109.623 130.679 141.821  0.00  0.00    +0.000 A 
ATOM     24  C   UNL     1     108.584 130.691 141.825  0.00  0.00    +0.000 A 
ATOM     25  C   UNL     1     108.063 130.855 140.941  0.00  0.00    +0.000 A 
ATOM     26  C   UNL     1     108.580 131.007 140.053  0.00  0.00    +0.000 A 
ATOM     27  C   UNL     1     109.620 130.994 140.049  0.00  0.00    +0.000 A 
ATOM     28  C   UNL     1     110.141 130.831 140.933  0.00  0.00    +0.000 A 
ATOM     29  O   UNL     1     107.998 131.190 139.065  0.00  0.00    +0.000 OA
ENDBRANCH  19  23
BRANCH  11  30
ATOM     30  O   UNL     1     112.383 132.505 145.763  0.00  0.00    +0.000 OA
ATOM     31  C   UNL     1     112.845 132.359 146.542  0.00  0.00    +0.000 C 
ENDBRANCH  11  30
ENDBRANCH  10  18
ENDBRANCH   2  10
BRANCH   4  32
ATOM     32  C   UNL     1     109.821 125.415 139.908  0.00  0.00    +0.000 C 
BRANCH  32  33
ATOM     33  O   UNL     1     110.490 125.799 139.648  0.00  0.00    +0.000 OA
BRANCH  33  38
ATOM     34  C   UNL     1     110.786 125.662 137.575  0.00  0.00    +0.000 C 
ATOM     35  C   UNL     1     111.550 125.784 136.842  0.00  0.00    +0.000 C 
ATOM     36  C   UNL     1     111.483 125.876 137.902  0.00  0.00    +0.000 C 
ATOM     37  C   UNL     1     111.973 126.097 138.829  0.00  0.00    +0.000 C 
ATOM     38  C   UNL     1     111.209 125.975 139.562  0.00  0.00    +0.000 C 
ATOM     39  O   UNL     1     111.275 125.884 138.502  0.00  0.00    +0.000 OA
ATOM     40  C   UNL     1     110.830 125.578 136.643  0.00  0.00    +0.000 C 
ATOM     41  O   UNL     1     111.524 125.707 136.158  0.00  0.00    +0.000 OA
ATOM     42  O   UNL     1     112.824 126.294 138.617  0.00  0.00    +0.000 OA
BRANCH  36  43
ATOM     43  O   UNL     1     112.186 125.987 137.228  0.00  0.00    +0.000 OA
BRANCH  43  48
ATOM     44  C   UNL     1     113.776 125.203 136.822  0.00  0.00    +0.000 C 
ATOM     45  C   UNL     1     114.734 125.389 136.393  0.00  0.00    +0.000 C 
ATOM     46  C   UNL     1     113.854 125.961 136.579  0.00  0.00    +0.000 C 
ATOM     47  C   UNL     1     113.350 126.904 136.513  0.00  0.00    +0.000 C 
ATOM     48  C   UNL     1     112.392 126.719 136.942  0.00  0.00    +0.000 C 
ATOM     49  O   UNL     1     113.272 126.147 136.756  0.00  0.00    +0.000 OA
ATOM     50  C   UNL     1     114.462 124.742 136.682  0.00  0.00    +0.000 C 
ATOM     51  O   UNL     1     115.369 125.221 136.191  0.00  0.00    +0.000 OA
ATOM     52  O   UNL     1     114.734 126.131 136.185  0.00  0.00    +0.000 OA
ATOM     53  O   UNL     1     113.933 127.468 136.126  0.00  0.00    +0.000 OA
ENDBRANCH  43  48
ENDBRANCH  36  43
ENDBRANCH  33  38
ENDBRANCH  32  33
ENDBRANCH   4  32
TORSDOF 9
ENDMDL
MODEL 6
REMARK VINA RESULT:     -10.6      3.024      5.211
REMARK  Name = 
REMARK  9 active torsions:
REMARK  status: ('A' for Active; 'I' for Inactive)
REMARK    1  A    between atoms: C_1  and  O_52
REMARK    2  A    between atoms: C_8  and  O_18
REMARK    3  A    between atoms: C_9  and  C_12
REMARK    4  A    between atoms: O_18  and  C_28
REMARK    5  A    between atoms: C_22  and  O_39
REMARK    6  A    between atoms: C_24  and  O_37
REMARK    7  A    between atoms: C_30  and  C_36
REMARK    8  A    between atoms: C_36  and  O_37
REMARK    9  A    between atoms: O_39  and  C_46
REMARK                            x       y       z     vdW  Elec       q    Type
REMARK                         _______ _______ _______ _____ _____    ______ ____
ROOT
ATOM      1  C   UNL     1     109.885 129.755 139.760  0.00  0.00    +0.000 C 
ATOM      2  C   UNL     1     110.228 128.749 139.841  0.00  0.00    +0.000 C 
ATOM      3  O   UNL     1     109.466 129.338 140.298  0.00  0.00    +0.000 OA
ATOM      4  C   UNL     1     108.659 129.397 140.999  0.00  0.00    +0.000 C 
ATOM      5  C   UNL     1     108.316 130.403 140.918  0.00  0.00    +0.000 C 
ATOM      6  C   UNL     1     109.078 129.815 140.462  0.00  0.00    +0.000 C 
ATOM      7  O   UNL     1     110.623 129.202 139.312  0.00  0.00    +0.000 OA
ATOM      8  O   UNL     1     108.806 130.611 140.397  0.00  0.00    +0.000 OA
ATOM      9  O   UNL     1     108.391 131.383 140.471  0.00  0.00    +0.000 OA
ENDROOT
BRANCH   2  10
ATOM     10  O   UNL     1     111.322 128.516 138.949  0.00  0.00    +0.000 OA
BRANCH  10  18
ATOM     11  C   UNL     1     113.495 124.974 137.304  0.00  0.00    +0.000 A 
ATOM     12  C   UNL     1     112.498 124.931 137.095  0.00  0.00    +0.000 A 
ATOM     13  C   UNL     1     111.878 125.676 137.411  0.00  0.00    +0.000 A 
ATOM     14  C   UNL     1     112.255 126.465 137.936  0.00  0.00    +0.000 A 
ATOM     15  C   UNL     1     113.252 126.508 138.145  0.00  0.00    +0.000 A 
ATOM     16  C   UNL     1     113.871 125.763 137.829  0.00  0.00    +0.000 A 
ATOM     17  C   UNL     1     111.635 127.210 138.252  0.00  0.00    +0.000 A 
ATOM     18  C   UNL     1     112.012 127.999 138.777  0.00  0.00    +0.000 A 
ATOM     19  C   UNL     1     113.009 128.042 138.986  0.00  0.00    +0.000 A 
ATOM     20  O   UNL     1     113.629 127.297 138.670  0.00  0.00    +0.000 OA
ATOM     21  O   UNL     1     110.857 127.176 138.089  0.00  0.00    +0.000 OA
ATOM     22  O   UNL     1     110.881 125.633 137.202  0.00  0.00    +0.000 OA
BRANCH  19  23
ATOM     23  C   UNL     1     113.386 128.830 139.511  0.00  0.00    +0.000 A 
ATOM     24  C   UNL     1     113.658 129.703 139.016  0.00  0.00    +0.000 A 
ATOM     25  C   UNL     1     114.041 130.506 139.552  0.00  0.00    +0.000 A 
ATOM     26  C   UNL     1     114.153 130.438 140.582  0.00  0.00    +0.000 A 
ATOM     27  C   UNL     1     113.881 129.566 141.078  0.00  0.00    +0.000 A 
ATOM     28  C   UNL     1     113.497 128.762 140.542  0.00  0.00    +0.000 A 
ATOM     29  O   UNL     1     114.582 131.336 141.181  0.00  0.00    +0.000 OA
ENDBRANCH  19  23
BRANCH  11  30
ATOM     30  O   UNL     1     114.111 124.361 137.063  0.00  0.00    +0.000 OA
ATOM     31  C   UNL     1     114.757 124.679 136.495  0.00  0.00    +0.000 C 
ENDBRANCH  11  30
ENDBRANCH  10  18
ENDBRANCH   2  10
BRANCH   4  32
ATOM     32  C   UNL     1     107.912 129.705 141.550  0.00  0.00    +0.000 C 
BRANCH  32  33
ATOM     33  O   UNL     1     107.926 128.906 141.701  0.00  0.00    +0.000 OA
BRANCH  33  38
ATOM     34  C   UNL     1     106.024 128.088 142.045  0.00  0.00    +0.000 C 
ATOM     35  C   UNL     1     105.562 127.226 142.469  0.00  0.00    +0.000 C 
ATOM     36  C   UNL     1     106.562 127.570 142.332  0.00  0.00    +0.000 C 
ATOM     37  C   UNL     1     107.611 127.396 142.463  0.00  0.00    +0.000 C 
ATOM     38  C   UNL     1     108.073 128.258 142.039  0.00  0.00    +0.000 C 
ATOM     39  O   UNL     1     107.074 127.913 142.176  0.00  0.00    +0.000 OA
ATOM     40  C   UNL     1     105.140 127.798 142.159  0.00  0.00    +0.000 C 
ATOM     41  O   UNL     1     104.895 127.064 142.526  0.00  0.00    +0.000 OA
ATOM     42  O   UNL     1     107.678 126.599 142.874  0.00  0.00    +0.000 OA
BRANCH  36  43
ATOM     43  O   UNL     1     106.137 126.777 142.722  0.00  0.00    +0.000 OA
BRANCH  43  48
ATOM     44  C   UNL     1     106.042 125.980 144.353  0.00  0.00    +0.000 C 
ATOM     45  C   UNL     1     105.924 125.038 144.837  0.00  0.00    +0.000 C 
ATOM     46  C   UNL     1     105.964 125.382 143.829  0.00  0.00    +0.000 C 
ATOM     47  C   UNL     1     105.930 125.147 142.784  0.00  0.00    +0.000 C 
ATOM     48  C   UNL     1     106.048 126.090 142.300  0.00  0.00    +0.000 C 
ATOM     49  O   UNL     1     106.008 125.745 143.308  0.00  0.00    +0.000 OA
ATOM     50  C   UNL     1     106.012 125.722 145.151  0.00  0.00    +0.000 C 
ATOM     51  O   UNL     1     105.872 124.617 145.378  0.00  0.00    +0.000 OA
ATOM     52  O   UNL     1     105.855 124.516 144.273  0.00  0.00    +0.000 OA
ATOM     53  O   UNL     1     105.816 124.256 142.736  0.00  0.00    +0.000 OA
ENDBRANCH  43  48
ENDBRANCH  36  43
ENDBRANCH  33  38
ENDBRANCH  32  33
ENDBRANCH   4  32
TORSDOF 9
ENDMDL
MODEL 7
REMARK VINA RESULT:     -10.6      3.134      7.431
REMARK  Name = 
REMARK  9 active torsions:
REMARK  status: ('A' for Active; 'I' for Inactive)
REMARK    1  A    between atoms: C_1  and  O_52
REMARK    2  A    between atoms: C_8  and  O_18
REMARK    3  A    between atoms: C_9  and  C_12
REMARK    4  A    between atoms: O_18  and  C_28
REMARK    5  A    between atoms: C_22  and  O_39
REMARK    6  A    between atoms: C_24  and  O_37
REMARK    7  A    between atoms: C_30  and  C_36
REMARK    8  A    between atoms: C_36  and  O_37
REMARK    9  A    between atoms: O_39  and  C_46
REMARK                            x       y       z     vdW  Elec       q    Type
REMARK                         _______ _______ _______ _____ _____    ______ ____
ROOT
ATOM      1  C   UNL     1     107.275 126.246 141.667  0.00  0.00    +0.000 C 
ATOM      2  C   UNL     1     107.072 127.292 141.658  0.00  0.00    +0.000 C 
ATOM      3  O   UNL     1     107.881 126.666 141.360  0.00  0.00    +0.000 OA
ATOM      4  C   UNL     1     108.861 126.586 140.936  0.00  0.00    +0.000 C 
ATOM      5  C   UNL     1     109.064 125.540 140.945  0.00  0.00    +0.000 C 
ATOM      6  C   UNL     1     108.255 126.165 141.243  0.00  0.00    +0.000 C 
ATOM      7  O   UNL     1     106.487 126.834 141.959  0.00  0.00    +0.000 OA
ATOM      8  O   UNL     1     108.415 125.336 141.250  0.00  0.00    +0.000 OA
ATOM      9  O   UNL     1     108.758 124.530 141.174  0.00  0.00    +0.000 OA
ENDROOT
BRANCH   2  10
ATOM     10  O   UNL     1     105.776 127.559 142.205  0.00  0.00    +0.000 OA
BRANCH  10  18
ATOM     11  C   UNL     1     102.486 130.582 142.138  0.00  0.00    +0.000 A 
ATOM     12  C   UNL     1     102.585 130.118 141.235  0.00  0.00    +0.000 A 
ATOM     13  C   UNL     1     103.300 129.402 141.106  0.00  0.00    +0.000 A 
ATOM     14  C   UNL     1     103.915 129.150 141.879  0.00  0.00    +0.000 A 
ATOM     15  C   UNL     1     103.816 129.615 142.782  0.00  0.00    +0.000 A 
ATOM     16  C   UNL     1     103.102 130.330 142.910  0.00  0.00    +0.000 A 
ATOM     17  C   UNL     1     104.629 128.434 141.749  0.00  0.00    +0.000 A 
ATOM     18  C   UNL     1     105.245 128.182 142.523  0.00  0.00    +0.000 A 
ATOM     19  C   UNL     1     105.146 128.647 143.425  0.00  0.00    +0.000 A 
ATOM     20  O   UNL     1     104.431 129.362 143.554  0.00  0.00    +0.000 OA
ATOM     21  O   UNL     1     104.707 128.072 141.046  0.00  0.00    +0.000 OA
ATOM     22  O   UNL     1     103.399 128.938 140.204  0.00  0.00    +0.000 OA
BRANCH  19  23
ATOM     23  C   UNL     1     105.761 128.395 144.198  0.00  0.00    +0.000 A 
ATOM     24  C   UNL     1     106.623 128.946 144.378  0.00  0.00    +0.000 A 
ATOM     25  C   UNL     1     107.250 128.689 145.165  0.00  0.00    +0.000 A 
ATOM     26  C   UNL     1     107.015 127.879 145.773  0.00  0.00    +0.000 A 
ATOM     27  C   UNL     1     106.153 127.327 145.593  0.00  0.00    +0.000 A 
ATOM     28  C   UNL     1     105.526 127.585 144.806  0.00  0.00    +0.000 A 
ATOM     29  O   UNL     1     107.716 127.591 146.653  0.00  0.00    +0.000 OA
ENDBRANCH  19  23
BRANCH  11  30
ATOM     30  O   UNL     1     101.884 131.223 142.338  0.00  0.00    +0.000 OA
ATOM     31  C   UNL     1     101.812 131.883 141.704  0.00  0.00    +0.000 C 
ENDBRANCH  11  30
ENDBRANCH  10  18
ENDBRANCH   2  10
BRANCH   4  32
ATOM     32  C   UNL     1     109.713 126.250 140.592  0.00  0.00    +0.000 C 
BRANCH  32  33
ATOM     33  O   UNL     1     109.777 127.052 140.472  0.00  0.00    +0.000 OA
BRANCH  33  38
ATOM     34  C   UNL     1     110.743 127.550 138.676  0.00  0.00    +0.000 C 
ATOM     35  C   UNL     1     111.235 128.369 138.205  0.00  0.00    +0.000 C 
ATOM     36  C   UNL     1     110.760 128.198 139.144  0.00  0.00    +0.000 C 
ATOM     37  C   UNL     1     110.469 128.583 140.101  0.00  0.00    +0.000 C 
ATOM     38  C   UNL     1     109.977 127.763 140.573  0.00  0.00    +0.000 C 
ATOM     39  O   UNL     1     110.452 127.935 139.634  0.00  0.00    +0.000 OA
ATOM     40  C   UNL     1     111.157 127.686 137.847  0.00  0.00    +0.000 C 
ATOM     41  O   UNL     1     111.525 128.412 137.582  0.00  0.00    +0.000 OA
ATOM     42  O   UNL     1     110.755 129.435 140.120  0.00  0.00    +0.000 OA
BRANCH  36  43
ATOM     43  O   UNL     1     111.212 128.952 138.710  0.00  0.00    +0.000 OA
BRANCH  43  48
ATOM     44  C   UNL     1     110.747 130.595 138.085  0.00  0.00    +0.000 C 
ATOM     45  C   UNL     1     111.116 131.581 137.922  0.00  0.00    +0.000 C 
ATOM     46  C   UNL     1     111.510 130.671 138.313  0.00  0.00    +0.000 C 
ATOM     47  C   UNL     1     112.343 130.146 138.737  0.00  0.00    +0.000 C 
ATOM     48  C   UNL     1     111.974 129.160 138.900  0.00  0.00    +0.000 C 
ATOM     49  O   UNL     1     111.580 130.070 138.509  0.00  0.00    +0.000 OA
ATOM     50  C   UNL     1     110.426 131.305 137.775  0.00  0.00    +0.000 C 
ATOM     51  O   UNL     1     111.074 132.237 137.719  0.00  0.00    +0.000 OA
ATOM     52  O   UNL     1     111.849 131.577 138.163  0.00  0.00    +0.000 OA
ATOM     53  O   UNL     1     113.012 130.745 138.784  0.00  0.00    +0.000 OA
ENDBRANCH  43  48
ENDBRANCH  36  43
ENDBRANCH  33  38
ENDBRANCH  32  33
ENDBRANCH   4  32
TORSDOF 9
ENDMDL
MODEL 8
REMARK VINA RESULT:     -10.6      3.962      6.430
REMARK  Name = 
REMARK  9 active torsions:
REMARK  status: ('A' for Active; 'I' for Inactive)
REMARK    1  A    between atoms: C_1  and  O_52
REMARK    2  A    between atoms: C_8  and  O_18
REMARK    3  A    between atoms: C_9  and  C_12
REMARK    4  A    between atoms: O_18  and  C_28
REMARK    5  A    between atoms: C_22  and  O_39
REMARK    6  A    between atoms: C_24  and  O_37
REMARK    7  A    between atoms: C_30  and  C_36
REMARK    8  A    between atoms: C_36  and  O_37
REMARK    9  A    between atoms: O_39  and  C_46
REMARK                            x       y       z     vdW  Elec       q    Type
REMARK                         _______ _______ _______ _____ _____    ______ ____
ROOT
ATOM      1  C   UNL     1     109.128 128.457 142.757  0.00  0.00    +0.000 C 
ATOM      2  C   UNL     1     108.309 128.209 142.121  0.00  0.00    +0.000 C 
ATOM      3  O   UNL     1     109.360 128.029 142.123  0.00  0.00    +0.000 OA
ATOM      4  C   UNL     1     110.208 127.587 141.642  0.00  0.00    +0.000 C 
ATOM      5  C   UNL     1     111.027 127.835 142.278  0.00  0.00    +0.000 C 
ATOM      6  C   UNL     1     109.978 128.015 142.276  0.00  0.00    +0.000 C 
ATOM      7  O   UNL     1     108.120 128.639 142.770  0.00  0.00    +0.000 OA
ATOM      8  O   UNL     1     110.626 128.212 142.780  0.00  0.00    +0.000 OA
ATOM      9  O   UNL     1     111.409 128.314 143.167  0.00  0.00    +0.000 OA
ENDROOT
BRANCH   2  10
ATOM     10  O   UNL     1     107.087 128.740 142.643  0.00  0.00    +0.000 OA
BRANCH  10  18
ATOM     11  C   UNL     1     103.118 130.428 141.476  0.00  0.00    +0.000 A 
ATOM     12  C   UNL     1     103.877 131.073 141.256  0.00  0.00    +0.000 A 
ATOM     13  C   UNL     1     104.841 130.817 141.469  0.00  0.00    +0.000 A 
ATOM     14  C   UNL     1     105.045 129.916 141.902  0.00  0.00    +0.000 A 
ATOM     15  C   UNL     1     104.286 129.272 142.122  0.00  0.00    +0.000 A 
ATOM     16  C   UNL     1     103.323 129.529 141.909  0.00  0.00    +0.000 A 
ATOM     17  C   UNL     1     106.009 129.660 142.115  0.00  0.00    +0.000 A 
ATOM     18  C   UNL     1     106.214 128.760 142.548  0.00  0.00    +0.000 A 
ATOM     19  C   UNL     1     105.454 128.116 142.768  0.00  0.00    +0.000 A 
ATOM     20  O   UNL     1     104.491 128.373 142.555  0.00  0.00    +0.000 OA
ATOM     21  O   UNL     1     106.601 130.163 141.943  0.00  0.00    +0.000 OA
ATOM     22  O   UNL     1     105.600 131.460 141.248  0.00  0.00    +0.000 OA
BRANCH  19  23
ATOM     23  C   UNL     1     105.659 127.216 143.201  0.00  0.00    +0.000 A 
ATOM     24  C   UNL     1     105.806 126.375 142.610  0.00  0.00    +0.000 A 
ATOM     25  C   UNL     1     106.015 125.458 143.051  0.00  0.00    +0.000 A 
ATOM     26  C   UNL     1     106.078 125.383 144.085  0.00  0.00    +0.000 A 
ATOM     27  C   UNL     1     105.931 126.224 144.678  0.00  0.00    +0.000 A 
ATOM     28  C   UNL     1     105.722 127.141 144.236  0.00  0.00    +0.000 A 
ATOM     29  O   UNL     1     106.311 124.358 144.580  0.00  0.00    +0.000 OA
ENDBRANCH  19  23
BRANCH  11  30
ATOM     30  O   UNL     1     102.241 130.575 141.323  0.00  0.00    +0.000 OA
ATOM     31  C   UNL     1     101.929 131.370 141.655  0.00  0.00    +0.000 C 
ENDBRANCH  11  30
ENDBRANCH  10  18
ENDBRANCH   2  10
BRANCH   4  32
ATOM     32  C   UNL     1     111.112 127.291 141.414  0.00  0.00    +0.000 C 
BRANCH  32  33
ATOM     33  O   UNL     1     110.674 127.033 140.778  0.00  0.00    +0.000 OA
BRANCH  33  38
ATOM     34  C   UNL     1     112.010 126.946 139.161  0.00  0.00    +0.000 C 
ATOM     35  C   UNL     1     112.118 126.489 138.205  0.00  0.00    +0.000 C 
ATOM     36  C   UNL     1     111.388 126.478 138.981  0.00  0.00    +0.000 C 
ATOM     37  C   UNL     1     110.446 126.115 139.341  0.00  0.00    +0.000 C 
ATOM     38  C   UNL     1     110.338 126.572 140.298  0.00  0.00    +0.000 C 
ATOM     39  O   UNL     1     111.068 126.583 139.521  0.00  0.00    +0.000 OA
ATOM     40  C   UNL     1     112.661 126.965 138.487  0.00  0.00    +0.000 C 
ATOM     41  O   UNL     1     112.627 126.540 137.744  0.00  0.00    +0.000 OA
ATOM     42  O   UNL     1     110.128 125.575 138.696  0.00  0.00    +0.000 OA
BRANCH  36  43
ATOM     43  O   UNL     1     111.486 126.058 138.101  0.00  0.00    +0.000 OA
BRANCH  43  48
ATOM     44  C   UNL     1     110.655 126.101 136.485  0.00  0.00    +0.000 C 
ATOM     45  C   UNL     1     110.459 125.524 135.610  0.00  0.00    +0.000 C 
ATOM     46  C   UNL     1     110.983 125.374 136.526  0.00  0.00    +0.000 C 
ATOM     47  C   UNL     1     111.569 124.723 137.144  0.00  0.00    +0.000 C 
ATOM     48  C   UNL     1     111.765 125.300 138.019  0.00  0.00    +0.000 C 
ATOM     49  O   UNL     1     111.241 125.450 137.103  0.00  0.00    +0.000 OA
ATOM     50  C   UNL     1     110.239 126.232 135.768  0.00  0.00    +0.000 C 
ATOM     51  O   UNL     1     110.194 125.408 134.987  0.00  0.00    +0.000 OA
ATOM     52  O   UNL     1     110.803 124.843 135.723  0.00  0.00    +0.000 OA
ATOM     53  O   UNL     1     111.659 123.958 136.680  0.00  0.00    +0.000 OA
ENDBRANCH  43  48
ENDBRANCH  36  43
ENDBRANCH  33  38
ENDBRANCH  32  33
ENDBRANCH   4  32
TORSDOF 9
ENDMDL
MODEL 9
REMARK VINA RESULT:     -10.5      5.120      8.022
REMARK  Name = 
REMARK  9 active torsions:
REMARK  status: ('A' for Active; 'I' for Inactive)
REMARK    1  A    between atoms: C_1  and  O_52
REMARK    2  A    between atoms: C_8  and  O_18
REMARK    3  A    between atoms: C_9  and  C_12
REMARK    4  A    between atoms: O_18  and  C_28
REMARK    5  A    between atoms: C_22  and  O_39
REMARK    6  A    between atoms: C_24  and  O_37
REMARK    7  A    between atoms: C_30  and  C_36
REMARK    8  A    between atoms: C_36  and  O_37
REMARK    9  A    between atoms: O_39  and  C_46
REMARK                            x       y       z     vdW  Elec       q    Type
REMARK                         _______ _______ _______ _____ _____    ______ ____
ROOT
ATOM      1  C   UNL     1     112.772 130.922 142.207  0.00  0.00    +0.000 C 
ATOM      2  C   UNL     1     112.027 130.171 142.338  0.00  0.00    +0.000 C 
ATOM      3  O   UNL     1     112.918 130.273 141.763  0.00  0.00    +0.000 OA
ATOM      4  C   UNL     1     113.600 129.844 141.058  0.00  0.00    +0.000 C 
ATOM      5  C   UNL     1     114.345 130.595 140.926  0.00  0.00    +0.000 C 
ATOM      6  C   UNL     1     113.454 130.493 141.501  0.00  0.00    +0.000 C 
ATOM      7  O   UNL     1     111.917 130.839 142.766  0.00  0.00    +0.000 OA
ATOM      8  O   UNL     1     114.044 131.088 141.396  0.00  0.00    +0.000 OA
ATOM      9  O   UNL     1     114.739 131.573 141.160  0.00  0.00    +0.000 OA
ENDROOT
BRANCH   2  10
ATOM     10  O   UNL     1     111.031 130.607 143.269  0.00  0.00    +0.000 OA
BRANCH  10  18
ATOM     11  C   UNL     1     107.320 128.717 144.888  0.00  0.00    +0.000 A 
ATOM     12  C   UNL     1     107.360 128.649 143.871  0.00  0.00    +0.000 A 
ATOM     13  C   UNL     1     108.155 129.040 143.366  0.00  0.00    +0.000 A 
ATOM     14  C   UNL     1     108.909 129.498 143.877  0.00  0.00    +0.000 A 
ATOM     15  C   UNL     1     108.868 129.565 144.894  0.00  0.00    +0.000 A 
ATOM     16  C   UNL     1     108.074 129.175 145.399  0.00  0.00    +0.000 A 
ATOM     17  C   UNL     1     109.703 129.889 143.371  0.00  0.00    +0.000 A 
ATOM     18  C   UNL     1     110.458 130.347 143.883  0.00  0.00    +0.000 A 
ATOM     19  C   UNL     1     110.417 130.414 144.900  0.00  0.00    +0.000 A 
ATOM     20  O   UNL     1     109.623 130.023 145.404  0.00  0.00    +0.000 OA
ATOM     21  O   UNL     1     109.735 129.837 142.579  0.00  0.00    +0.000 OA
ATOM     22  O   UNL     1     108.195 128.973 142.350  0.00  0.00    +0.000 OA
BRANCH  19  23
ATOM     23  C   UNL     1     111.171 130.872 145.410  0.00  0.00    +0.000 A 
ATOM     24  C   UNL     1     111.149 131.900 145.560  0.00  0.00    +0.000 A 
ATOM     25  C   UNL     1     111.918 132.366 146.080  0.00  0.00    +0.000 A 
ATOM     26  C   UNL     1     112.710 131.804 146.451  0.00  0.00    +0.000 A 
ATOM     27  C   UNL     1     112.733 130.776 146.301  0.00  0.00    +0.000 A 
ATOM     28  C   UNL     1     111.963 130.310 145.780  0.00  0.00    +0.000 A 
ATOM     29  O   UNL     1     113.570 132.326 147.032  0.00  0.00    +0.000 OA
ENDBRANCH  19  23
BRANCH  11  30
ATOM     30  O   UNL     1     106.657 128.400 145.412  0.00  0.00    +0.000 OA
ATOM     31  C   UNL     1     106.375 127.555 145.191  0.00  0.00    +0.000 C 
ENDBRANCH  11  30
ENDBRANCH  10  18
ENDBRANCH   2  10
BRANCH   4  32
ATOM     32  C   UNL     1     114.349 129.688 140.448  0.00  0.00    +0.000 C 
BRANCH  32  33
ATOM     33  O   UNL     1     113.930 128.993 140.397  0.00  0.00    +0.000 OA
BRANCH  33  38
ATOM     34  C   UNL     1     113.377 128.556 138.420  0.00  0.00    +0.000 C 
ATOM     35  C   UNL     1     113.058 127.739 137.814  0.00  0.00    +0.000 C 
ATOM     36  C   UNL     1     113.325 127.877 138.837  0.00  0.00    +0.000 C 
ATOM     37  C   UNL     1     113.457 127.446 139.810  0.00  0.00    +0.000 C 
ATOM     38  C   UNL     1     113.775 128.263 140.415  0.00  0.00    +0.000 C 
ATOM     39  O   UNL     1     113.508 128.126 139.392  0.00  0.00    +0.000 OA
ATOM     40  C   UNL     1     113.145 128.450 137.518  0.00  0.00    +0.000 C 
ATOM     41  O   UNL     1     112.899 127.720 137.145  0.00  0.00    +0.000 OA
ATOM     42  O   UNL     1     113.247 126.576 139.724  0.00  0.00    +0.000 OA
BRANCH  36  43
ATOM     43  O   UNL     1     113.032 127.125 138.280  0.00  0.00    +0.000 OA
BRANCH  43  48
ATOM     44  C   UNL     1     113.743 125.583 137.630  0.00  0.00    +0.000 C 
ATOM     45  C   UNL     1     113.495 124.593 137.322  0.00  0.00    +0.000 C 
ATOM     46  C   UNL     1     112.961 125.434 137.699  0.00  0.00    +0.000 C 
ATOM     47  C   UNL     1     112.022 125.859 137.994  0.00  0.00    +0.000 C 
ATOM     48  C   UNL     1     112.269 126.849 138.302  0.00  0.00    +0.000 C 
ATOM     49  O   UNL     1     112.804 126.008 137.924  0.00  0.00    +0.000 OA
ATOM     50  C   UNL     1     114.176 124.928 137.334  0.00  0.00    +0.000 C 
ATOM     51  O   UNL     1     113.630 123.964 137.081  0.00  0.00    +0.000 OA
ATOM     52  O   UNL     1     112.733 124.525 137.416  0.00  0.00    +0.000 OA
ATOM     53  O   UNL     1     111.408 125.215 137.863  0.00  0.00    +0.000 OA
ENDBRANCH  43  48
ENDBRANCH  36  43
ENDBRANCH  33  38
ENDBRANCH  32  33
ENDBRANCH   4  32
TORSDOF 9
ENDMDL
MODEL 10
REMARK VINA RESULT:     -10.5      4.391      6.649
REMARK  Name = 
REMARK  9 active torsions:
REMARK  status: ('A' for Active; 'I' for Inactive)
REMARK    1  A    between atoms: C_1  and  O_52
REMARK    2  A    between atoms: C_8  and  O_18
REMARK    3  A    between atoms: C_9  and  C_12
REMARK    4  A    between atoms: O_18  and  C_28
REMARK    5  A    between atoms: C_22  and  O_39
REMARK    6  A    between atoms: C_24  and  O_37
REMARK    7  A    between atoms: C_30  and  C_36
REMARK    8  A    between atoms: C_36  and  O_37
REMARK    9  A    between atoms: O_39  and  C_46
REMARK                            x       y       z     vdW  Elec       q    Type
REMARK                         _______ _______ _______ _____ _____    ______ ____
ROOT
ATOM      1  C   UNL     1     107.389 129.802 142.756  0.00  0.00    +0.000 C 
ATOM      2  C   UNL     1     107.804 129.833 143.737  0.00  0.00    +0.000 C 
ATOM      3  O   UNL     1     107.044 129.271 143.244  0.00  0.00    +0.000 OA
ATOM      4  C   UNL     1     106.295 128.508 143.301  0.00  0.00    +0.000 C 
ATOM      5  C   UNL     1     105.879 128.477 142.320  0.00  0.00    +0.000 C 
ATOM      6  C   UNL     1     106.639 129.038 142.812  0.00  0.00    +0.000 C 
ATOM      7  O   UNL     1     108.123 130.351 143.215  0.00  0.00    +0.000 OA
ATOM      8  O   UNL     1     106.310 129.014 142.035  0.00  0.00    +0.000 OA
ATOM      9  O   UNL     1     105.851 128.844 141.304  0.00  0.00    +0.000 OA
ENDROOT
BRANCH   2  10
ATOM     10  O   UNL     1     108.835 130.823 143.816  0.00  0.00    +0.000 OA
BRANCH  10  18
ATOM     11  C   UNL     1     110.717 133.275 147.043  0.00  0.00    +0.000 A 
ATOM     12  C   UNL     1     109.705 133.406 147.016  0.00  0.00    +0.000 A 
ATOM     13  C   UNL     1     109.145 132.906 146.326  0.00  0.00    +0.000 A 
ATOM     14  C   UNL     1     109.595 132.275 145.664  0.00  0.00    +0.000 A 
ATOM     15  C   UNL     1     110.607 132.144 145.692  0.00  0.00    +0.000 A 
ATOM     16  C   UNL     1     111.166 132.644 146.381  0.00  0.00    +0.000 A 
ATOM     17  C   UNL     1     109.035 131.775 144.974  0.00  0.00    +0.000 A 
ATOM     18  C   UNL     1     109.486 131.144 144.312  0.00  0.00    +0.000 A 
ATOM     19  C   UNL     1     110.497 131.013 144.340  0.00  0.00    +0.000 A 
ATOM     20  O   UNL     1     111.056 131.513 145.030  0.00  0.00    +0.000 OA
ATOM     21  O   UNL     1     108.247 131.878 144.953  0.00  0.00    +0.000 OA
ATOM     22  O   UNL     1     108.135 133.038 146.299  0.00  0.00    +0.000 OA
BRANCH  19  23
ATOM     23  C   UNL     1     110.946 130.382 143.678  0.00  0.00    +0.000 A 
ATOM     24  C   UNL     1     111.202 130.719 142.729  0.00  0.00    +0.000 A 
ATOM     25  C   UNL     1     111.660 130.075 142.054  0.00  0.00    +0.000 A 
ATOM     26  C   UNL     1     111.863 129.094 142.329  0.00  0.00    +0.000 A 
ATOM     27  C   UNL     1     111.608 128.756 143.278  0.00  0.00    +0.000 A 
ATOM     28  C   UNL     1     111.149 129.400 143.952  0.00  0.00    +0.000 A 
ATOM     29  O   UNL     1     112.376 128.374 141.575  0.00  0.00    +0.000 OA
ENDBRANCH  19  23
BRANCH  11  30
ATOM     30  O   UNL     1     111.285 133.676 147.618  0.00  0.00    +0.000 OA
ATOM     31  C   UNL     1     111.277 133.321 148.464  0.00  0.00    +0.000 C 
ENDBRANCH  11  30
ENDBRANCH  10  18
ENDBRANCH   2  10
BRANCH   4  32
ATOM     32  C   UNL     1     105.577 127.877 143.094  0.00  0.00    +0.000 C 
BRANCH  32  33
ATOM     33  O   UNL     1     105.740 127.711 143.873  0.00  0.00    +0.000 OA
BRANCH  33  38
ATOM     34  C   UNL     1     105.966 125.670 144.308  0.00  0.00    +0.000 C 
ATOM     35  C   UNL     1     105.970 124.999 145.136  0.00  0.00    +0.000 C 
ATOM     36  C   UNL     1     105.845 126.049 145.001  0.00  0.00    +0.000 C 
ATOM     37  C   UNL     1     105.672 127.010 145.443  0.00  0.00    +0.000 C 
ATOM     38  C   UNL     1     105.668 127.681 144.615  0.00  0.00    +0.000 C 
ATOM     39  O   UNL     1     105.793 126.631 144.750  0.00  0.00    +0.000 OA
ATOM     40  C   UNL     1     106.078 124.745 144.412  0.00  0.00    +0.000 C 
ATOM     41  O   UNL     1     106.059 124.317 145.153  0.00  0.00    +0.000 OA
ATOM     42  O   UNL     1     105.600 126.865 146.327  0.00  0.00    +0.000 OA
BRANCH  36  43
ATOM     43  O   UNL     1     105.848 125.433 145.763  0.00  0.00    +0.000 OA
BRANCH  43  48
ATOM     44  C   UNL     1     106.864 125.124 147.239  0.00  0.00    +0.000 C 
ATOM     45  C   UNL     1     106.828 124.749 148.236  0.00  0.00    +0.000 C 
ATOM     46  C   UNL     1     106.130 124.880 147.441  0.00  0.00    +0.000 C 
ATOM     47  C   UNL     1     105.124 124.778 147.087  0.00  0.00    +0.000 C 
ATOM     48  C   UNL     1     105.160 125.153 146.090  0.00  0.00    +0.000 C 
ATOM     49  O   UNL     1     105.858 125.022 146.885  0.00  0.00    +0.000 OA
ATOM     50  C   UNL     1     107.423 125.026 147.857  0.00  0.00    +0.000 C 
ATOM     51  O   UNL     1     107.091 124.584 148.850  0.00  0.00    +0.000 OA
ATOM     52  O   UNL     1     106.097 124.536 148.358  0.00  0.00    +0.000 OA
ATOM     53  O   UNL     1     104.659 124.420 147.768  0.00  0.00    +0.000 OA
ENDBRANCH  43  48
ENDBRANCH  36  43
ENDBRANCH  33  38
ENDBRANCH  32  33
ENDBRANCH   4  32
TORSDOF 9
ENDMDL
