MODEL 1
REMARK VINA RESULT:      -7.8      0.000      0.000
REMARK  Name = 
REMARK  3 active torsions:
REMARK  status: ('A' for Active; 'I' for Inactive)
REMARK    1  A    between atoms: C_10  and  C_13
REMARK    2  A    between atoms: C_12  and  O_20
REMARK    3  A    between atoms: C_18  and  O_21
REMARK                            x       y       z     vdW  Elec       q    Type
REMARK                         _______ _______ _______ _____ _____    ______ ____
ROOT
ATOM      1  C   UNL     1     112.415 128.487 135.575  0.00  0.00    +0.000 C 
ATOM      2  C   UNL     1     113.470 125.886 136.635  0.00  0.00    +0.000 A 
ATOM      3  C   UNL     1     112.150 123.669 136.990  0.00  0.00    +0.000 C 
ATOM      4  C   UNL     1     111.805 127.700 135.666  0.00  0.00    +0.000 C 
ATOM      5  C   UNL     1     113.377 128.407 135.837  0.00  0.00    +0.000 C 
ATOM      6  C   UNL     1     113.118 126.753 136.281  0.00  0.00    +0.000 A 
ATOM      7  C   UNL     1     112.860 125.099 136.726  0.00  0.00    +0.000 A 
ATOM      8  C   UNL     1     112.157 126.833 136.019  0.00  0.00    +0.000 A 
ATOM      9  C   UNL     1     111.898 125.179 136.464  0.00  0.00    +0.000 A 
ATOM     10  C   UNL     1     111.547 126.046 136.111  0.00  0.00    +0.000 A 
ATOM     11  O   UNL     1     110.843 127.780 135.404  0.00  0.00    +0.000 OA
ATOM     12  O   UNL     1     113.015 124.166 137.051  0.00  0.00    +0.000 OA
ATOM     13  O   UNL     1     111.459 124.295 136.627  0.00  0.00    +0.000 OA
ATOM     14  O   UNL     1     113.729 127.540 136.190  0.00  0.00    +0.000 OA
ENDROOT
BRANCH   5  19
ATOM     15  C   UNL     1     115.104 130.125 134.805  0.00  0.00    +0.000 A 
ATOM     16  C   UNL     1     115.207 130.768 135.563  0.00  0.00    +0.000 A 
ATOM     17  C   UNL     1     114.494 129.338 134.896  0.00  0.00    +0.000 A 
ATOM     18  C   UNL     1     114.700 130.625 136.413  0.00  0.00    +0.000 A 
ATOM     19  C   UNL     1     113.987 129.194 135.746  0.00  0.00    +0.000 A 
ATOM     20  C   UNL     1     114.089 129.838 136.504  0.00  0.00    +0.000 A 
BRANCH  20  22
ATOM     21  C   UNL     1     113.710 130.319 138.124  0.00  0.00    +0.000 C 
ATOM     22  O   UNL     1     113.582 129.694 137.354  0.00  0.00    +0.000 OA
ENDBRANCH  20  22
ENDBRANCH   5  19
BRANCH  10  24
ATOM     23  C   UNL     1     110.206 125.521 135.148  0.00  0.00    +0.000 C 
ATOM     24  O   UNL     1     110.585 126.126 135.849  0.00  0.00    +0.000 OA
ENDBRANCH  10  24
TORSDOF 3
ENDMDL
MODEL 2
REMARK VINA RESULT:      -7.7      1.104      5.122
REMARK  Name = 
REMARK  3 active torsions:
REMARK  status: ('A' for Active; 'I' for Inactive)
REMARK    1  A    between atoms: C_10  and  C_13
REMARK    2  A    between atoms: C_12  and  O_20
REMARK    3  A    between atoms: C_18  and  O_21
REMARK                            x       y       z     vdW  Elec       q    Type
REMARK                         _______ _______ _______ _____ _____    ______ ____
ROOT
ATOM      1  C   UNL     1     112.540 127.249 137.542  0.00  0.00    +0.000 C 
ATOM      2  C   UNL     1     114.262 128.535 135.448  0.00  0.00    +0.000 A 
ATOM      3  C   UNL     1     115.067 131.010 135.362  0.00  0.00    +0.000 C 
ATOM      4  C   UNL     1     112.784 128.216 137.619  0.00  0.00    +0.000 C 
ATOM      5  C   UNL     1     112.871 126.711 136.766  0.00  0.00    +0.000 C 
ATOM      6  C   UNL     1     113.688 128.106 136.146  0.00  0.00    +0.000 A 
ATOM      7  C   UNL     1     114.506 129.501 135.526  0.00  0.00    +0.000 A 
ATOM      8  C   UNL     1     113.358 128.644 136.921  0.00  0.00    +0.000 A 
ATOM      9  C   UNL     1     114.175 130.040 136.301  0.00  0.00    +0.000 A 
ATOM     10  C   UNL     1     113.601 129.611 136.999  0.00  0.00    +0.000 A 
ATOM     11  O   UNL     1     112.453 128.754 138.394  0.00  0.00    +0.000 OA
ATOM     12  O   UNL     1     115.057 130.101 134.946  0.00  0.00    +0.000 OA
ATOM     13  O   UNL     1     114.522 130.972 136.200  0.00  0.00    +0.000 OA
ATOM     14  O   UNL     1     113.445 127.139 136.069  0.00  0.00    +0.000 OA
ENDROOT
BRANCH   5  19
ATOM     15  C   UNL     1     112.962 124.080 137.036  0.00  0.00    +0.000 A 
ATOM     16  C   UNL     1     112.141 123.810 136.534  0.00  0.00    +0.000 A 
ATOM     17  C   UNL     1     113.206 125.047 137.113  0.00  0.00    +0.000 A 
ATOM     18  C   UNL     1     111.563 124.507 136.109  0.00  0.00    +0.000 A 
ATOM     19  C   UNL     1     112.628 125.744 136.689  0.00  0.00    +0.000 A 
ATOM     20  C   UNL     1     111.806 125.474 136.187  0.00  0.00    +0.000 A 
BRANCH  20  22
ATOM     21  C   UNL     1     110.443 125.898 135.206  0.00  0.00    +0.000 C 
ATOM     22  O   UNL     1     111.228 126.171 135.762  0.00  0.00    +0.000 OA
ENDBRANCH  20  22
ENDBRANCH   5  19
BRANCH  10  24
ATOM     23  C   UNL     1     113.921 130.616 138.373  0.00  0.00    +0.000 C 
ATOM     24  O   UNL     1     113.270 130.149 137.774  0.00  0.00    +0.000 OA
ENDBRANCH  10  24
TORSDOF 3
ENDMDL
MODEL 3
REMARK VINA RESULT:      -7.5     13.229     14.954
REMARK  Name = 
REMARK  3 active torsions:
REMARK  status: ('A' for Active; 'I' for Inactive)
REMARK    1  A    between atoms: C_10  and  C_13
REMARK    2  A    between atoms: C_12  and  O_20
REMARK    3  A    between atoms: C_18  and  O_21
REMARK                            x       y       z     vdW  Elec       q    Type
REMARK                         _______ _______ _______ _____ _____    ______ ____
ROOT
ATOM      1  C   UNL     1     103.600 124.670 146.500  0.00  0.00    +0.000 C 
ATOM      2  C   UNL     1     105.939 124.567 148.376  0.00  0.00    +0.000 A 
ATOM      3  C   UNL     1     108.423 125.140 147.841  0.00  0.00    +0.000 C 
ATOM      4  C   UNL     1     104.513 124.915 146.175  0.00  0.00    +0.000 C 
ATOM      5  C   UNL     1     103.467 124.390 147.451  0.00  0.00    +0.000 C 
ATOM      6  C   UNL     1     105.159 124.601 147.751  0.00  0.00    +0.000 A 
ATOM      7  C   UNL     1     106.852 124.813 148.050  0.00  0.00    +0.000 A 
ATOM      8  C   UNL     1     105.293 124.881 146.800  0.00  0.00    +0.000 A 
ATOM      9  C   UNL     1     106.985 125.092 147.100  0.00  0.00    +0.000 A 
ATOM     10  C   UNL     1     106.206 125.127 146.474  0.00  0.00    +0.000 A 
ATOM     11  O   UNL     1     104.646 125.195 145.224  0.00  0.00    +0.000 OA
ATOM     12  O   UNL     1     107.740 124.842 148.509  0.00  0.00    +0.000 OA
ATOM     13  O   UNL     1     107.956 125.295 146.970  0.00  0.00    +0.000 OA
ATOM     14  O   UNL     1     104.246 124.356 148.076  0.00  0.00    +0.000 OA
ENDROOT
BRANCH   5  19
ATOM     15  C   UNL     1     101.296 122.969 147.971  0.00  0.00    +0.000 A 
ATOM     16  C   UNL     1     100.727 123.653 148.427  0.00  0.00    +0.000 A 
ATOM     17  C   UNL     1     102.209 123.214 147.646  0.00  0.00    +0.000 A 
ATOM     18  C   UNL     1     101.071 124.583 148.558  0.00  0.00    +0.000 A 
ATOM     19  C   UNL     1     102.553 124.144 147.776  0.00  0.00    +0.000 A 
ATOM     20  C   UNL     1     101.984 124.828 148.233  0.00  0.00    +0.000 A 
BRANCH  20  22
ATOM     21  C   UNL     1     101.779 126.429 148.861  0.00  0.00    +0.000 C 
ATOM     22  O   UNL     1     102.328 125.758 148.363  0.00  0.00    +0.000 OA
ENDBRANCH  20  22
ENDBRANCH   5  19
BRANCH  10  24
ATOM     23  C   UNL     1     106.596 126.349 145.311  0.00  0.00    +0.000 C 
ATOM     24  O   UNL     1     106.339 125.407 145.524  0.00  0.00    +0.000 OA
ENDBRANCH  10  24
TORSDOF 3
ENDMDL
MODEL 4
REMARK VINA RESULT:      -7.4      1.726      4.978
REMARK  Name = 
REMARK  3 active torsions:
REMARK  status: ('A' for Active; 'I' for Inactive)
REMARK    1  A    between atoms: C_10  and  C_13
REMARK    2  A    between atoms: C_12  and  O_20
REMARK    3  A    between atoms: C_18  and  O_21
REMARK                            x       y       z     vdW  Elec       q    Type
REMARK                         _______ _______ _______ _____ _____    ______ ____
ROOT
ATOM      1  C   UNL     1     113.507 127.613 136.369  0.00  0.00    +0.000 C 
ATOM      2  C   UNL     1     111.734 128.705 138.529  0.00  0.00    +0.000 A 
ATOM      3  C   UNL     1     111.076 131.193 138.929  0.00  0.00    +0.000 C 
ATOM      4  C   UNL     1     113.328 128.596 136.420  0.00  0.00    +0.000 C 
ATOM      5  C   UNL     1     113.095 126.995 137.039  0.00  0.00    +0.000 C 
ATOM      6  C   UNL     1     112.325 128.341 137.809  0.00  0.00    +0.000 A 
ATOM      7  C   UNL     1     111.554 129.688 138.579  0.00  0.00    +0.000 A 
ATOM      8  C   UNL     1     112.737 128.960 137.140  0.00  0.00    +0.000 A 
ATOM      9  C   UNL     1     111.966 130.306 137.910  0.00  0.00    +0.000 A 
ATOM     10  C   UNL     1     112.557 129.942 137.190  0.00  0.00    +0.000 A 
ATOM     11  O   UNL     1     113.740 129.214 135.751  0.00  0.00    +0.000 OA
ATOM     12  O   UNL     1     111.004 130.236 139.209  0.00  0.00    +0.000 OA
ATOM     13  O   UNL     1     111.671 131.236 138.126  0.00  0.00    +0.000 OA
ATOM     14  O   UNL     1     112.504 127.359 137.758  0.00  0.00    +0.000 OA
ENDROOT
BRANCH   5  19
ATOM     15  C   UNL     1     114.305 124.657 137.307  0.00  0.00    +0.000 A 
ATOM     16  C   UNL     1     113.633 124.047 136.887  0.00  0.00    +0.000 A 
ATOM     17  C   UNL     1     114.126 125.639 137.357  0.00  0.00    +0.000 A 
ATOM     18  C   UNL     1     112.781 124.420 136.518  0.00  0.00    +0.000 A 
ATOM     19  C   UNL     1     113.274 126.012 136.988  0.00  0.00    +0.000 A 
ATOM     20  C   UNL     1     112.602 125.402 136.568  0.00  0.00    +0.000 A 
BRANCH  20  22
ATOM     21  C   UNL     1     111.055 125.160 135.829  0.00  0.00    +0.000 C 
ATOM     22  O   UNL     1     111.751 125.775 136.199  0.00  0.00    +0.000 OA
ENDBRANCH  20  22
ENDBRANCH   5  19
BRANCH  10  24
ATOM     23  C   UNL     1     113.565 131.303 136.827  0.00  0.00    +0.000 C 
ATOM     24  O   UNL     1     112.969 130.560 136.521  0.00  0.00    +0.000 OA
ENDBRANCH  10  24
TORSDOF 3
ENDMDL
MODEL 5
REMARK VINA RESULT:      -7.4      3.698      4.976
REMARK  Name = 
REMARK  3 active torsions:
REMARK  status: ('A' for Active; 'I' for Inactive)
REMARK    1  A    between atoms: C_10  and  C_13
REMARK    2  A    between atoms: C_12  and  O_20
REMARK    3  A    between atoms: C_18  and  O_21
REMARK                            x       y       z     vdW  Elec       q    Type
REMARK                         _______ _______ _______ _____ _____    ______ ____
ROOT
ATOM      1  C   UNL     1     113.676 126.640 139.490  0.00  0.00    +0.000 C 
ATOM      2  C   UNL     1     110.702 126.260 139.577  0.00  0.00    +0.000 A 
ATOM      3  C   UNL     1     109.085 126.870 141.526  0.00  0.00    +0.000 C 
ATOM      4  C   UNL     1     113.161 126.915 140.301  0.00  0.00    +0.000 C 
ATOM      5  C   UNL     1     113.201 126.237 138.708  0.00  0.00    +0.000 C 
ATOM      6  C   UNL     1     111.693 126.387 139.548  0.00  0.00    +0.000 A 
ATOM      7  C   UNL     1     110.186 126.536 140.389  0.00  0.00    +0.000 A 
ATOM      8  C   UNL     1     112.169 126.789 140.330  0.00  0.00    +0.000 A 
ATOM      9  C   UNL     1     110.662 126.938 141.171  0.00  0.00    +0.000 A 
ATOM     10  C   UNL     1     111.654 127.065 141.142  0.00  0.00    +0.000 A 
ATOM     11  O   UNL     1     113.637 127.318 141.083  0.00  0.00    +0.000 OA
ATOM     12  O   UNL     1     109.212 126.494 140.608  0.00  0.00    +0.000 OA
ATOM     13  O   UNL     1     109.982 127.145 141.874  0.00  0.00    +0.000 OA
ATOM     14  O   UNL     1     112.209 126.111 138.737  0.00  0.00    +0.000 OA
ENDROOT
BRANCH   5  19
ATOM     15  C   UNL     1     114.704 124.804 137.069  0.00  0.00    +0.000 A 
ATOM     16  C   UNL     1     114.747 125.410 136.275  0.00  0.00    +0.000 A 
ATOM     17  C   UNL     1     114.188 125.080 137.880  0.00  0.00    +0.000 A 
ATOM     18  C   UNL     1     114.276 126.291 136.291  0.00  0.00    +0.000 A 
ATOM     19  C   UNL     1     113.716 125.961 137.897  0.00  0.00    +0.000 A 
ATOM     20  C   UNL     1     113.760 126.567 137.103  0.00  0.00    +0.000 A 
BRANCH  20  22
ATOM     21  C   UNL     1     113.341 128.059 136.329  0.00  0.00    +0.000 C 
ATOM     22  O   UNL     1     113.288 127.449 137.119  0.00  0.00    +0.000 OA
ENDBRANCH  20  22
ENDBRANCH   5  19
BRANCH  10  24
ATOM     23  C   UNL     1     111.853 128.363 142.270  0.00  0.00    +0.000 C 
ATOM     24  O   UNL     1     112.130 127.467 141.924  0.00  0.00    +0.000 OA
ENDBRANCH  10  24
TORSDOF 3
ENDMDL
MODEL 6
REMARK VINA RESULT:      -7.3     11.519     13.048
REMARK  Name = 
REMARK  3 active torsions:
REMARK  status: ('A' for Active; 'I' for Inactive)
REMARK    1  A    between atoms: C_10  and  C_13
REMARK    2  A    between atoms: C_12  and  O_20
REMARK    3  A    between atoms: C_18  and  O_21
REMARK                            x       y       z     vdW  Elec       q    Type
REMARK                         _______ _______ _______ _____ _____    ______ ____
ROOT
ATOM      1  C   UNL     1     106.457 124.966 146.218  0.00  0.00    +0.000 C 
ATOM      2  C   UNL     1     105.773 127.885 146.107  0.00  0.00    +0.000 A 
ATOM      3  C   UNL     1     104.937 129.237 144.044  0.00  0.00    +0.000 C 
ATOM      4  C   UNL     1     106.144 125.374 145.361  0.00  0.00    +0.000 C 
ATOM      5  C   UNL     1     106.542 125.531 147.039  0.00  0.00    +0.000 C 
ATOM      6  C   UNL     1     106.001 126.912 146.144  0.00  0.00    +0.000 A 
ATOM      7  C   UNL     1     105.460 128.293 145.250  0.00  0.00    +0.000 A 
ATOM      8  C   UNL     1     105.916 126.347 145.324  0.00  0.00    +0.000 A 
ATOM      9  C   UNL     1     105.375 127.728 144.429  0.00  0.00    +0.000 A 
ATOM     10  C   UNL     1     105.603 126.755 144.466  0.00  0.00    +0.000 A 
ATOM     11  O   UNL     1     106.058 124.809 144.540  0.00  0.00    +0.000 OA
ATOM     12  O   UNL     1     105.189 129.226 145.012  0.00  0.00    +0.000 OA
ATOM     13  O   UNL     1     105.051 128.311 143.684  0.00  0.00    +0.000 OA
ATOM     14  O   UNL     1     106.314 126.504 147.002  0.00  0.00    +0.000 OA
ENDROOT
BRANCH   5  19
ATOM     15  C   UNL     1     108.147 124.606 148.928  0.00  0.00    +0.000 A 
ATOM     16  C   UNL     1     107.481 124.308 149.612  0.00  0.00    +0.000 A 
ATOM     17  C   UNL     1     107.834 125.014 148.070  0.00  0.00    +0.000 A 
ATOM     18  C   UNL     1     106.503 124.417 149.438  0.00  0.00    +0.000 A 
ATOM     19  C   UNL     1     106.855 125.123 147.897  0.00  0.00    +0.000 A 
ATOM     20  C   UNL     1     106.190 124.825 148.581  0.00  0.00    +0.000 A 
BRANCH  20  22
ATOM     21  C   UNL     1     104.548 124.715 149.124  0.00  0.00    +0.000 C 
ATOM     22  O   UNL     1     105.211 124.935 148.407  0.00  0.00    +0.000 OA
ENDBRANCH  20  22
ENDBRANCH   5  19
BRANCH  10  24
ATOM     23  C   UNL     1     106.012 126.439 142.813  0.00  0.00    +0.000 C 
ATOM     24  O   UNL     1     105.517 126.190 143.645  0.00  0.00    +0.000 OA
ENDBRANCH  10  24
TORSDOF 3
ENDMDL
MODEL 7
REMARK VINA RESULT:      -7.3     11.048     12.546
REMARK  Name = 
REMARK  3 active torsions:
REMARK  status: ('A' for Active; 'I' for Inactive)
REMARK    1  A    between atoms: C_10  and  C_13
REMARK    2  A    between atoms: C_12  and  O_20
REMARK    3  A    between atoms: C_18  and  O_21
REMARK                            x       y       z     vdW  Elec       q    Type
REMARK                         _______ _______ _______ _____ _____    ______ ____
ROOT
ATOM      1  C   UNL     1     106.747 126.453 146.740  0.00  0.00    +0.000 C 
ATOM      2  C   UNL     1     106.065 124.648 144.443  0.00  0.00    +0.000 A 
ATOM      3  C   UNL     1     105.500 125.343 141.998  0.00  0.00    +0.000 C 
ATOM      4  C   UNL     1     106.547 126.842 145.841  0.00  0.00    +0.000 C 
ATOM      5  C   UNL     1     106.719 125.463 146.874  0.00  0.00    +0.000 C 
ATOM      6  C   UNL     1     106.292 125.250 145.209  0.00  0.00    +0.000 A 
ATOM      7  C   UNL     1     105.865 125.037 143.544  0.00  0.00    +0.000 A 
ATOM      8  C   UNL     1     106.320 126.240 145.075  0.00  0.00    +0.000 A 
ATOM      9  C   UNL     1     105.893 126.027 143.410  0.00  0.00    +0.000 A 
ATOM     10  C   UNL     1     106.120 126.629 144.176  0.00  0.00    +0.000 A 
ATOM     11  O   UNL     1     106.575 127.833 145.707  0.00  0.00    +0.000 OA
ATOM     12  O   UNL     1     105.622 124.614 142.671  0.00  0.00    +0.000 OA
ATOM     13  O   UNL     1     105.667 126.216 142.454  0.00  0.00    +0.000 OA
ATOM     14  O   UNL     1     106.492 124.861 146.108  0.00  0.00    +0.000 OA
ENDROOT
BRANCH   5  19
ATOM     15  C   UNL     1     108.067 124.557 148.963  0.00  0.00    +0.000 A 
ATOM     16  C   UNL     1     107.318 124.296 149.572  0.00  0.00    +0.000 A 
ATOM     17  C   UNL     1     107.867 124.945 148.063  0.00  0.00    +0.000 A 
ATOM     18  C   UNL     1     106.370 124.425 149.282  0.00  0.00    +0.000 A 
ATOM     19  C   UNL     1     106.919 125.074 147.773  0.00  0.00    +0.000 A 
ATOM     20  C   UNL     1     106.170 124.814 148.383  0.00  0.00    +0.000 A 
BRANCH  20  22
ATOM     21  C   UNL     1     104.475 124.779 148.738  0.00  0.00    +0.000 C 
ATOM     22  O   UNL     1     105.222 124.943 148.093  0.00  0.00    +0.000 OA
ENDBRANCH  20  22
ENDBRANCH   5  19
BRANCH  10  24
ATOM     23  C   UNL     1     105.348 128.098 143.681  0.00  0.00    +0.000 C 
ATOM     24  O   UNL     1     106.148 127.620 144.042  0.00  0.00    +0.000 OA
ENDBRANCH  10  24
TORSDOF 3
ENDMDL
MODEL 8
REMARK VINA RESULT:      -7.3      3.706      5.014
REMARK  Name = 
REMARK  3 active torsions:
REMARK  status: ('A' for Active; 'I' for Inactive)
REMARK    1  A    between atoms: C_10  and  C_13
REMARK    2  A    between atoms: C_12  and  O_20
REMARK    3  A    between atoms: C_18  and  O_21
REMARK                            x       y       z     vdW  Elec       q    Type
REMARK                         _______ _______ _______ _____ _____    ______ ____
ROOT
ATOM      1  C   UNL     1     111.971 125.882 138.816  0.00  0.00    +0.000 C 
ATOM      2  C   UNL     1     112.889 127.846 140.889  0.00  0.00    +0.000 A 
ATOM      3  C   UNL     1     111.604 128.614 143.020  0.00  0.00    +0.000 C 
ATOM      4  C   UNL     1     111.383 126.096 139.596  0.00  0.00    +0.000 C 
ATOM      5  C   UNL     1     112.865 126.322 138.727  0.00  0.00    +0.000 C 
ATOM      6  C   UNL     1     112.583 127.191 140.198  0.00  0.00    +0.000 A 
ATOM      7  C   UNL     1     112.301 128.061 141.669  0.00  0.00    +0.000 A 
ATOM      8  C   UNL     1     111.689 126.751 140.287  0.00  0.00    +0.000 A 
ATOM      9  C   UNL     1     111.407 127.621 141.758  0.00  0.00    +0.000 A 
ATOM     10  C   UNL     1     111.101 126.966 141.067  0.00  0.00    +0.000 A 
ATOM     11  O   UNL     1     110.490 125.656 139.685  0.00  0.00    +0.000 OA
ATOM     12  O   UNL     1     112.422 128.675 142.449  0.00  0.00    +0.000 OA
ATOM     13  O   UNL     1     110.976 127.962 142.593  0.00  0.00    +0.000 OA
ATOM     14  O   UNL     1     113.170 126.977 139.418  0.00  0.00    +0.000 OA
ENDROOT
BRANCH   5  19
ATOM     15  C   UNL     1     114.643 125.095 137.199  0.00  0.00    +0.000 A 
ATOM     16  C   UNL     1     114.628 125.677 136.386  0.00  0.00    +0.000 A 
ATOM     17  C   UNL     1     114.055 125.310 137.979  0.00  0.00    +0.000 A 
ATOM     18  C   UNL     1     114.025 126.475 136.354  0.00  0.00    +0.000 A 
ATOM     19  C   UNL     1     113.452 126.107 137.947  0.00  0.00    +0.000 A 
ATOM     20  C   UNL     1     113.437 126.689 137.134  0.00  0.00    +0.000 A 
BRANCH  20  22
ATOM     21  C   UNL     1     112.833 128.079 136.296  0.00  0.00    +0.000 C 
ATOM     22  O   UNL     1     112.834 127.487 137.101  0.00  0.00    +0.000 OA
ENDBRANCH  20  22
ENDBRANCH   5  19
BRANCH  10  24
ATOM     23  C   UNL     1     109.384 127.083 141.257  0.00  0.00    +0.000 C 
ATOM     24  O   UNL     1     110.208 126.526 141.156  0.00  0.00    +0.000 OA
ENDBRANCH  10  24
TORSDOF 3
ENDMDL
MODEL 9
REMARK VINA RESULT:      -7.3      3.228      5.859
REMARK  Name = 
REMARK  3 active torsions:
REMARK  status: ('A' for Active; 'I' for Inactive)
REMARK    1  A    between atoms: C_10  and  C_13
REMARK    2  A    between atoms: C_12  and  O_20
REMARK    3  A    between atoms: C_18  and  O_21
REMARK                            x       y       z     vdW  Elec       q    Type
REMARK                         _______ _______ _______ _____ _____    ______ ____
ROOT
ATOM      1  C   UNL     1     108.851 128.545 135.732  0.00  0.00    +0.000 C 
ATOM      2  C   UNL     1     110.963 130.520 136.529  0.00  0.00    +0.000 A 
ATOM      3  C   UNL     1     110.656 133.064 136.995  0.00  0.00    +0.000 C 
ATOM      4  C   UNL     1     108.608 129.503 135.884  0.00  0.00    +0.000 C 
ATOM      5  C   UNL     1     109.798 128.245 135.846  0.00  0.00    +0.000 C 
ATOM      6  C   UNL     1     110.259 129.862 136.263  0.00  0.00    +0.000 A 
ATOM      7  C   UNL     1     110.720 131.478 136.681  0.00  0.00    +0.000 A 
ATOM      8  C   UNL     1     109.312 130.161 136.150  0.00  0.00    +0.000 A 
ATOM      9  C   UNL     1     109.773 131.778 136.567  0.00  0.00    +0.000 A 
ATOM     10  C   UNL     1     109.069 131.119 136.301  0.00  0.00    +0.000 A 
ATOM     11  O   UNL     1     107.661 129.802 135.770  0.00  0.00    +0.000 OA
ATOM     12  O   UNL     1     111.266 132.273 136.946  0.00  0.00    +0.000 OA
ATOM     13  O   UNL     1     109.733 132.758 136.761  0.00  0.00    +0.000 OA
ATOM     14  O   UNL     1     110.502 128.904 136.111  0.00  0.00    +0.000 OA
ENDROOT
BRANCH   5  19
ATOM     15  C   UNL     1     110.435 125.993 134.612  0.00  0.00    +0.000 A 
ATOM     16  C   UNL     1     110.528 125.371 135.390  0.00  0.00    +0.000 A 
ATOM     17  C   UNL     1     110.191 126.951 134.764  0.00  0.00    +0.000 A 
ATOM     18  C   UNL     1     110.378 125.708 136.320  0.00  0.00    +0.000 A 
ATOM     19  C   UNL     1     110.042 127.287 135.694  0.00  0.00    +0.000 A 
ATOM     20  C   UNL     1     110.135 126.666 136.472  0.00  0.00    +0.000 A 
BRANCH  20  22
ATOM     21  C   UNL     1     109.995 126.364 138.171  0.00  0.00    +0.000 C 
ATOM     22  O   UNL     1     109.986 127.002 137.401  0.00  0.00    +0.000 OA
ENDBRANCH  20  22
ENDBRANCH   5  19
BRANCH  10  24
ATOM     23  C   UNL     1     107.889 132.082 135.477  0.00  0.00    +0.000 C 
ATOM     24  O   UNL     1     108.121 131.418 136.188  0.00  0.00    +0.000 OA
ENDBRANCH  10  24
TORSDOF 3
ENDMDL
MODEL 10
REMARK VINA RESULT:      -7.2      0.978      2.090
REMARK  Name = 
REMARK  3 active torsions:
REMARK  status: ('A' for Active; 'I' for Inactive)
REMARK    1  A    between atoms: C_10  and  C_13
REMARK    2  A    between atoms: C_12  and  O_20
REMARK    3  A    between atoms: C_18  and  O_21
REMARK                            x       y       z     vdW  Elec       q    Type
REMARK                         _______ _______ _______ _____ _____    ______ ____
ROOT
ATOM      1  C   UNL     1     113.800 127.870 136.344  0.00  0.00    +0.000 C 
ATOM      2  C   UNL     1     111.186 127.691 134.882  0.00  0.00    +0.000 A 
ATOM      3  C   UNL     1     109.449 125.753 134.978  0.00  0.00    +0.000 C 
ATOM      4  C   UNL     1     113.214 127.068 136.463  0.00  0.00    +0.000 C 
ATOM      5  C   UNL     1     113.514 128.612 135.738  0.00  0.00    +0.000 C 
ATOM      6  C   UNL     1     112.057 127.751 135.370  0.00  0.00    +0.000 A 
ATOM      7  C   UNL     1     110.601 126.889 135.001  0.00  0.00    +0.000 A 
ATOM      8  C   UNL     1     112.343 127.009 135.976  0.00  0.00    +0.000 A 
ATOM      9  C   UNL     1     110.886 126.147 135.608  0.00  0.00    +0.000 A 
ATOM     10  C   UNL     1     111.757 126.207 136.095  0.00  0.00    +0.000 A 
ATOM     11  O   UNL     1     113.500 126.326 137.070  0.00  0.00    +0.000 OA
ATOM     12  O   UNL     1     109.712 126.645 134.612  0.00  0.00    +0.000 OA
ATOM     13  O   UNL     1     110.175 125.445 135.593  0.00  0.00    +0.000 OA
ATOM     14  O   UNL     1     112.643 128.552 135.250  0.00  0.00    +0.000 OA
ENDROOT
BRANCH   5  19
ATOM     15  C   UNL     1     115.363 130.235 134.765  0.00  0.00    +0.000 A 
ATOM     16  C   UNL     1     115.271 131.018 135.380  0.00  0.00    +0.000 A 
ATOM     17  C   UNL     1     114.778 129.433 134.884  0.00  0.00    +0.000 A 
ATOM     18  C   UNL     1     114.592 130.999 136.115  0.00  0.00    +0.000 A 
ATOM     19  C   UNL     1     114.100 129.414 135.618  0.00  0.00    +0.000 A 
ATOM     20  C   UNL     1     114.007 130.197 136.234  0.00  0.00    +0.000 A 
BRANCH  20  22
ATOM     21  C   UNL     1     113.180 130.990 137.533  0.00  0.00    +0.000 C 
ATOM     22  O   UNL     1     113.329 130.178 136.968  0.00  0.00    +0.000 OA
ENDBRANCH  20  22
ENDBRANCH   5  19
BRANCH  10  24
ATOM     23  C   UNL     1     111.439 125.160 137.438  0.00  0.00    +0.000 C 
ATOM     24  O   UNL     1     112.043 125.465 136.702  0.00  0.00    +0.000 OA
ENDBRANCH  10  24
TORSDOF 3
ENDMDL
