MODEL 1
REMARK VINA RESULT:      -9.9      0.000      0.000
REMARK  Name = 44258911
REMARK  3 active torsions:
REMARK  status: ('A' for Active; 'I' for Inactive)
REMARK    1  A    between atoms: O_2  and  C_14
REMARK    2  A    between atoms: O_2  and  C_16
REMARK    3  A    between atoms: C_17  and  C_21
REMARK                            x       y       z     vdW  Elec       q    Type
REMARK                         _______ _______ _______ _____ _____    ______ ____
ROOT
ATOM      1  O   UNL     1     105.638 124.455 147.734  0.00  0.00    +0.000 OA
ATOM      2  O   UNL     1     107.051 125.657 146.096  0.00  0.00    +0.000 OA
ATOM      3  O   UNL     1     108.174 125.628 147.000  0.00  0.00    +0.000 OA
ATOM      4  O   UNL     1     107.862 124.359 149.612  0.00  0.00    +0.000 OA
ATOM      5  C   UNL     1     105.795 125.077 146.457  0.00  0.00    +0.000 A 
ATOM      6  C   UNL     1     105.324 124.676 147.003  0.00  0.00    +0.000 A 
ATOM      7  C   UNL     1     106.580 125.256 146.642  0.00  0.00    +0.000 A 
ATOM      8  C   UNL     1     106.892 125.035 147.372  0.00  0.00    +0.000 A 
ATOM      9  C   UNL     1     106.421 124.634 147.918  0.00  0.00    +0.000 A 
ATOM     10  C   UNL     1     107.710 125.227 147.553  0.00  0.00    +0.000 A 
ATOM     11  C   UNL     1     106.736 124.398 148.683  0.00  0.00    +0.000 A 
ATOM     12  C   UNL     1     108.042 124.999 148.312  0.00  0.00    +0.000 A 
ATOM     13  C   UNL     1     107.551 124.582 148.880  0.00  0.00    +0.000 A 
ENDROOT
BRANCH   6  15
ATOM     14  O   UNL     1     102.189 123.959 146.265  0.00  0.00    +0.000 OA
ATOM     15  C   UNL     1     104.541 124.497 146.819  0.00  0.00    +0.000 A 
ATOM     16  C   UNL     1     103.927 124.929 147.162  0.00  0.00    +0.000 A 
ATOM     17  C   UNL     1     104.371 123.886 146.291  0.00  0.00    +0.000 A 
ATOM     18  C   UNL     1     103.143 124.750 146.977  0.00  0.00    +0.000 A 
ATOM     19  C   UNL     1     103.586 123.707 146.107  0.00  0.00    +0.000 A 
ATOM     20  C   UNL     1     102.973 124.139 146.450  0.00  0.00    +0.000 A 
ENDBRANCH   6  15
BRANCH   5  21
ATOM     21  O   UNL     1     105.483 125.299 145.727  0.00  0.00    +0.000 OA
BRANCH  21  29
ATOM     22  O   UNL     1     105.396 126.679 146.084  0.00  0.00    +0.000 OA
ATOM     23  O   UNL     1     105.573 127.308 143.697  0.00  0.00    +0.000 OA
ATOM     24  O   UNL     1     105.601 125.718 144.135  0.00  0.00    +0.000 OA
ATOM     25  O   UNL     1     105.428 128.479 144.850  0.00  0.00    +0.000 OA
ATOM     26  C   UNL     1     105.514 127.098 144.492  0.00  0.00    +0.000 C 
ATOM     27  C   UNL     1     105.528 126.303 144.711  0.00  0.00    +0.000 C 
ATOM     28  C   UNL     1     105.441 127.684 145.069  0.00  0.00    +0.000 C 
ATOM     29  C   UNL     1     105.469 126.094 145.508  0.00  0.00    +0.000 C 
ATOM     30  C   UNL     1     105.383 127.474 145.865  0.00  0.00    +0.000 C 
ENDBRANCH  21  29
ENDBRANCH   5  21
TORSDOF 3
ENDMDL
MODEL 2
REMARK VINA RESULT:      -9.4      1.515      4.031
REMARK  Name = 44258911
REMARK  3 active torsions:
REMARK  status: ('A' for Active; 'I' for Inactive)
REMARK    1  A    between atoms: O_2  and  C_14
REMARK    2  A    between atoms: O_2  and  C_16
REMARK    3  A    between atoms: C_17  and  C_21
REMARK                            x       y       z     vdW  Elec       q    Type
REMARK                         _______ _______ _______ _____ _____    ______ ____
ROOT
ATOM      1  O   UNL     1     103.724 125.724 147.315  0.00  0.00    +0.000 OA
ATOM      2  O   UNL     1     105.656 124.424 146.474  0.00  0.00    +0.000 OA
ATOM      3  O   UNL     1     104.790 123.342 146.074  0.00  0.00    +0.000 OA
ATOM      4  O   UNL     1     101.916 123.580 146.532  0.00  0.00    +0.000 OA
ATOM      5  C   UNL     1     105.130 125.603 147.088  0.00  0.00    +0.000 A 
ATOM      6  C   UNL     1     104.486 126.036 147.369  0.00  0.00    +0.000 A 
ATOM      7  C   UNL     1     105.012 124.857 146.754  0.00  0.00    +0.000 A 
ATOM      8  C   UNL     1     104.250 124.546 146.701  0.00  0.00    +0.000 A 
ATOM      9  C   UNL     1     103.606 124.979 146.981  0.00  0.00    +0.000 A 
ATOM     10  C   UNL     1     104.140 123.768 146.351  0.00  0.00    +0.000 A 
ATOM     11  C   UNL     1     102.808 124.665 146.931  0.00  0.00    +0.000 A 
ATOM     12  C   UNL     1     103.349 123.438 146.293  0.00  0.00    +0.000 A 
ATOM     13  C   UNL     1     102.679 123.889 146.584  0.00  0.00    +0.000 A 
ENDROOT
BRANCH   6  15
ATOM     14  O   UNL     1     104.959 129.017 148.704  0.00  0.00    +0.000 OA
ATOM     15  C   UNL     1     104.604 126.781 147.702  0.00  0.00    +0.000 A 
ATOM     16  C   UNL     1     104.766 127.429 147.218  0.00  0.00    +0.000 A 
ATOM     17  C   UNL     1     104.561 126.878 148.520  0.00  0.00    +0.000 A 
ATOM     18  C   UNL     1     104.884 128.174 147.552  0.00  0.00    +0.000 A 
ATOM     19  C   UNL     1     104.679 127.623 148.854  0.00  0.00    +0.000 A 
ATOM     20  C   UNL     1     104.841 128.271 148.370  0.00  0.00    +0.000 A 
ENDBRANCH   6  15
BRANCH   5  21
ATOM     21  O   UNL     1     105.892 125.914 147.142  0.00  0.00    +0.000 OA
BRANCH  21  29
ATOM     22  O   UNL     1     106.250 125.066 148.233  0.00  0.00    +0.000 OA
ATOM     23  O   UNL     1     108.635 125.259 147.603  0.00  0.00    +0.000 OA
ATOM     24  O   UNL     1     107.482 126.044 146.721  0.00  0.00    +0.000 OA
ATOM     25  O   UNL     1     108.198 124.346 148.906  0.00  0.00    +0.000 OA
ATOM     26  C   UNL     1     107.840 125.195 147.813  0.00  0.00    +0.000 C 
ATOM     27  C   UNL     1     107.264 125.587 147.372  0.00  0.00    +0.000 C 
ATOM     28  C   UNL     1     107.622 124.738 148.465  0.00  0.00    +0.000 C 
ATOM     29  C   UNL     1     106.468 125.522 147.583  0.00  0.00    +0.000 C 
ATOM     30  C   UNL     1     106.826 124.673 148.674  0.00  0.00    +0.000 C 
ENDBRANCH  21  29
ENDBRANCH   5  21
TORSDOF 3
ENDMDL
MODEL 3
REMARK VINA RESULT:      -9.4      1.511      3.902
REMARK  Name = 44258911
REMARK  3 active torsions:
REMARK  status: ('A' for Active; 'I' for Inactive)
REMARK    1  A    between atoms: O_2  and  C_14
REMARK    2  A    between atoms: O_2  and  C_16
REMARK    3  A    between atoms: C_17  and  C_21
REMARK                            x       y       z     vdW  Elec       q    Type
REMARK                         _______ _______ _______ _____ _____    ______ ____
ROOT
ATOM      1  O   UNL     1     102.633 124.694 147.219  0.00  0.00    +0.000 OA
ATOM      2  O   UNL     1     104.609 123.619 146.187  0.00  0.00    +0.000 OA
ATOM      3  O   UNL     1     103.764 122.739 145.418  0.00  0.00    +0.000 OA
ATOM      4  O   UNL     1     100.865 122.950 145.698  0.00  0.00    +0.000 OA
ATOM      5  C   UNL     1     104.051 124.587 147.078  0.00  0.00    +0.000 A 
ATOM      6  C   UNL     1     103.392 124.946 147.422  0.00  0.00    +0.000 A 
ATOM      7  C   UNL     1     103.950 123.978 146.531  0.00  0.00    +0.000 A 
ATOM      8  C   UNL     1     103.191 123.727 146.328  0.00  0.00    +0.000 A 
ATOM      9  C   UNL     1     102.532 124.086 146.672  0.00  0.00    +0.000 A 
ATOM     10  C   UNL     1     103.099 123.092 145.756  0.00  0.00    +0.000 A 
ATOM     11  C   UNL     1     101.736 123.833 146.468  0.00  0.00    +0.000 A 
ATOM     12  C   UNL     1     102.311 122.826 145.541  0.00  0.00    +0.000 A 
ATOM     13  C   UNL     1     101.625 123.199 145.899  0.00  0.00    +0.000 A 
ENDROOT
BRANCH   6  15
ATOM     14  O   UNL     1     103.795 127.382 149.612  0.00  0.00    +0.000 OA
ATOM     15  C   UNL     1     103.493 125.554 147.969  0.00  0.00    +0.000 A 
ATOM     16  C   UNL     1     103.345 126.336 147.749  0.00  0.00    +0.000 A 
ATOM     17  C   UNL     1     103.741 125.382 148.737  0.00  0.00    +0.000 A 
ATOM     18  C   UNL     1     103.446 126.945 148.296  0.00  0.00    +0.000 A 
ATOM     19  C   UNL     1     103.842 125.991 149.285  0.00  0.00    +0.000 A 
ATOM     20  C   UNL     1     103.694 126.772 149.064  0.00  0.00    +0.000 A 
ENDBRANCH   6  15
BRANCH   5  21
ATOM     21  O   UNL     1     104.810 124.838 147.281  0.00  0.00    +0.000 OA
BRANCH  21  29
ATOM     22  O   UNL     1     105.010 125.483 146.023  0.00  0.00    +0.000 OA
ATOM     23  O   UNL     1     107.460 125.288 146.311  0.00  0.00    +0.000 OA
ATOM     24  O   UNL     1     106.444 124.707 147.473  0.00  0.00    +0.000 OA
ATOM     25  O   UNL     1     106.843 125.999 144.956  0.00  0.00    +0.000 OA
ATOM     26  C   UNL     1     106.644 125.353 146.215  0.00  0.00    +0.000 C 
ATOM     27  C   UNL     1     106.135 125.062 146.797  0.00  0.00    +0.000 C 
ATOM     28  C   UNL     1     106.335 125.709 145.537  0.00  0.00    +0.000 C 
ATOM     29  C   UNL     1     105.318 125.128 146.700  0.00  0.00    +0.000 C 
ATOM     30  C   UNL     1     105.518 125.774 145.442  0.00  0.00    +0.000 C 
ENDBRANCH  21  29
ENDBRANCH   5  21
TORSDOF 3
ENDMDL
MODEL 4
REMARK VINA RESULT:      -9.3      1.090      3.555
REMARK  Name = 44258911
REMARK  3 active torsions:
REMARK  status: ('A' for Active; 'I' for Inactive)
REMARK    1  A    between atoms: O_2  and  C_14
REMARK    2  A    between atoms: O_2  and  C_16
REMARK    3  A    between atoms: C_17  and  C_21
REMARK                            x       y       z     vdW  Elec       q    Type
REMARK                         _______ _______ _______ _____ _____    ______ ____
ROOT
ATOM      1  O   UNL     1     104.007 124.516 148.222  0.00  0.00    +0.000 OA
ATOM      2  O   UNL     1     104.025 124.295 145.757  0.00  0.00    +0.000 OA
ATOM      3  O   UNL     1     102.604 124.053 145.741  0.00  0.00    +0.000 OA
ATOM      4  O   UNL     1     101.136 124.034 148.265  0.00  0.00    +0.000 OA
ATOM      5  C   UNL     1     104.721 124.524 146.985  0.00  0.00    +0.000 A 
ATOM      6  C   UNL     1     104.715 124.598 147.807  0.00  0.00    +0.000 A 
ATOM      7  C   UNL     1     104.019 124.369 146.579  0.00  0.00    +0.000 A 
ATOM      8  C   UNL     1     103.312 124.287 146.996  0.00  0.00    +0.000 A 
ATOM      9  C   UNL     1     103.306 124.360 147.818  0.00  0.00    +0.000 A 
ATOM     10  C   UNL     1     102.588 124.125 146.562  0.00  0.00    +0.000 A 
ATOM     11  C   UNL     1     102.575 124.277 148.263  0.00  0.00    +0.000 A 
ATOM     12  C   UNL     1     101.848 124.038 146.990  0.00  0.00    +0.000 A 
ATOM     13  C   UNL     1     101.842 124.115 147.846  0.00  0.00    +0.000 A 
ENDROOT
BRANCH   6  15
ATOM     14  O   UNL     1     107.522 125.219 149.427  0.00  0.00    +0.000 OA
ATOM     15  C   UNL     1     105.417 124.753 148.212  0.00  0.00    +0.000 A 
ATOM     16  C   UNL     1     105.561 125.507 148.514  0.00  0.00    +0.000 A 
ATOM     17  C   UNL     1     105.975 124.155 148.314  0.00  0.00    +0.000 A 
ATOM     18  C   UNL     1     106.262 125.663 148.919  0.00  0.00    +0.000 A 
ATOM     19  C   UNL     1     106.677 124.310 148.720  0.00  0.00    +0.000 A 
ATOM     20  C   UNL     1     106.820 125.064 149.022  0.00  0.00    +0.000 A 
ENDBRANCH   6  15
BRANCH   5  21
ATOM     21  O   UNL     1     105.429 124.606 146.568  0.00  0.00    +0.000 OA
BRANCH  21  29
ATOM     22  O   UNL     1     105.095 125.908 146.085  0.00  0.00    +0.000 OA
ATOM     23  O   UNL     1     106.565 125.558 144.125  0.00  0.00    +0.000 OA
ATOM     24  O   UNL     1     106.409 124.372 145.262  0.00  0.00    +0.000 OA
ATOM     25  O   UNL     1     105.742 126.978 144.295  0.00  0.00    +0.000 OA
ATOM     26  C   UNL     1     106.075 125.674 144.778  0.00  0.00    +0.000 C 
ATOM     27  C   UNL     1     105.997 125.081 145.347  0.00  0.00    +0.000 C 
ATOM     28  C   UNL     1     105.663 126.385 144.863  0.00  0.00    +0.000 C 
ATOM     29  C   UNL     1     105.507 125.199 146.000  0.00  0.00    +0.000 C 
ATOM     30  C   UNL     1     105.173 126.501 145.516  0.00  0.00    +0.000 C 
ENDBRANCH  21  29
ENDBRANCH   5  21
TORSDOF 3
ENDMDL
MODEL 5
REMARK VINA RESULT:      -9.2      1.714      4.062
REMARK  Name = 44258911
REMARK  3 active torsions:
REMARK  status: ('A' for Active; 'I' for Inactive)
REMARK    1  A    between atoms: O_2  and  C_14
REMARK    2  A    between atoms: O_2  and  C_16
REMARK    3  A    between atoms: C_17  and  C_21
REMARK                            x       y       z     vdW  Elec       q    Type
REMARK                         _______ _______ _______ _____ _____    ______ ____
ROOT
ATOM      1  O   UNL     1     105.047 124.226 146.906  0.00  0.00    +0.000 OA
ATOM      2  O   UNL     1     103.466 125.671 148.146  0.00  0.00    +0.000 OA
ATOM      3  O   UNL     1     102.339 125.001 147.544  0.00  0.00    +0.000 OA
ATOM      4  O   UNL     1     102.820 122.830 145.652  0.00  0.00    +0.000 OA
ATOM      5  C   UNL     1     104.807 125.288 147.831  0.00  0.00    +0.000 A 
ATOM      6  C   UNL     1     105.334 124.807 147.418  0.00  0.00    +0.000 A 
ATOM      7  C   UNL     1     103.993 125.189 147.733  0.00  0.00    +0.000 A 
ATOM      8  C   UNL     1     103.708 124.609 147.221  0.00  0.00    +0.000 A 
ATOM      9  C   UNL     1     104.235 124.127 146.807  0.00  0.00    +0.000 A 
ATOM     10  C   UNL     1     102.858 124.515 147.127  0.00  0.00    +0.000 A 
ATOM     11  C   UNL     1     103.949 123.519 146.271  0.00  0.00    +0.000 A 
ATOM     12  C   UNL     1     102.555 123.913 146.595  0.00  0.00    +0.000 A 
ATOM     13  C   UNL     1     103.104 123.411 146.164  0.00  0.00    +0.000 A 
ENDROOT
BRANCH   6  15
ATOM     14  O   UNL     1     108.586 125.204 147.812  0.00  0.00    +0.000 OA
ATOM     15  C   UNL     1     106.146 124.906 147.516  0.00  0.00    +0.000 A 
ATOM     16  C   UNL     1     106.516 124.633 148.202  0.00  0.00    +0.000 A 
ATOM     17  C   UNL     1     106.590 125.278 146.929  0.00  0.00    +0.000 A 
ATOM     18  C   UNL     1     107.328 124.732 148.300  0.00  0.00    +0.000 A 
ATOM     19  C   UNL     1     107.404 125.378 147.028  0.00  0.00    +0.000 A 
ATOM     20  C   UNL     1     107.772 125.104 147.713  0.00  0.00    +0.000 A 
ENDBRANCH   6  15
BRANCH   5  21
ATOM     21  O   UNL     1     105.092 125.869 148.343  0.00  0.00    +0.000 OA
BRANCH  21  29
ATOM     22  O   UNL     1     104.767 126.929 147.444  0.00  0.00    +0.000 OA
ATOM     23  O   UNL     1     104.651 128.508 149.346  0.00  0.00    +0.000 OA
ATOM     24  O   UNL     1     105.015 126.921 149.612  0.00  0.00    +0.000 OA
ATOM     25  O   UNL     1     104.364 129.043 147.811  0.00  0.00    +0.000 OA
ATOM     26  C   UNL     1     104.690 127.982 148.712  0.00  0.00    +0.000 C 
ATOM     27  C   UNL     1     104.872 127.188 148.845  0.00  0.00    +0.000 C 
ATOM     28  C   UNL     1     104.546 128.249 147.944  0.00  0.00    +0.000 C 
ATOM     29  C   UNL     1     104.910 126.662 148.210  0.00  0.00    +0.000 C 
ATOM     30  C   UNL     1     104.585 127.723 147.311  0.00  0.00    +0.000 C 
ENDBRANCH  21  29
ENDBRANCH   5  21
TORSDOF 3
ENDMDL
MODEL 6
REMARK VINA RESULT:      -9.2     11.941     12.985
REMARK  Name = 44258911
REMARK  3 active torsions:
REMARK  status: ('A' for Active; 'I' for Inactive)
REMARK    1  A    between atoms: O_2  and  C_14
REMARK    2  A    between atoms: O_2  and  C_16
REMARK    3  A    between atoms: C_17  and  C_21
REMARK                            x       y       z     vdW  Elec       q    Type
REMARK                         _______ _______ _______ _____ _____    ______ ____
ROOT
ATOM      1  O   UNL     1     111.911 125.801 136.093  0.00  0.00    +0.000 OA
ATOM      2  O   UNL     1     111.533 128.238 136.305  0.00  0.00    +0.000 OA
ATOM      3  O   UNL     1     110.293 128.137 135.576  0.00  0.00    +0.000 OA
ATOM      4  O   UNL     1     109.419 125.523 134.614  0.00  0.00    +0.000 OA
ATOM      5  C   UNL     1     112.335 127.083 136.562  0.00  0.00    +0.000 A 
ATOM      6  C   UNL     1     112.461 126.271 136.491  0.00  0.00    +0.000 A 
ATOM      7  C   UNL     1     111.659 127.426 136.235  0.00  0.00    +0.000 A 
ATOM      8  C   UNL     1     111.110 126.956 135.837  0.00  0.00    +0.000 A 
ATOM      9  C   UNL     1     111.236 126.144 135.766  0.00  0.00    +0.000 A 
ATOM     10  C   UNL     1     110.410 127.324 135.500  0.00  0.00    +0.000 A 
ATOM     11  C   UNL     1     110.671 125.644 135.354  0.00  0.00    +0.000 A 
ATOM     12  C   UNL     1     109.835 126.840 135.085  0.00  0.00    +0.000 A 
ATOM     13  C   UNL     1     109.966 125.995 135.011  0.00  0.00    +0.000 A 
ENDROOT
BRANCH   6  15
ATOM     14  O   UNL     1     115.163 124.901 137.801  0.00  0.00    +0.000 OA
ATOM     15  C   UNL     1     113.136 125.928 136.818  0.00  0.00    +0.000 A 
ATOM     16  C   UNL     1     113.762 125.702 136.331  0.00  0.00    +0.000 A 
ATOM     17  C   UNL     1     113.186 125.812 137.633  0.00  0.00    +0.000 A 
ATOM     18  C   UNL     1     114.437 125.360 136.658  0.00  0.00    +0.000 A 
ATOM     19  C   UNL     1     113.862 125.469 137.961  0.00  0.00    +0.000 A 
ATOM     20  C   UNL     1     114.487 125.244 137.473  0.00  0.00    +0.000 A 
ENDBRANCH   6  15
BRANCH   5  21
ATOM     21  O   UNL     1     112.884 127.553 136.960  0.00  0.00    +0.000 OA
BRANCH  21  29
ATOM     22  O   UNL     1     113.392 128.140 135.761  0.00  0.00    +0.000 OA
ATOM     23  O   UNL     1     114.040 130.166 137.026  0.00  0.00    +0.000 OA
ATOM     24  O   UNL     1     113.315 128.904 137.803  0.00  0.00    +0.000 OA
ATOM     25  O   UNL     1     114.332 130.077 135.404  0.00  0.00    +0.000 OA
ATOM     26  C   UNL     1     113.824 129.490 136.604  0.00  0.00    +0.000 C 
ATOM     27  C   UNL     1     113.462 128.859 136.993  0.00  0.00    +0.000 C 
ATOM     28  C   UNL     1     113.970 129.446 135.793  0.00  0.00    +0.000 C 
ATOM     29  C   UNL     1     113.246 128.184 136.571  0.00  0.00    +0.000 C 
ATOM     30  C   UNL     1     113.754 128.771 135.372  0.00  0.00    +0.000 C 
ENDBRANCH  21  29
ENDBRANCH   5  21
TORSDOF 3
ENDMDL
MODEL 7
REMARK VINA RESULT:      -9.2      9.918     11.623
REMARK  Name = 44258911
REMARK  3 active torsions:
REMARK  status: ('A' for Active; 'I' for Inactive)
REMARK    1  A    between atoms: O_2  and  C_14
REMARK    2  A    between atoms: O_2  and  C_16
REMARK    3  A    between atoms: C_17  and  C_21
REMARK                            x       y       z     vdW  Elec       q    Type
REMARK                         _______ _______ _______ _____ _____    ______ ____
ROOT
ATOM      1  O   UNL     1     113.523 126.228 138.684  0.00  0.00    +0.000 OA
ATOM      2  O   UNL     1     111.131 125.709 138.314  0.00  0.00    +0.000 OA
ATOM      3  O   UNL     1     110.784 126.257 139.601  0.00  0.00    +0.000 OA
ATOM      4  O   UNL     1     112.895 127.352 141.296  0.00  0.00    +0.000 OA
ATOM      5  C   UNL     1     112.486 125.694 137.858  0.00  0.00    +0.000 A 
ATOM      6  C   UNL     1     113.283 125.867 137.981  0.00  0.00    +0.000 A 
ATOM      7  C   UNL     1     111.928 125.882 138.437  0.00  0.00    +0.000 A 
ATOM      8  C   UNL     1     112.169 126.243 139.138  0.00  0.00    +0.000 A 
ATOM      9  C   UNL     1     112.966 126.416 139.262  0.00  0.00    +0.000 A 
ATOM     10  C   UNL     1     111.579 126.434 139.734  0.00  0.00    +0.000 A 
ATOM     11  C   UNL     1     113.228 126.793 139.989  0.00  0.00    +0.000 A 
ATOM     12  C   UNL     1     111.822 126.811 140.466  0.00  0.00    +0.000 A 
ATOM     13  C   UNL     1     112.652 126.991 140.595  0.00  0.00    +0.000 A 
ENDROOT
BRANCH   6  15
ATOM     14  O   UNL     1     115.512 125.114 135.667  0.00  0.00    +0.000 OA
ATOM     15  C   UNL     1     113.840 125.679 137.403  0.00  0.00    +0.000 A 
ATOM     16  C   UNL     1     114.122 124.906 137.337  0.00  0.00    +0.000 A 
ATOM     17  C   UNL     1     114.115 126.263 136.890  0.00  0.00    +0.000 A 
ATOM     18  C   UNL     1     114.679 124.718 136.759  0.00  0.00    +0.000 A 
ATOM     19  C   UNL     1     114.673 126.075 136.311  0.00  0.00    +0.000 A 
ATOM     20  C   UNL     1     114.954 125.302 136.246  0.00  0.00    +0.000 A 
ENDBRANCH   6  15
BRANCH   5  21
ATOM     21  O   UNL     1     112.246 125.332 137.157  0.00  0.00    +0.000 OA
BRANCH  21  29
ATOM     22  O   UNL     1     111.659 126.534 136.655  0.00  0.00    +0.000 OA
ATOM     23  O   UNL     1     110.180 125.200 135.186  0.00  0.00    +0.000 OA
ATOM     24  O   UNL     1     111.260 124.443 136.177  0.00  0.00    +0.000 OA
ATOM     25  O   UNL     1     110.087 126.847 135.173  0.00  0.00    +0.000 OA
ATOM     26  C   UNL     1     110.673 125.644 135.675  0.00  0.00    +0.000 C 
ATOM     27  C   UNL     1     111.213 125.266 136.171  0.00  0.00    +0.000 C 
ATOM     28  C   UNL     1     110.626 126.469 135.669  0.00  0.00    +0.000 C 
ATOM     29  C   UNL     1     111.706 125.711 136.661  0.00  0.00    +0.000 C 
ATOM     30  C   UNL     1     111.119 126.913 136.159  0.00  0.00    +0.000 C 
ENDBRANCH  21  29
ENDBRANCH   5  21
TORSDOF 3
ENDMDL
MODEL 8
REMARK VINA RESULT:      -9.2     11.600     12.778
REMARK  Name = 44258911
REMARK  3 active torsions:
REMARK  status: ('A' for Active; 'I' for Inactive)
REMARK    1  A    between atoms: O_2  and  C_14
REMARK    2  A    between atoms: O_2  and  C_16
REMARK    3  A    between atoms: C_17  and  C_21
REMARK                            x       y       z     vdW  Elec       q    Type
REMARK                         _______ _______ _______ _____ _____    ______ ____
ROOT
ATOM      1  O   UNL     1     111.878 125.859 136.041  0.00  0.00    +0.000 OA
ATOM      2  O   UNL     1     111.846 128.288 135.569  0.00  0.00    +0.000 OA
ATOM      3  O   UNL     1     110.590 128.164 134.871  0.00  0.00    +0.000 OA
ATOM      4  O   UNL     1     109.343 125.534 134.645  0.00  0.00    +0.000 OA
ATOM      5  C   UNL     1     112.485 127.148 136.149  0.00  0.00    +0.000 A 
ATOM      6  C   UNL     1     112.496 126.338 136.306  0.00  0.00    +0.000 A 
ATOM      7  C   UNL     1     111.857 127.479 135.726  0.00  0.00    +0.000 A 
ATOM      8  C   UNL     1     111.241 126.998 135.462  0.00  0.00    +0.000 A 
ATOM      9  C   UNL     1     111.251 126.188 135.619  0.00  0.00    +0.000 A 
ATOM     10  C   UNL     1     110.592 127.354 135.023  0.00  0.00    +0.000 A 
ATOM     11  C   UNL     1     110.615 125.678 135.349  0.00  0.00    +0.000 A 
ATOM     12  C   UNL     1     109.947 126.859 134.745  0.00  0.00    +0.000 A 
ATOM     13  C   UNL     1     109.959 126.016 134.909  0.00  0.00    +0.000 A 
ENDROOT
BRANCH   6  15
ATOM     14  O   UNL     1     115.006 125.019 137.994  0.00  0.00    +0.000 OA
ATOM     15  C   UNL     1     113.123 126.009 136.728  0.00  0.00    +0.000 A 
ATOM     16  C   UNL     1     113.027 125.812 137.523  0.00  0.00    +0.000 A 
ATOM     17  C   UNL     1     113.846 125.876 136.354  0.00  0.00    +0.000 A 
ATOM     18  C   UNL     1     113.654 125.483 137.945  0.00  0.00    +0.000 A 
ATOM     19  C   UNL     1     114.474 125.546 136.776  0.00  0.00    +0.000 A 
ATOM     20  C   UNL     1     114.378 125.349 137.572  0.00  0.00    +0.000 A 
ENDBRANCH   6  15
BRANCH   5  21
ATOM     21  O   UNL     1     113.101 127.628 136.413  0.00  0.00    +0.000 OA
BRANCH  21  29
ATOM     22  O   UNL     1     112.320 128.217 137.454  0.00  0.00    +0.000 OA
ATOM     23  O   UNL     1     113.721 130.254 137.355  0.00  0.00    +0.000 OA
ATOM     24  O   UNL     1     114.035 128.987 136.347  0.00  0.00    +0.000 OA
ATOM     25  O   UNL     1     112.472 130.163 138.430  0.00  0.00    +0.000 OA
ATOM     26  C   UNL     1     113.254 129.575 137.388  0.00  0.00    +0.000 C 
ATOM     27  C   UNL     1     113.411 128.941 136.884  0.00  0.00    +0.000 C 
ATOM     28  C   UNL     1     112.629 129.530 137.926  0.00  0.00    +0.000 C 
ATOM     29  C   UNL     1     112.944 128.262 136.917  0.00  0.00    +0.000 C 
ATOM     30  C   UNL     1     112.162 128.850 137.958  0.00  0.00    +0.000 C 
ENDBRANCH  21  29
ENDBRANCH   5  21
TORSDOF 3
ENDMDL
MODEL 9
REMARK VINA RESULT:      -9.1     10.166     12.150
REMARK  Name = 44258911
REMARK  3 active torsions:
REMARK  status: ('A' for Active; 'I' for Inactive)
REMARK    1  A    between atoms: O_2  and  C_14
REMARK    2  A    between atoms: O_2  and  C_16
REMARK    3  A    between atoms: C_17  and  C_21
REMARK                            x       y       z     vdW  Elec       q    Type
REMARK                         _______ _______ _______ _____ _____    ______ ____
ROOT
ATOM      1  O   UNL     1     113.509 127.158 136.359  0.00  0.00    +0.000 OA
ATOM      2  O   UNL     1     112.465 128.308 138.286  0.00  0.00    +0.000 OA
ATOM      3  O   UNL     1     112.837 129.596 137.755  0.00  0.00    +0.000 OA
ATOM      4  O   UNL     1     114.294 129.724 135.228  0.00  0.00    +0.000 OA
ATOM      5  C   UNL     1     112.797 127.100 137.596  0.00  0.00    +0.000 A 
ATOM      6  C   UNL     1     113.145 126.717 136.954  0.00  0.00    +0.000 A 
ATOM      7  C   UNL     1     112.813 127.924 137.643  0.00  0.00    +0.000 A 
ATOM      8  C   UNL     1     113.178 128.364 137.048  0.00  0.00    +0.000 A 
ATOM      9  C   UNL     1     113.526 127.981 136.406  0.00  0.00    +0.000 A 
ATOM     10  C   UNL     1     113.188 129.221 137.109  0.00  0.00    +0.000 A 
ATOM     11  C   UNL     1     113.909 128.429 135.780  0.00  0.00    +0.000 A 
ATOM     12  C   UNL     1     113.566 129.685 136.493  0.00  0.00    +0.000 A 
ATOM     13  C   UNL     1     113.929 129.286 135.824  0.00  0.00    +0.000 A 
ENDROOT
BRANCH   6  15
ATOM     14  O   UNL     1     113.078 123.423 136.765  0.00  0.00    +0.000 OA
ATOM     15  C   UNL     1     113.128 125.894 136.906  0.00  0.00    +0.000 A 
ATOM     16  C   UNL     1     113.806 125.456 137.081  0.00  0.00    +0.000 A 
ATOM     17  C   UNL     1     112.434 125.508 136.685  0.00  0.00    +0.000 A 
ATOM     18  C   UNL     1     113.789 124.634 137.034  0.00  0.00    +0.000 A 
ATOM     19  C   UNL     1     112.417 124.683 136.638  0.00  0.00    +0.000 A 
ATOM     20  C   UNL     1     113.095 124.247 136.812  0.00  0.00    +0.000 A 
ENDBRANCH   6  15
BRANCH   5  21
ATOM     21  O   UNL     1     112.432 126.661 138.191  0.00  0.00    +0.000 OA
BRANCH  21  29
ATOM     22  O   UNL     1     113.479 126.926 139.126  0.00  0.00    +0.000 OA
ATOM     23  O   UNL     1     111.917 126.499 140.997  0.00  0.00    +0.000 OA
ATOM     24  O   UNL     1     111.390 126.376 139.438  0.00  0.00    +0.000 OA
ATOM     25  O   UNL     1     113.485 126.907 141.309  0.00  0.00    +0.000 OA
ATOM     26  C   UNL     1     112.437 126.641 140.373  0.00  0.00    +0.000 C 
ATOM     27  C   UNL     1     112.174 126.580 139.594  0.00  0.00    +0.000 C 
ATOM     28  C   UNL     1     113.222 126.846 140.529  0.00  0.00    +0.000 C 
ATOM     29  C   UNL     1     112.695 126.722 138.970  0.00  0.00    +0.000 C 
ATOM     30  C   UNL     1     113.742 126.988 139.905  0.00  0.00    +0.000 C 
ENDBRANCH  21  29
ENDBRANCH   5  21
TORSDOF 3
ENDMDL
MODEL 10
REMARK VINA RESULT:      -9.0      9.225     11.031
REMARK  Name = 44258911
REMARK  3 active torsions:
REMARK  status: ('A' for Active; 'I' for Inactive)
REMARK    1  A    between atoms: O_2  and  C_14
REMARK    2  A    between atoms: O_2  and  C_16
REMARK    3  A    between atoms: C_17  and  C_21
REMARK                            x       y       z     vdW  Elec       q    Type
REMARK                         _______ _______ _______ _____ _____    ______ ____
ROOT
ATOM      1  O   UNL     1     113.799 126.217 138.302  0.00  0.00    +0.000 OA
ATOM      2  O   UNL     1     111.739 124.918 137.862  0.00  0.00    +0.000 OA
ATOM      3  O   UNL     1     112.363 124.253 136.745  0.00  0.00    +0.000 OA
ATOM      4  O   UNL     1     115.124 124.913 136.060  0.00  0.00    +0.000 OA
ATOM      5  C   UNL     1     112.448 125.891 138.634  0.00  0.00    +0.000 A 
ATOM      6  C   UNL     1     113.135 126.323 138.780  0.00  0.00    +0.000 A 
ATOM      7  C   UNL     1     112.425 125.351 138.009  0.00  0.00    +0.000 A 
ATOM      8  C   UNL     1     113.090 125.246 137.532  0.00  0.00    +0.000 A 
ATOM      9  C   UNL     1     113.777 125.679 137.678  0.00  0.00    +0.000 A 
ATOM     10  C   UNL     1     113.054 124.681 136.884  0.00  0.00    +0.000 A 
ATOM     11  C   UNL     1     114.475 125.577 137.188  0.00  0.00    +0.000 A 
ATOM     12  C   UNL     1     113.743 124.567 136.383  0.00  0.00    +0.000 A 
ATOM     13  C   UNL     1     114.458 125.017 136.536  0.00  0.00    +0.000 A 
ENDROOT
BRANCH   6  15
ATOM     14  O   UNL     1     113.224 128.479 141.277  0.00  0.00    +0.000 OA
ATOM     15  C   UNL     1     113.157 126.862 139.404  0.00  0.00    +0.000 A 
ATOM     16  C   UNL     1     113.230 126.592 140.181  0.00  0.00    +0.000 A 
ATOM     17  C   UNL     1     113.107 127.671 139.252  0.00  0.00    +0.000 A 
ATOM     18  C   UNL     1     113.252 127.130 140.804  0.00  0.00    +0.000 A 
ATOM     19  C   UNL     1     113.129 128.211 139.877  0.00  0.00    +0.000 A 
ATOM     20  C   UNL     1     113.202 127.940 140.653  0.00  0.00    +0.000 A 
ENDBRANCH   6  15
BRANCH   5  21
ATOM     21  O   UNL     1     111.784 125.996 139.111  0.00  0.00    +0.000 OA
BRANCH  21  29
ATOM     22  O   UNL     1     111.073 126.709 138.097  0.00  0.00    +0.000 OA
ATOM     23  O   UNL     1     108.926 126.053 139.139  0.00  0.00    +0.000 OA
ATOM     24  O   UNL     1     110.352 125.559 139.806  0.00  0.00    +0.000 OA
ATOM     25  O   UNL     1     108.932 126.984 137.777  0.00  0.00    +0.000 OA
ATOM     26  C   UNL     1     109.642 126.271 138.792  0.00  0.00    +0.000 C 
ATOM     27  C   UNL     1     110.355 126.024 139.125  0.00  0.00    +0.000 C 
ATOM     28  C   UNL     1     109.645 126.737 138.110  0.00  0.00    +0.000 C 
ATOM     29  C   UNL     1     111.071 126.243 138.777  0.00  0.00    +0.000 C 
ATOM     30  C   UNL     1     110.360 126.956 137.763  0.00  0.00    +0.000 C 
ENDBRANCH  21  29
ENDBRANCH   5  21
TORSDOF 3
ENDMDL
