MODEL 1
REMARK VINA RESULT:      -9.0      0.000      0.000
REMARK  Name = 
REMARK  7 active torsions:
REMARK  status: ('A' for Active; 'I' for Inactive)
REMARK    1  A    between atoms: C_1  and  O_30
REMARK    2  A    between atoms: C_3  and  O_19
REMARK    3  A    between atoms: C_9  and  C_11
REMARK    4  A    between atoms: C_13  and  O_31
REMARK    5  A    between atoms: C_15  and  O_29
REMARK    6  A    between atoms: O_19  and  C_23
REMARK    7  A    between atoms: C_25  and  C_32
REMARK                            x       y       z     vdW  Elec       q    Type
REMARK                         _______ _______ _______ _____ _____    ______ ____
ROOT
ATOM      1  C   UNL     1     106.935 127.597 143.005  0.00  0.00    +0.000 A 
ATOM      2  C   UNL     1     106.664 126.905 142.292  0.00  0.00    +0.000 A 
ATOM      3  C   UNL     1     106.264 126.001 142.578  0.00  0.00    +0.000 A 
ATOM      4  C   UNL     1     106.134 125.787 143.577  0.00  0.00    +0.000 A 
ATOM      5  C   UNL     1     106.404 126.479 144.291  0.00  0.00    +0.000 A 
ATOM      6  C   UNL     1     106.804 127.384 144.005  0.00  0.00    +0.000 A 
ATOM      7  C   UNL     1     105.734 124.883 143.864  0.00  0.00    +0.000 C 
ATOM      8  C   UNL     1     105.603 124.669 144.862  0.00  0.00    +0.000 C 
ATOM      9  C   UNL     1     105.873 125.361 145.576  0.00  0.00    +0.000 C 
ATOM     10  O   UNL     1     106.274 126.266 145.290  0.00  0.00    +0.000 OA
ATOM     11  O   UNL     1     105.203 123.765 145.149  0.00  0.00    +0.000 OA
ENDROOT
BRANCH   9  12
ATOM     12  C   UNL     1     105.743 125.148 146.575  0.00  0.00    +0.000 A 
ATOM     13  C   UNL     1     106.568 124.960 147.177  0.00  0.00    +0.000 A 
ATOM     14  C   UNL     1     106.437 124.745 148.185  0.00  0.00    +0.000 A 
ATOM     15  C   UNL     1     105.480 124.718 148.590  0.00  0.00    +0.000 A 
ATOM     16  C   UNL     1     104.656 124.907 147.987  0.00  0.00    +0.000 A 
ATOM     17  C   UNL     1     104.787 125.121 146.980  0.00  0.00    +0.000 A 
ATOM     18  O   UNL     1     105.350 124.506 149.590  0.00  0.00    +0.000 OA
BRANCH  16  19
ATOM     19  O   UNL     1     103.708 124.880 148.389  0.00  0.00    +0.000 OA
ATOM     20  C   UNL     1     103.102 124.848 147.931  0.00  0.00    +0.000 C 
ENDBRANCH  16  19
BRANCH  14  21
ATOM     21  O   UNL     1     107.255 124.559 148.783  0.00  0.00    +0.000 OA
ATOM     22  C   UNL     1     108.040 124.724 148.494  0.00  0.00    +0.000 C 
ENDBRANCH  14  21
ENDBRANCH   9  12
BRANCH   1  23
ATOM     23  O   UNL     1     107.335 128.502 142.720  0.00  0.00    +0.000 OA
ATOM     24  C   UNL     1     108.102 128.743 143.016  0.00  0.00    +0.000 C 
ENDBRANCH   1  23
BRANCH   3  25
ATOM     25  O   UNL     1     105.994 125.310 141.866  0.00  0.00    +0.000 OA
BRANCH  25  29
ATOM     26  C   UNL     1     104.987 123.449 139.165  0.00  0.00    +0.000 C 
ATOM     27  C   UNL     1     104.835 124.497 139.163  0.00  0.00    +0.000 C 
ATOM     28  C   UNL     1     105.194 124.823 140.023  0.00  0.00    +0.000 C 
ATOM     29  C   UNL     1     105.418 125.389 140.670  0.00  0.00    +0.000 C 
ATOM     30  O   UNL     1     105.495 124.487 140.557  0.00  0.00    +0.000 OA
ATOM     31  C   UNL     1     105.139 124.286 139.744  0.00  0.00    +0.000 C 
ATOM     32  O   UNL     1     104.593 122.944 138.177  0.00  0.00    +0.000 OA
ATOM     33  O   UNL     1     104.571 123.889 138.418  0.00  0.00    +0.000 OA
ATOM     34  O   UNL     1     105.000 125.830 139.920  0.00  0.00    +0.000 OA
BRANCH  31  35
ATOM     35  C   UNL     1     105.327 123.482 139.894  0.00  0.00    +0.000 C 
ATOM     36  O   UNL     1     105.562 122.981 139.658  0.00  0.00    +0.000 OA
ENDBRANCH  31  35
ENDBRANCH  25  29
ENDBRANCH   3  25
TORSDOF 7
ENDMDL
MODEL 2
REMARK VINA RESULT:      -8.5      2.435      4.185
REMARK  Name = 
REMARK  7 active torsions:
REMARK  status: ('A' for Active; 'I' for Inactive)
REMARK    1  A    between atoms: C_1  and  O_30
REMARK    2  A    between atoms: C_3  and  O_19
REMARK    3  A    between atoms: C_9  and  C_11
REMARK    4  A    between atoms: C_13  and  O_31
REMARK    5  A    between atoms: C_15  and  O_29
REMARK    6  A    between atoms: O_19  and  C_23
REMARK    7  A    between atoms: C_25  and  C_32
REMARK                            x       y       z     vdW  Elec       q    Type
REMARK                         _______ _______ _______ _____ _____    ______ ____
ROOT
ATOM      1  C   UNL     1     106.019 124.979 141.915  0.00  0.00    +0.000 A 
ATOM      2  C   UNL     1     105.762 125.956 141.716  0.00  0.00    +0.000 A 
ATOM      3  C   UNL     1     105.596 126.612 142.493  0.00  0.00    +0.000 A 
ATOM      4  C   UNL     1     105.688 126.292 143.467  0.00  0.00    +0.000 A 
ATOM      5  C   UNL     1     105.945 125.314 143.665  0.00  0.00    +0.000 A 
ATOM      6  C   UNL     1     106.111 124.658 142.889  0.00  0.00    +0.000 A 
ATOM      7  C   UNL     1     105.522 126.947 144.243  0.00  0.00    +0.000 C 
ATOM      8  C   UNL     1     105.614 126.627 145.218  0.00  0.00    +0.000 C 
ATOM      9  C   UNL     1     105.871 125.650 145.416  0.00  0.00    +0.000 C 
ATOM     10  O   UNL     1     106.037 124.993 144.640  0.00  0.00    +0.000 OA
ATOM     11  O   UNL     1     105.448 127.283 145.994  0.00  0.00    +0.000 OA
ENDROOT
BRANCH   9  12
ATOM     12  C   UNL     1     105.963 125.329 146.390  0.00  0.00    +0.000 A 
ATOM     13  C   UNL     1     105.122 125.025 146.918  0.00  0.00    +0.000 A 
ATOM     14  C   UNL     1     105.214 124.701 147.901  0.00  0.00    +0.000 A 
ATOM     15  C   UNL     1     106.148 124.682 148.356  0.00  0.00    +0.000 A 
ATOM     16  C   UNL     1     106.989 124.986 147.827  0.00  0.00    +0.000 A 
ATOM     17  C   UNL     1     106.897 125.309 146.845  0.00  0.00    +0.000 A 
ATOM     18  O   UNL     1     106.240 124.361 149.330  0.00  0.00    +0.000 OA
BRANCH  16  19
ATOM     19  O   UNL     1     107.915 124.966 148.278  0.00  0.00    +0.000 OA
ATOM     20  C   UNL     1     108.545 124.961 147.853  0.00  0.00    +0.000 C 
ENDBRANCH  16  19
BRANCH  14  21
ATOM     21  O   UNL     1     104.380 124.400 148.424  0.00  0.00    +0.000 OA
ATOM     22  C   UNL     1     103.603 124.625 148.155  0.00  0.00    +0.000 C 
ENDBRANCH  14  21
ENDBRANCH   9  12
BRANCH   1  23
ATOM     23  O   UNL     1     106.184 124.322 141.138  0.00  0.00    +0.000 OA
ATOM     24  C   UNL     1     105.610 123.710 140.966  0.00  0.00    +0.000 C 
ENDBRANCH   1  23
BRANCH   3  25
ATOM     25  O   UNL     1     105.339 127.587 142.295  0.00  0.00    +0.000 OA
BRANCH  25  29
ATOM     26  C   UNL     1     103.061 130.143 142.058  0.00  0.00    +0.000 C 
ATOM     27  C   UNL     1     103.218 129.504 141.229  0.00  0.00    +0.000 C 
ATOM     28  C   UNL     1     103.903 128.854 141.515  0.00  0.00    +0.000 C 
ATOM     29  C   UNL     1     104.466 128.168 141.475  0.00  0.00    +0.000 C 
ATOM     30  O   UNL     1     104.247 128.777 142.118  0.00  0.00    +0.000 OA
ATOM     31  C   UNL     1     103.616 129.328 141.762  0.00  0.00    +0.000 C 
ATOM     32  O   UNL     1     102.255 130.970 141.834  0.00  0.00    +0.000 OA
ATOM     33  O   UNL     1     102.576 130.267 141.239  0.00  0.00    +0.000 OA
ATOM     34  O   UNL     1     103.978 128.294 140.653  0.00  0.00    +0.000 OA
BRANCH  31  35
ATOM     35  C   UNL     1     103.606 129.739 142.494  0.00  0.00    +0.000 C 
ATOM     36  O   UNL     1     103.250 129.977 142.919  0.00  0.00    +0.000 OA
ENDBRANCH  31  35
ENDBRANCH  25  29
ENDBRANCH   3  25
TORSDOF 7
ENDMDL
MODEL 3
REMARK VINA RESULT:      -8.4      8.327     10.639
REMARK  Name = 
REMARK  7 active torsions:
REMARK  status: ('A' for Active; 'I' for Inactive)
REMARK    1  A    between atoms: C_1  and  O_30
REMARK    2  A    between atoms: C_3  and  O_19
REMARK    3  A    between atoms: C_9  and  C_11
REMARK    4  A    between atoms: C_13  and  O_31
REMARK    5  A    between atoms: C_15  and  O_29
REMARK    6  A    between atoms: O_19  and  C_23
REMARK    7  A    between atoms: C_25  and  C_32
REMARK                            x       y       z     vdW  Elec       q    Type
REMARK                         _______ _______ _______ _____ _____    ______ ____
ROOT
ATOM      1  C   UNL     1     114.157 129.498 135.903  0.00  0.00    +0.000 A 
ATOM      2  C   UNL     1     114.007 128.487 135.781  0.00  0.00    +0.000 A 
ATOM      3  C   UNL     1     113.083 128.077 135.976  0.00  0.00    +0.000 A 
ATOM      4  C   UNL     1     112.309 128.676 136.292  0.00  0.00    +0.000 A 
ATOM      5  C   UNL     1     112.459 129.688 136.415  0.00  0.00    +0.000 A 
ATOM      6  C   UNL     1     113.383 130.099 136.220  0.00  0.00    +0.000 A 
ATOM      7  C   UNL     1     111.385 128.266 136.487  0.00  0.00    +0.000 C 
ATOM      8  C   UNL     1     110.610 128.866 136.804  0.00  0.00    +0.000 C 
ATOM      9  C   UNL     1     110.760 129.878 136.926  0.00  0.00    +0.000 C 
ATOM     10  O   UNL     1     111.684 130.289 136.732  0.00  0.00    +0.000 OA
ATOM     11  O   UNL     1     109.686 128.456 136.999  0.00  0.00    +0.000 OA
ENDROOT
BRANCH   9  12
ATOM     12  C   UNL     1     109.986 130.479 137.243  0.00  0.00    +0.000 A 
ATOM     13  C   UNL     1     109.397 130.977 136.548  0.00  0.00    +0.000 A 
ATOM     14  C   UNL     1     108.616 131.583 136.867  0.00  0.00    +0.000 A 
ATOM     15  C   UNL     1     108.424 131.690 137.883  0.00  0.00    +0.000 A 
ATOM     16  C   UNL     1     109.013 131.191 138.578  0.00  0.00    +0.000 A 
ATOM     17  C   UNL     1     109.794 130.586 138.258  0.00  0.00    +0.000 A 
ATOM     18  O   UNL     1     107.650 132.291 138.199  0.00  0.00    +0.000 OA
BRANCH  16  19
ATOM     19  O   UNL     1     108.823 131.298 139.584  0.00  0.00    +0.000 OA
ATOM     20  C   UNL     1     109.000 130.737 140.066  0.00  0.00    +0.000 C 
ENDBRANCH  16  19
BRANCH  14  21
ATOM     21  O   UNL     1     108.032 132.077 136.177  0.00  0.00    +0.000 OA
ATOM     22  C   UNL     1     108.145 131.934 135.344  0.00  0.00    +0.000 C 
ENDBRANCH  14  21
ENDBRANCH   9  12
BRANCH   1  23
ATOM     23  O   UNL     1     115.081 129.909 135.708  0.00  0.00    +0.000 OA
ATOM     24  C   UNL     1     115.154 130.555 135.150  0.00  0.00    +0.000 C 
ENDBRANCH   1  23
BRANCH   3  25
ATOM     25  O   UNL     1     112.934 127.067 135.854  0.00  0.00    +0.000 OA
BRANCH  25  29
ATOM     26  C   UNL     1     112.206 123.850 136.804  0.00  0.00    +0.000 C 
ATOM     27  C   UNL     1     113.176 124.239 136.975  0.00  0.00    +0.000 C 
ATOM     28  C   UNL     1     113.161 125.164 136.629  0.00  0.00    +0.000 C 
ATOM     29  C   UNL     1     113.447 125.978 136.422  0.00  0.00    +0.000 C 
ATOM     30  O   UNL     1     112.654 125.538 136.327  0.00  0.00    +0.000 OA
ATOM     31  C   UNL     1     112.768 124.703 136.671  0.00  0.00    +0.000 C 
ATOM     32  O   UNL     1     112.102 122.740 137.179  0.00  0.00    +0.000 OA
ATOM     33  O   UNL     1     112.888 123.317 137.221  0.00  0.00    +0.000 OA
ATOM     34  O   UNL     1     114.130 125.442 136.841  0.00  0.00    +0.000 OA
BRANCH  31  35
ATOM     35  C   UNL     1     111.968 124.545 136.470  0.00  0.00    +0.000 C 
ATOM     36  O   UNL     1     111.606 124.211 136.123  0.00  0.00    +0.000 OA
ENDBRANCH  31  35
ENDBRANCH  25  29
ENDBRANCH   3  25
TORSDOF 7
ENDMDL
MODEL 4
REMARK VINA RESULT:      -8.2      5.356      8.572
REMARK  Name = 
REMARK  7 active torsions:
REMARK  status: ('A' for Active; 'I' for Inactive)
REMARK    1  A    between atoms: C_1  and  O_30
REMARK    2  A    between atoms: C_3  and  O_19
REMARK    3  A    between atoms: C_9  and  C_11
REMARK    4  A    between atoms: C_13  and  O_31
REMARK    5  A    between atoms: C_15  and  O_29
REMARK    6  A    between atoms: O_19  and  C_23
REMARK    7  A    between atoms: C_25  and  C_32
REMARK                            x       y       z     vdW  Elec       q    Type
REMARK                         _______ _______ _______ _____ _____    ______ ____
ROOT
ATOM      1  C   UNL     1     109.782 127.559 141.721  0.00  0.00    +0.000 A 
ATOM      2  C   UNL     1     108.941 127.029 141.452  0.00  0.00    +0.000 A 
ATOM      3  C   UNL     1     108.910 126.540 140.547  0.00  0.00    +0.000 A 
ATOM      4  C   UNL     1     109.718 126.579 139.910  0.00  0.00    +0.000 A 
ATOM      5  C   UNL     1     110.559 127.109 140.179  0.00  0.00    +0.000 A 
ATOM      6  C   UNL     1     110.591 127.600 141.084  0.00  0.00    +0.000 A 
ATOM      7  C   UNL     1     109.687 126.090 139.005  0.00  0.00    +0.000 C 
ATOM      8  C   UNL     1     110.495 126.129 138.368  0.00  0.00    +0.000 C 
ATOM      9  C   UNL     1     111.336 126.659 138.637  0.00  0.00    +0.000 C 
ATOM     10  O   UNL     1     111.368 127.150 139.543  0.00  0.00    +0.000 OA
ATOM     11  O   UNL     1     110.463 125.640 137.463  0.00  0.00    +0.000 OA
ENDROOT
BRANCH   9  12
ATOM     12  C   UNL     1     112.145 126.700 138.001  0.00  0.00    +0.000 A 
ATOM     13  C   UNL     1     112.194 127.435 137.270  0.00  0.00    +0.000 A 
ATOM     14  C   UNL     1     113.010 127.476 136.628  0.00  0.00    +0.000 A 
ATOM     15  C   UNL     1     113.776 126.780 136.718  0.00  0.00    +0.000 A 
ATOM     16  C   UNL     1     113.726 126.044 137.449  0.00  0.00    +0.000 A 
ATOM     17  C   UNL     1     112.911 126.004 138.091  0.00  0.00    +0.000 A 
ATOM     18  O   UNL     1     114.585 126.820 136.081  0.00  0.00    +0.000 OA
BRANCH  16  19
ATOM     19  O   UNL     1     114.486 125.354 137.538  0.00  0.00    +0.000 OA
ATOM     20  C   UNL     1     114.323 124.616 137.612  0.00  0.00    +0.000 C 
ENDBRANCH  16  19
BRANCH  14  21
ATOM     21  O   UNL     1     113.059 128.206 135.903  0.00  0.00    +0.000 OA
ATOM     22  C   UNL     1     112.393 128.722 135.773  0.00  0.00    +0.000 C 
ENDBRANCH  14  21
ENDBRANCH   9  12
BRANCH   1  23
ATOM     23  O   UNL     1     109.815 128.050 142.626  0.00  0.00    +0.000 OA
ATOM     24  C   UNL     1     109.409 128.799 142.722  0.00  0.00    +0.000 C 
ENDBRANCH   1  23
BRANCH   3  25
ATOM     25  O   UNL     1     108.070 126.011 140.278  0.00  0.00    +0.000 OA
BRANCH  25  29
ATOM     26  C   UNL     1     105.325 123.990 139.879  0.00  0.00    +0.000 C 
ATOM     27  C   UNL     1     105.987 123.819 140.687  0.00  0.00    +0.000 C 
ATOM     28  C   UNL     1     106.692 124.505 140.609  0.00  0.00    +0.000 C 
ATOM     29  C   UNL     1     107.426 124.969 140.798  0.00  0.00    +0.000 C 
ATOM     30  O   UNL     1     106.790 125.019 140.145  0.00  0.00    +0.000 OA
ATOM     31  C   UNL     1     106.191 124.352 140.302  0.00  0.00    +0.000 C 
ATOM     32  O   UNL     1     104.432 123.224 139.867  0.00  0.00    +0.000 OA
ATOM     33  O   UNL     1     105.170 123.278 140.504  0.00  0.00    +0.000 OA
ATOM     34  O   UNL     1     107.268 124.253 141.425  0.00  0.00    +0.000 OA
BRANCH  31  35
ATOM     35  C   UNL     1     105.770 124.613 139.624  0.00  0.00    +0.000 C 
ATOM     36  O   UNL     1     105.271 124.891 139.433  0.00  0.00    +0.000 OA
ENDBRANCH  31  35
ENDBRANCH  25  29
ENDBRANCH   3  25
TORSDOF 7
ENDMDL
MODEL 5
REMARK VINA RESULT:      -8.2      9.354     11.428
REMARK  Name = 
REMARK  7 active torsions:
REMARK  status: ('A' for Active; 'I' for Inactive)
REMARK    1  A    between atoms: C_1  and  O_30
REMARK    2  A    between atoms: C_3  and  O_19
REMARK    3  A    between atoms: C_9  and  C_11
REMARK    4  A    between atoms: C_13  and  O_31
REMARK    5  A    between atoms: C_15  and  O_29
REMARK    6  A    between atoms: O_19  and  C_23
REMARK    7  A    between atoms: C_25  and  C_32
REMARK                            x       y       z     vdW  Elec       q    Type
REMARK                         _______ _______ _______ _____ _____    ______ ____
ROOT
ATOM      1  C   UNL     1     114.459 130.798 135.940  0.00  0.00    +0.000 A 
ATOM      2  C   UNL     1     113.784 131.311 136.524  0.00  0.00    +0.000 A 
ATOM      3  C   UNL     1     113.041 130.800 137.020  0.00  0.00    +0.000 A 
ATOM      4  C   UNL     1     112.972 129.776 136.934  0.00  0.00    +0.000 A 
ATOM      5  C   UNL     1     113.648 129.263 136.350  0.00  0.00    +0.000 A 
ATOM      6  C   UNL     1     114.391 129.774 135.853  0.00  0.00    +0.000 A 
ATOM      7  C   UNL     1     112.229 129.265 137.430  0.00  0.00    +0.000 C 
ATOM      8  C   UNL     1     112.160 128.241 137.343  0.00  0.00    +0.000 C 
ATOM      9  C   UNL     1     112.836 127.728 136.759  0.00  0.00    +0.000 C 
ATOM     10  O   UNL     1     113.580 128.239 136.262  0.00  0.00    +0.000 OA
ATOM     11  O   UNL     1     111.417 127.730 137.839  0.00  0.00    +0.000 OA
ENDROOT
BRANCH   9  12
ATOM     12  C   UNL     1     112.768 126.704 136.672  0.00  0.00    +0.000 A 
ATOM     13  C   UNL     1     111.959 126.278 136.180  0.00  0.00    +0.000 A 
ATOM     14  C   UNL     1     111.890 125.245 136.092  0.00  0.00    +0.000 A 
ATOM     15  C   UNL     1     112.631 124.639 136.495  0.00  0.00    +0.000 A 
ATOM     16  C   UNL     1     113.440 125.066 136.987  0.00  0.00    +0.000 A 
ATOM     17  C   UNL     1     113.509 126.098 137.076  0.00  0.00    +0.000 A 
ATOM     18  O   UNL     1     112.563 123.615 136.408  0.00  0.00    +0.000 OA
BRANCH  16  19
ATOM     19  O   UNL     1     114.175 124.465 137.388  0.00  0.00    +0.000 OA
ATOM     20  C   UNL     1     114.852 124.760 137.567  0.00  0.00    +0.000 C 
ENDBRANCH  16  19
BRANCH  14  21
ATOM     21  O   UNL     1     111.088 124.822 135.604  0.00  0.00    +0.000 OA
ATOM     22  C   UNL     1     110.439 125.312 135.348  0.00  0.00    +0.000 C 
ENDBRANCH  14  21
ENDBRANCH   9  12
BRANCH   1  23
ATOM     23  O   UNL     1     115.203 131.309 135.444  0.00  0.00    +0.000 OA
ATOM     24  C   UNL     1     115.587 130.954 134.765  0.00  0.00    +0.000 C 
ENDBRANCH   1  23
BRANCH   3  25
ATOM     25  O   UNL     1     112.366 131.312 137.603  0.00  0.00    +0.000 OA
BRANCH  25  29
ATOM     26  C   UNL     1     109.052 131.801 138.348  0.00  0.00    +0.000 C 
ATOM     27  C   UNL     1     109.535 132.448 137.663  0.00  0.00    +0.000 C 
ATOM     28  C   UNL     1     110.467 132.128 137.600  0.00  0.00    +0.000 C 
ATOM     29  C   UNL     1     111.315 132.086 137.342  0.00  0.00    +0.000 C 
ATOM     30  O   UNL     1     110.797 131.598 137.913  0.00  0.00    +0.000 OA
ATOM     31  C   UNL     1     109.965 131.966 137.902  0.00  0.00    +0.000 C 
ATOM     32  O   UNL     1     107.921 132.087 138.507  0.00  0.00    +0.000 OA
ATOM     33  O   UNL     1     108.577 132.524 137.930  0.00  0.00    +0.000 OA
ATOM     34  O   UNL     1     110.837 132.811 136.924  0.00  0.00    +0.000 OA
BRANCH  31  35
ATOM     35  C   UNL     1     109.731 131.379 138.454  0.00  0.00    +0.000 C 
ATOM     36  O   UNL     1     109.418 130.869 138.525  0.00  0.00    +0.000 OA
ENDBRANCH  31  35
ENDBRANCH  25  29
ENDBRANCH   3  25
TORSDOF 7
ENDMDL
MODEL 6
REMARK VINA RESULT:      -8.2      4.005      6.313
REMARK  Name = 
REMARK  7 active torsions:
REMARK  status: ('A' for Active; 'I' for Inactive)
REMARK    1  A    between atoms: C_1  and  O_30
REMARK    2  A    between atoms: C_3  and  O_19
REMARK    3  A    between atoms: C_9  and  C_11
REMARK    4  A    between atoms: C_13  and  O_31
REMARK    5  A    between atoms: C_15  and  O_29
REMARK    6  A    between atoms: O_19  and  C_23
REMARK    7  A    between atoms: C_25  and  C_32
REMARK                            x       y       z     vdW  Elec       q    Type
REMARK                         _______ _______ _______ _____ _____    ______ ____
ROOT
ATOM      1  C   UNL     1     107.320 125.081 148.017  0.00  0.00    +0.000 A 
ATOM      2  C   UNL     1     106.349 124.779 147.853  0.00  0.00    +0.000 A 
ATOM      3  C   UNL     1     105.734 125.336 147.243  0.00  0.00    +0.000 A 
ATOM      4  C   UNL     1     106.088 126.194 146.797  0.00  0.00    +0.000 A 
ATOM      5  C   UNL     1     107.059 126.495 146.961  0.00  0.00    +0.000 A 
ATOM      6  C   UNL     1     107.675 125.939 147.571  0.00  0.00    +0.000 A 
ATOM      7  C   UNL     1     105.473 126.750 146.187  0.00  0.00    +0.000 C 
ATOM      8  C   UNL     1     105.828 127.608 145.741  0.00  0.00    +0.000 C 
ATOM      9  C   UNL     1     106.799 127.909 145.905  0.00  0.00    +0.000 C 
ATOM     10  O   UNL     1     107.414 127.353 146.515  0.00  0.00    +0.000 OA
ATOM     11  O   UNL     1     105.213 128.164 145.131  0.00  0.00    +0.000 OA
ENDROOT
BRANCH   9  12
ATOM     12  C   UNL     1     107.154 128.767 145.460  0.00  0.00    +0.000 A 
ATOM     13  C   UNL     1     107.623 128.716 144.535  0.00  0.00    +0.000 A 
ATOM     14  C   UNL     1     107.981 129.581 144.085  0.00  0.00    +0.000 A 
ATOM     15  C   UNL     1     107.870 130.498 144.561  0.00  0.00    +0.000 A 
ATOM     16  C   UNL     1     107.401 130.549 145.486  0.00  0.00    +0.000 A 
ATOM     17  C   UNL     1     107.043 129.684 145.935  0.00  0.00    +0.000 A 
ATOM     18  O   UNL     1     108.225 131.356 144.115  0.00  0.00    +0.000 OA
BRANCH  16  19
ATOM     19  O   UNL     1     107.291 131.458 145.958  0.00  0.00    +0.000 OA
ATOM     20  C   UNL     1     106.796 131.532 146.530  0.00  0.00    +0.000 C 
ENDBRANCH  16  19
BRANCH  14  21
ATOM     21  O   UNL     1     108.446 129.530 143.167  0.00  0.00    +0.000 OA
ATOM     22  C   UNL     1     108.585 128.772 142.802  0.00  0.00    +0.000 C 
ENDBRANCH  14  21
ENDBRANCH   9  12
BRANCH   1  23
ATOM     23  O   UNL     1     107.936 124.525 148.627  0.00  0.00    +0.000 OA
ATOM     24  C   UNL     1     107.691 124.340 149.428  0.00  0.00    +0.000 C 
ENDBRANCH   1  23
BRANCH   3  25
ATOM     25  O   UNL     1     104.765 125.035 147.079  0.00  0.00    +0.000 OA
BRANCH  25  29
ATOM     26  C   UNL     1     101.756 123.590 146.282  0.00  0.00    +0.000 C 
ATOM     27  C   UNL     1     102.657 123.101 146.017  0.00  0.00    +0.000 C 
ATOM     28  C   UNL     1     103.385 123.685 146.338  0.00  0.00    +0.000 C 
ATOM     29  C   UNL     1     104.209 123.974 146.498  0.00  0.00    +0.000 C 
ATOM     30  O   UNL     1     103.375 124.298 146.673  0.00  0.00    +0.000 OA
ATOM     31  C   UNL     1     102.778 123.696 146.342  0.00  0.00    +0.000 C 
ATOM     32  O   UNL     1     100.806 122.981 145.947  0.00  0.00    +0.000 OA
ATOM     33  O   UNL     1     101.745 122.747 145.821  0.00  0.00    +0.000 OA
ATOM     34  O   UNL     1     104.197 123.128 146.035  0.00  0.00    +0.000 OA
BRANCH  31  35
ATOM     35  C   UNL     1     102.164 124.199 146.616  0.00  0.00    +0.000 C 
ATOM     36  O   UNL     1     101.729 124.263 147.027  0.00  0.00    +0.000 OA
ENDBRANCH  31  35
ENDBRANCH  25  29
ENDBRANCH   3  25
TORSDOF 7
ENDMDL
MODEL 7
REMARK VINA RESULT:      -8.1      1.416      1.992
REMARK  Name = 
REMARK  7 active torsions:
REMARK  status: ('A' for Active; 'I' for Inactive)
REMARK    1  A    between atoms: C_1  and  O_30
REMARK    2  A    between atoms: C_3  and  O_19
REMARK    3  A    between atoms: C_9  and  C_11
REMARK    4  A    between atoms: C_13  and  O_31
REMARK    5  A    between atoms: C_15  and  O_29
REMARK    6  A    between atoms: O_19  and  C_23
REMARK    7  A    between atoms: C_25  and  C_32
REMARK                            x       y       z     vdW  Elec       q    Type
REMARK                         _______ _______ _______ _____ _____    ______ ____
ROOT
ATOM      1  C   UNL     1     107.900 127.527 142.050  0.00  0.00    +0.000 A 
ATOM      2  C   UNL     1     107.394 126.802 141.522  0.00  0.00    +0.000 A 
ATOM      3  C   UNL     1     106.732 126.180 142.007  0.00  0.00    +0.000 A 
ATOM      4  C   UNL     1     106.575 126.283 143.019  0.00  0.00    +0.000 A 
ATOM      5  C   UNL     1     107.081 127.008 143.547  0.00  0.00    +0.000 A 
ATOM      6  C   UNL     1     107.743 127.630 143.063  0.00  0.00    +0.000 A 
ATOM      7  C   UNL     1     105.913 125.661 143.504  0.00  0.00    +0.000 C 
ATOM      8  C   UNL     1     105.756 125.763 144.516  0.00  0.00    +0.000 C 
ATOM      9  C   UNL     1     106.262 126.488 145.045  0.00  0.00    +0.000 C 
ATOM     10  O   UNL     1     106.924 127.111 144.560  0.00  0.00    +0.000 OA
ATOM     11  O   UNL     1     105.094 125.141 145.001  0.00  0.00    +0.000 OA
ENDROOT
BRANCH   9  12
ATOM     12  C   UNL     1     106.105 126.591 146.057  0.00  0.00    +0.000 A 
ATOM     13  C   UNL     1     105.450 127.315 146.410  0.00  0.00    +0.000 A 
ATOM     14  C   UNL     1     105.292 127.419 147.432  0.00  0.00    +0.000 A 
ATOM     15  C   UNL     1     105.789 126.799 148.100  0.00  0.00    +0.000 A 
ATOM     16  C   UNL     1     106.445 126.075 147.746  0.00  0.00    +0.000 A 
ATOM     17  C   UNL     1     106.603 125.971 146.726  0.00  0.00    +0.000 A 
ATOM     18  O   UNL     1     105.633 126.902 149.113  0.00  0.00    +0.000 OA
BRANCH  16  19
ATOM     19  O   UNL     1     106.938 125.459 148.409  0.00  0.00    +0.000 OA
ATOM     20  C   UNL     1     107.350 124.875 148.151  0.00  0.00    +0.000 C 
ENDBRANCH  16  19
BRANCH  14  21
ATOM     21  O   UNL     1     104.642 128.138 147.782  0.00  0.00    +0.000 OA
ATOM     22  C   UNL     1     104.412 128.786 147.278  0.00  0.00    +0.000 C 
ENDBRANCH  14  21
ENDBRANCH   9  12
BRANCH   1  23
ATOM     23  O   UNL     1     108.562 128.150 141.565  0.00  0.00    +0.000 OA
ATOM     24  C   UNL     1     109.354 127.875 141.385  0.00  0.00    +0.000 C 
ENDBRANCH   1  23
BRANCH   3  25
ATOM     25  O   UNL     1     106.228 125.457 141.479  0.00  0.00    +0.000 OA
BRANCH  25  29
ATOM     26  C   UNL     1     104.836 123.508 139.021  0.00  0.00    +0.000 C 
ATOM     27  C   UNL     1     104.578 124.533 139.084  0.00  0.00    +0.000 C 
ATOM     28  C   UNL     1     105.087 124.892 139.850  0.00  0.00    +0.000 C 
ATOM     29  C   UNL     1     105.390 125.477 140.446  0.00  0.00    +0.000 C 
ATOM     30  O   UNL     1     105.534 124.590 140.293  0.00  0.00    +0.000 OA
ATOM     31  C   UNL     1     105.027 124.354 139.575  0.00  0.00    +0.000 C 
ATOM     32  O   UNL     1     104.284 122.966 138.134  0.00  0.00    +0.000 OA
ATOM     33  O   UNL     1     104.218 123.903 138.401  0.00  0.00    +0.000 OA
ATOM     34  O   UNL     1     104.769 125.872 139.822  0.00  0.00    +0.000 OA
BRANCH  31  35
ATOM     35  C   UNL     1     105.327 123.575 139.657  0.00  0.00    +0.000 C 
ATOM     36  O   UNL     1     105.436 123.058 139.367  0.00  0.00    +0.000 OA
ENDBRANCH  31  35
ENDBRANCH  25  29
ENDBRANCH   3  25
TORSDOF 7
ENDMDL
MODEL 8
REMARK VINA RESULT:      -8.1      2.815      7.050
REMARK  Name = 
REMARK  7 active torsions:
REMARK  status: ('A' for Active; 'I' for Inactive)
REMARK    1  A    between atoms: C_1  and  O_30
REMARK    2  A    between atoms: C_3  and  O_19
REMARK    3  A    between atoms: C_9  and  C_11
REMARK    4  A    between atoms: C_13  and  O_31
REMARK    5  A    between atoms: C_15  and  O_29
REMARK    6  A    between atoms: O_19  and  C_23
REMARK    7  A    between atoms: C_25  and  C_32
REMARK                            x       y       z     vdW  Elec       q    Type
REMARK                         _______ _______ _______ _____ _____    ______ ____
ROOT
ATOM      1  C   UNL     1     106.232 125.216 141.704  0.00  0.00    +0.000 A 
ATOM      2  C   UNL     1     106.499 125.161 142.697  0.00  0.00    +0.000 A 
ATOM      3  C   UNL     1     106.290 125.947 143.329  0.00  0.00    +0.000 A 
ATOM      4  C   UNL     1     105.815 126.786 142.970  0.00  0.00    +0.000 A 
ATOM      5  C   UNL     1     105.548 126.840 141.977  0.00  0.00    +0.000 A 
ATOM      6  C   UNL     1     105.757 126.055 141.344  0.00  0.00    +0.000 A 
ATOM      7  C   UNL     1     105.606 127.571 143.602  0.00  0.00    +0.000 C 
ATOM      8  C   UNL     1     105.130 128.411 143.243  0.00  0.00    +0.000 C 
ATOM      9  C   UNL     1     104.863 128.465 142.250  0.00  0.00    +0.000 C 
ATOM     10  O   UNL     1     105.072 127.680 141.617  0.00  0.00    +0.000 OA
ATOM     11  O   UNL     1     104.921 129.196 143.875  0.00  0.00    +0.000 OA
ENDROOT
BRANCH   9  12
ATOM     12  C   UNL     1     104.387 129.305 141.890  0.00  0.00    +0.000 A 
ATOM     13  C   UNL     1     104.824 130.239 142.006  0.00  0.00    +0.000 A 
ATOM     14  C   UNL     1     104.345 131.086 141.643  0.00  0.00    +0.000 A 
ATOM     15  C   UNL     1     103.427 130.998 141.163  0.00  0.00    +0.000 A 
ATOM     16  C   UNL     1     102.991 130.062 141.047  0.00  0.00    +0.000 A 
ATOM     17  C   UNL     1     103.470 129.216 141.410  0.00  0.00    +0.000 A 
ATOM     18  O   UNL     1     102.952 131.837 140.803  0.00  0.00    +0.000 OA
BRANCH  16  19
ATOM     19  O   UNL     1     102.081 129.975 140.571  0.00  0.00    +0.000 OA
ATOM     20  C   UNL     1     101.965 129.412 140.074  0.00  0.00    +0.000 C 
ENDBRANCH  16  19
BRANCH  14  21
ATOM     21  O   UNL     1     104.778 132.013 141.759  0.00  0.00    +0.000 OA
ATOM     22  C   UNL     1     105.363 132.137 142.367  0.00  0.00    +0.000 C 
ENDBRANCH  14  21
ENDBRANCH   9  12
BRANCH   1  23
ATOM     23  O   UNL     1     106.441 124.431 141.071  0.00  0.00    +0.000 OA
ATOM     24  C   UNL     1     105.829 123.864 140.875  0.00  0.00    +0.000 C 
ENDBRANCH   1  23
BRANCH   3  25
ATOM     25  O   UNL     1     106.557 125.892 144.321  0.00  0.00    +0.000 OA
BRANCH  25  29
ATOM     26  C   UNL     1     107.168 125.187 147.623  0.00  0.00    +0.000 C 
ATOM     27  C   UNL     1     106.352 124.725 147.133  0.00  0.00    +0.000 C 
ATOM     28  C   UNL     1     106.365 125.067 146.207  0.00  0.00    +0.000 C 
ATOM     29  C   UNL     1     106.124 125.182 145.360  0.00  0.00    +0.000 C 
ATOM     30  O   UNL     1     106.792 125.516 145.884  0.00  0.00    +0.000 OA
ATOM     31  C   UNL     1     106.696 125.145 146.710  0.00  0.00    +0.000 C 
ATOM     32  O   UNL     1     107.256 124.853 148.749  0.00  0.00    +0.000 OA
ATOM     33  O   UNL     1     106.594 124.573 148.088  0.00  0.00    +0.000 OA
ATOM     34  O   UNL     1     105.548 124.565 145.827  0.00  0.00    +0.000 OA
BRANCH  31  35
ATOM     35  C   UNL     1     107.369 125.585 146.952  0.00  0.00    +0.000 C 
ATOM     36  O   UNL     1     107.962 125.557 147.053  0.00  0.00    +0.000 OA
ENDBRANCH  31  35
ENDBRANCH  25  29
ENDBRANCH   3  25
TORSDOF 7
ENDMDL
MODEL 9
REMARK VINA RESULT:      -8.0      7.189      9.440
REMARK  Name = 
REMARK  7 active torsions:
REMARK  status: ('A' for Active; 'I' for Inactive)
REMARK    1  A    between atoms: C_1  and  O_30
REMARK    2  A    between atoms: C_3  and  O_19
REMARK    3  A    between atoms: C_9  and  C_11
REMARK    4  A    between atoms: C_13  and  O_31
REMARK    5  A    between atoms: C_15  and  O_29
REMARK    6  A    between atoms: O_19  and  C_23
REMARK    7  A    between atoms: C_25  and  C_32
REMARK                            x       y       z     vdW  Elec       q    Type
REMARK                         _______ _______ _______ _____ _____    ______ ____
ROOT
ATOM      1  C   UNL     1     111.449 128.446 142.307  0.00  0.00    +0.000 A 
ATOM      2  C   UNL     1     111.796 128.937 141.471  0.00  0.00    +0.000 A 
ATOM      3  C   UNL     1     111.987 129.948 141.512  0.00  0.00    +0.000 A 
ATOM      4  C   UNL     1     111.831 130.468 142.386  0.00  0.00    +0.000 A 
ATOM      5  C   UNL     1     111.484 129.977 143.222  0.00  0.00    +0.000 A 
ATOM      6  C   UNL     1     111.293 128.966 143.183  0.00  0.00    +0.000 A 
ATOM      7  C   UNL     1     112.023 131.479 142.427  0.00  0.00    +0.000 C 
ATOM      8  C   UNL     1     111.867 132.000 143.301  0.00  0.00    +0.000 C 
ATOM      9  C   UNL     1     111.520 131.508 144.137  0.00  0.00    +0.000 C 
ATOM     10  O   UNL     1     111.329 130.497 144.098  0.00  0.00    +0.000 OA
ATOM     11  O   UNL     1     112.058 133.010 143.341  0.00  0.00    +0.000 OA
ENDROOT
BRANCH   9  12
ATOM     12  C   UNL     1     111.364 132.028 145.013  0.00  0.00    +0.000 A 
ATOM     13  C   UNL     1     110.462 132.515 145.174  0.00  0.00    +0.000 A 
ATOM     14  C   UNL     1     110.304 133.039 146.057  0.00  0.00    +0.000 A 
ATOM     15  C   UNL     1     111.051 133.076 146.779  0.00  0.00    +0.000 A 
ATOM     16  C   UNL     1     111.954 132.589 146.617  0.00  0.00    +0.000 A 
ATOM     17  C   UNL     1     112.111 132.065 145.735  0.00  0.00    +0.000 A 
ATOM     18  O   UNL     1     110.895 133.596 147.654  0.00  0.00    +0.000 OA
BRANCH  16  19
ATOM     19  O   UNL     1     112.694 132.626 147.333  0.00  0.00    +0.000 OA
ATOM     20  C   UNL     1     113.328 132.217 147.244  0.00  0.00    +0.000 C 
ENDBRANCH  16  19
BRANCH  14  21
ATOM     21  O   UNL     1     109.409 133.523 146.216  0.00  0.00    +0.000 OA
ATOM     22  C   UNL     1     108.735 133.343 145.725  0.00  0.00    +0.000 C 
ENDBRANCH  14  21
ENDBRANCH   9  12
BRANCH   1  23
ATOM     23  O   UNL     1     111.257 127.435 142.268  0.00  0.00    +0.000 OA
ATOM     24  C   UNL     1     111.085 127.061 141.516  0.00  0.00    +0.000 C 
ENDBRANCH   1  23
BRANCH   3  25
ATOM     25  O   UNL     1     112.333 130.439 140.677  0.00  0.00    +0.000 OA
BRANCH  25  29
ATOM     26  C   UNL     1     113.495 130.825 137.471  0.00  0.00    +0.000 C 
ATOM     27  C   UNL     1     114.151 130.480 138.227  0.00  0.00    +0.000 C 
ATOM     28  C   UNL     1     113.615 130.445 139.055  0.00  0.00    +0.000 C 
ATOM     29  C   UNL     1     113.413 130.312 139.909  0.00  0.00    +0.000 C 
ATOM     30  O   UNL     1     112.945 130.600 139.181  0.00  0.00    +0.000 OA
ATOM     31  C   UNL     1     113.520 130.598 138.475  0.00  0.00    +0.000 C 
ATOM     32  O   UNL     1     114.028 130.909 136.425  0.00  0.00    +0.000 OA
ATOM     33  O   UNL     1     114.412 130.618 137.274  0.00  0.00    +0.000 OA
ATOM     34  O   UNL     1     114.334 130.105 139.710  0.00  0.00    +0.000 OA
BRANCH  31  35
ATOM     35  C   UNL     1     112.887 130.875 137.998  0.00  0.00    +0.000 C 
ATOM     36  O   UNL     1     112.701 131.323 137.641  0.00  0.00    +0.000 OA
ENDBRANCH  31  35
ENDBRANCH  25  29
ENDBRANCH   3  25
TORSDOF 7
ENDMDL
MODEL 10
REMARK VINA RESULT:      -8.0      1.761      7.111
REMARK  Name = 
REMARK  7 active torsions:
REMARK  status: ('A' for Active; 'I' for Inactive)
REMARK    1  A    between atoms: C_1  and  O_30
REMARK    2  A    between atoms: C_3  and  O_19
REMARK    3  A    between atoms: C_9  and  C_11
REMARK    4  A    between atoms: C_13  and  O_31
REMARK    5  A    between atoms: C_15  and  O_29
REMARK    6  A    between atoms: O_19  and  C_23
REMARK    7  A    between atoms: C_25  and  C_32
REMARK                            x       y       z     vdW  Elec       q    Type
REMARK                         _______ _______ _______ _____ _____    ______ ____
ROOT
ATOM      1  C   UNL     1     105.616 124.619 141.657  0.00  0.00    +0.000 A 
ATOM      2  C   UNL     1     105.662 124.441 142.670  0.00  0.00    +0.000 A 
ATOM      3  C   UNL     1     106.083 125.142 143.297  0.00  0.00    +0.000 A 
ATOM      4  C   UNL     1     106.458 126.020 142.911  0.00  0.00    +0.000 A 
ATOM      5  C   UNL     1     106.412 126.198 141.898  0.00  0.00    +0.000 A 
ATOM      6  C   UNL     1     105.991 125.498 141.271  0.00  0.00    +0.000 A 
ATOM      7  C   UNL     1     106.879 126.720 143.538  0.00  0.00    +0.000 C 
ATOM      8  C   UNL     1     107.253 127.598 143.153  0.00  0.00    +0.000 C 
ATOM      9  C   UNL     1     107.207 127.776 142.139  0.00  0.00    +0.000 C 
ATOM     10  O   UNL     1     106.787 127.076 141.512  0.00  0.00    +0.000 OA
ATOM     11  O   UNL     1     107.674 128.299 143.779  0.00  0.00    +0.000 OA
ENDROOT
BRANCH   9  12
ATOM     12  C   UNL     1     107.582 128.654 141.753  0.00  0.00    +0.000 A 
ATOM     13  C   UNL     1     106.982 129.501 141.711  0.00  0.00    +0.000 A 
ATOM     14  C   UNL     1     107.360 130.387 141.321  0.00  0.00    +0.000 A 
ATOM     15  C   UNL     1     108.338 130.426 140.974  0.00  0.00    +0.000 A 
ATOM     16  C   UNL     1     108.938 129.579 141.017  0.00  0.00    +0.000 A 
ATOM     17  C   UNL     1     108.561 128.694 141.406  0.00  0.00    +0.000 A 
ATOM     18  O   UNL     1     108.713 131.304 140.588  0.00  0.00    +0.000 OA
BRANCH  16  19
ATOM     19  O   UNL     1     109.908 129.617 140.673  0.00  0.00    +0.000 OA
ATOM     20  C   UNL     1     110.370 129.022 140.769  0.00  0.00    +0.000 C 
ENDBRANCH  16  19
BRANCH  14  21
ATOM     21  O   UNL     1     106.765 131.226 141.279  0.00  0.00    +0.000 OA
ATOM     22  C   UNL     1     106.059 131.272 141.756  0.00  0.00    +0.000 C 
ENDBRANCH  14  21
ENDBRANCH   9  12
BRANCH   1  23
ATOM     23  O   UNL     1     105.195 123.919 141.030  0.00  0.00    +0.000 OA
ATOM     24  C   UNL     1     105.691 123.475 140.490  0.00  0.00    +0.000 C 
ENDBRANCH   1  23
BRANCH   3  25
ATOM     25  O   UNL     1     106.129 124.964 144.308  0.00  0.00    +0.000 OA
BRANCH  25  29
ATOM     26  C   UNL     1     105.695 124.680 147.700  0.00  0.00    +0.000 C 
ATOM     27  C   UNL     1     104.860 124.582 147.057  0.00  0.00    +0.000 C 
ATOM     28  C   UNL     1     105.210 124.698 146.141  0.00  0.00    +0.000 C 
ATOM     29  C   UNL     1     105.217 124.754 145.255  0.00  0.00    +0.000 C 
ATOM     30  O   UNL     1     105.856 124.819 145.903  0.00  0.00    +0.000 OA
ATOM     31  C   UNL     1     105.439 124.700 146.704  0.00  0.00    +0.000 C 
ATOM     32  O   UNL     1     105.397 124.560 148.833  0.00  0.00    +0.000 OA
ATOM     33  O   UNL     1     104.816 124.513 148.051  0.00  0.00    +0.000 OA
ATOM     34  O   UNL     1     104.335 124.586 145.608  0.00  0.00    +0.000 OA
BRANCH  31  35
ATOM     35  C   UNL     1     106.186 124.801 147.073  0.00  0.00    +0.000 C 
ATOM     36  O   UNL     1     106.585 124.551 147.449  0.00  0.00    +0.000 OA
ENDBRANCH  31  35
ENDBRANCH  25  29
ENDBRANCH   3  25
TORSDOF 7
ENDMDL
