MODEL 1
REMARK VINA RESULT:     -10.6      0.000      0.000
REMARK  Name = 5490298
REMARK  7 active torsions:
REMARK  status: ('A' for Active; 'I' for Inactive)
REMARK    1  A    between atoms: O_3  and  C_25
REMARK    2  A    between atoms: O_3  and  C_29
REMARK    3  A    between atoms: O_6  and  C_26
REMARK    4  A    between atoms: O_6  and  C_30
REMARK    5  A    between atoms: C_21  and  C_27
REMARK    6  A    between atoms: C_23  and  C_28
REMARK    7  A    between atoms: C_36  and  C_39
REMARK                            x       y       z     vdW  Elec       q    Type
REMARK                         _______ _______ _______ _____ _____    ______ ____
ROOT
ATOM      1  O   UNL     1     110.239 128.151 136.143  0.00  0.00    +0.000 OA
ATOM      2  O   UNL     1     107.894 129.824 135.920  0.00  0.00    +0.000 OA
ATOM      3  O   UNL     1     107.820 128.403 135.684  0.00  0.00    +0.000 OA
ATOM      4  C   UNL     1     110.009 130.354 136.439  0.00  0.00    +0.000 A 
ATOM      5  C   UNL     1     110.370 129.576 136.392  0.00  0.00    +0.000 A 
ATOM      6  C   UNL     1     109.168 130.441 136.279  0.00  0.00    +0.000 A 
ATOM      7  C   UNL     1     109.887 128.896 136.187  0.00  0.00    +0.000 A 
ATOM      8  C   UNL     1     109.080 128.979 136.033  0.00  0.00    +0.000 A 
ATOM      9  C   UNL     1     108.701 129.750 136.075  0.00  0.00    +0.000 A 
ATOM     10  C   UNL     1     109.786 127.491 135.947  0.00  0.00    +0.000 A 
ATOM     11  C   UNL     1     108.626 128.319 135.837  0.00  0.00    +0.000 A 
ATOM     12  C   UNL     1     108.980 127.574 135.794  0.00  0.00    +0.000 A 
ENDROOT
BRANCH  10  17
ATOM     13  O   UNL     1     111.196 124.512 135.775  0.00  0.00    +0.000 OA
ATOM     14  C   UNL     1     110.743 125.624 136.549  0.00  0.00    +0.000 A 
ATOM     15  C   UNL     1     110.391 126.368 136.592  0.00  0.00    +0.000 A 
ATOM     16  C   UNL     1     110.843 125.257 135.817  0.00  0.00    +0.000 A 
ATOM     17  C   UNL     1     110.139 126.746 135.904  0.00  0.00    +0.000 A 
ATOM     18  C   UNL     1     110.591 125.634 135.128  0.00  0.00    +0.000 A 
ATOM     19  C   UNL     1     110.239 126.379 135.172  0.00  0.00    +0.000 A 
BRANCH  14  20
ATOM     20  O   UNL     1     110.995 125.246 137.238  0.00  0.00    +0.000 OA
BRANCH  20  29
ATOM     21  O   UNL     1     112.226 125.944 137.437  0.00  0.00    +0.000 OA
ATOM     22  O   UNL     1     113.138 126.744 139.251  0.00  0.00    +0.000 OA
ATOM     23  O   UNL     1     111.748 126.097 139.860  0.00  0.00    +0.000 OA
ATOM     24  O   UNL     1     110.676 125.348 138.854  0.00  0.00    +0.000 OA
ATOM     25  C   UNL     1     112.602 126.369 138.748  0.00  0.00    +0.000 C 
ATOM     26  C   UNL     1     111.907 126.046 139.053  0.00  0.00    +0.000 C 
ATOM     27  C   UNL     1     112.762 126.318 137.940  0.00  0.00    +0.000 C 
ATOM     28  C   UNL     1     111.371 125.671 138.549  0.00  0.00    +0.000 C 
ATOM     29  C   UNL     1     111.531 125.621 137.741  0.00  0.00    +0.000 C 
BRANCH  27  31
ATOM     30  O   UNL     1     113.906 126.215 137.090  0.00  0.00    +0.000 OA
ATOM     31  C   UNL     1     113.458 126.641 137.635  0.00  0.00    +0.000 C 
ENDBRANCH  27  31
ENDBRANCH  20  29
ENDBRANCH  14  20
ENDBRANCH  10  17
BRANCH   4  32
ATOM     32  O   UNL     1     110.465 131.012 136.636  0.00  0.00    +0.000 OA
BRANCH  32  41
ATOM     33  O   UNL     1     110.406 130.879 138.058  0.00  0.00    +0.000 OA
ATOM     34  O   UNL     1     110.163 133.332 138.278  0.00  0.00    +0.000 OA
ATOM     35  O   UNL     1     110.186 132.381 139.626  0.00  0.00    +0.000 OA
ATOM     36  O   UNL     1     110.303 132.648 136.783  0.00  0.00    +0.000 OA
ATOM     37  C   UNL     1     110.244 132.515 138.204  0.00  0.00    +0.000 C 
ATOM     38  C   UNL     1     110.255 132.039 138.879  0.00  0.00    +0.000 C 
ATOM     39  C   UNL     1     110.336 131.221 138.805  0.00  0.00    +0.000 C 
ATOM     40  C   UNL     1     110.314 132.172 137.457  0.00  0.00    +0.000 C 
ATOM     41  C   UNL     1     110.395 131.354 137.382  0.00  0.00    +0.000 C 
BRANCH  39  43
ATOM     42  O   UNL     1     110.960 130.203 139.590  0.00  0.00    +0.000 OA
ATOM     43  C   UNL     1     110.348 130.745 139.478  0.00  0.00    +0.000 C 
ENDBRANCH  39  43
ENDBRANCH  32  41
ENDBRANCH   4  32
TORSDOF 7
ENDMDL
MODEL 2
REMARK VINA RESULT:     -10.3      1.585      6.047
REMARK  Name = 5490298
REMARK  7 active torsions:
REMARK  status: ('A' for Active; 'I' for Inactive)
REMARK    1  A    between atoms: O_3  and  C_25
REMARK    2  A    between atoms: O_3  and  C_29
REMARK    3  A    between atoms: O_6  and  C_26
REMARK    4  A    between atoms: O_6  and  C_30
REMARK    5  A    between atoms: C_21  and  C_27
REMARK    6  A    between atoms: C_23  and  C_28
REMARK    7  A    between atoms: C_36  and  C_39
REMARK                            x       y       z     vdW  Elec       q    Type
REMARK                         _______ _______ _______ _____ _____    ______ ____
ROOT
ATOM      1  O   UNL     1     111.295 128.774 136.208  0.00  0.00    +0.000 OA
ATOM      2  O   UNL     1     114.140 128.611 135.736  0.00  0.00    +0.000 OA
ATOM      3  O   UNL     1     113.330 129.599 135.066  0.00  0.00    +0.000 OA
ATOM      4  C   UNL     1     112.819 127.385 137.068  0.00  0.00    +0.000 A 
ATOM      5  C   UNL     1     112.064 127.761 136.909  0.00  0.00    +0.000 A 
ATOM      6  C   UNL     1     113.526 127.672 136.671  0.00  0.00    +0.000 A 
ATOM      7  C   UNL     1     112.024 128.417 136.356  0.00  0.00    +0.000 A 
ATOM      8  C   UNL     1     112.702 128.693 135.975  0.00  0.00    +0.000 A 
ATOM      9  C   UNL     1     113.467 128.330 136.121  0.00  0.00    +0.000 A 
ATOM     10  C   UNL     1     111.244 129.405 135.679  0.00  0.00    +0.000 A 
ATOM     11  C   UNL     1     112.651 129.324 135.446  0.00  0.00    +0.000 A 
ATOM     12  C   UNL     1     111.922 129.680 135.298  0.00  0.00    +0.000 A 
ENDROOT
BRANCH  10  17
ATOM     13  O   UNL     1     108.327 130.832 135.087  0.00  0.00    +0.000 OA
ATOM     14  C   UNL     1     109.351 130.443 136.004  0.00  0.00    +0.000 A 
ATOM     15  C   UNL     1     110.080 130.087 136.153  0.00  0.00    +0.000 A 
ATOM     16  C   UNL     1     109.057 130.475 135.234  0.00  0.00    +0.000 A 
ATOM     17  C   UNL     1     110.515 129.762 135.531  0.00  0.00    +0.000 A 
ATOM     18  C   UNL     1     109.491 130.150 134.613  0.00  0.00    +0.000 A 
ATOM     19  C   UNL     1     110.220 129.793 134.761  0.00  0.00    +0.000 A 
BRANCH  14  20
ATOM     20  O   UNL     1     108.917 130.768 136.626  0.00  0.00    +0.000 OA
BRANCH  20  29
ATOM     21  O   UNL     1     109.696 131.954 136.799  0.00  0.00    +0.000 OA
ATOM     22  O   UNL     1     110.300 133.015 138.607  0.00  0.00    +0.000 OA
ATOM     23  O   UNL     1     109.435 131.767 139.253  0.00  0.00    +0.000 OA
ATOM     24  O   UNL     1     108.743 130.643 138.262  0.00  0.00    +0.000 OA
ATOM     25  C   UNL     1     109.954 132.453 138.112  0.00  0.00    +0.000 C 
ATOM     26  C   UNL     1     109.522 131.829 138.435  0.00  0.00    +0.000 C 
ATOM     27  C   UNL     1     110.042 132.516 137.294  0.00  0.00    +0.000 C 
ATOM     28  C   UNL     1     109.176 131.267 137.939  0.00  0.00    +0.000 C 
ATOM     29  C   UNL     1     109.263 131.330 137.121  0.00  0.00    +0.000 C 
BRANCH  27  31
ATOM     30  O   UNL     1     110.217 133.505 136.277  0.00  0.00    +0.000 OA
ATOM     31  C   UNL     1     110.474 133.140 136.971  0.00  0.00    +0.000 C 
ENDBRANCH  27  31
ENDBRANCH  20  29
ENDBRANCH  14  20
ENDBRANCH  10  17
BRANCH   4  32
ATOM     32  O   UNL     1     112.867 126.754 137.597  0.00  0.00    +0.000 OA
BRANCH  32  41
ATOM     33  O   UNL     1     112.303 125.699 136.814  0.00  0.00    +0.000 OA
ATOM     34  O   UNL     1     114.176 124.217 137.463  0.00  0.00    +0.000 OA
ATOM     35  O   UNL     1     112.987 123.657 136.465  0.00  0.00    +0.000 OA
ATOM     36  O   UNL     1     114.115 125.766 138.029  0.00  0.00    +0.000 OA
ATOM     37  C   UNL     1     113.552 124.711 137.247  0.00  0.00    +0.000 C 
ATOM     38  C   UNL     1     112.957 124.430 136.748  0.00  0.00    +0.000 C 
ATOM     39  C   UNL     1     112.333 124.925 136.532  0.00  0.00    +0.000 C 
ATOM     40  C   UNL     1     113.521 125.486 137.530  0.00  0.00    +0.000 C 
ATOM     41  C   UNL     1     112.897 125.981 137.314  0.00  0.00    +0.000 C 
BRANCH  39  43
ATOM     42  O   UNL     1     110.953 124.859 136.167  0.00  0.00    +0.000 OA
ATOM     43  C   UNL     1     111.739 124.645 136.033  0.00  0.00    +0.000 C 
ENDBRANCH  39  43
ENDBRANCH  32  41
ENDBRANCH   4  32
TORSDOF 7
ENDMDL
MODEL 3
REMARK VINA RESULT:     -10.2      1.646      2.771
REMARK  Name = 5490298
REMARK  7 active torsions:
REMARK  status: ('A' for Active; 'I' for Inactive)
REMARK    1  A    between atoms: O_3  and  C_25
REMARK    2  A    between atoms: O_3  and  C_29
REMARK    3  A    between atoms: O_6  and  C_26
REMARK    4  A    between atoms: O_6  and  C_30
REMARK    5  A    between atoms: C_21  and  C_27
REMARK    6  A    between atoms: C_23  and  C_28
REMARK    7  A    between atoms: C_36  and  C_39
REMARK                            x       y       z     vdW  Elec       q    Type
REMARK                         _______ _______ _______ _____ _____    ______ ____
ROOT
ATOM      1  O   UNL     1     111.448 128.787 136.238  0.00  0.00    +0.000 OA
ATOM      2  O   UNL     1     113.800 130.383 135.719  0.00  0.00    +0.000 OA
ATOM      3  O   UNL     1     113.456 129.267 134.873  0.00  0.00    +0.000 OA
ATOM      4  C   UNL     1     112.256 130.559 137.335  0.00  0.00    +0.000 A 
ATOM      5  C   UNL     1     111.747 129.901 137.121  0.00  0.00    +0.000 A 
ATOM      6  C   UNL     1     112.954 130.725 136.860  0.00  0.00    +0.000 A 
ATOM      7  C   UNL     1     111.941 129.418 136.438  0.00  0.00    +0.000 A 
ATOM      8  C   UNL     1     112.610 129.577 135.982  0.00  0.00    +0.000 A 
ATOM      9  C   UNL     1     113.132 130.231 136.180  0.00  0.00    +0.000 A 
ATOM     10  C   UNL     1     111.624 128.317 135.584  0.00  0.00    +0.000 A 
ATOM     11  C   UNL     1     112.787 129.107 135.328  0.00  0.00    +0.000 A 
ATOM     12  C   UNL     1     112.293 128.476 135.129  0.00  0.00    +0.000 A 
ENDROOT
BRANCH  10  17
ATOM     13  O   UNL     1     109.651 125.794 134.785  0.00  0.00    +0.000 OA
ATOM     14  C   UNL     1     110.730 126.326 135.557  0.00  0.00    +0.000 A 
ATOM     15  C   UNL     1     111.223 126.956 135.756  0.00  0.00    +0.000 A 
ATOM     16  C   UNL     1     110.144 126.425 134.985  0.00  0.00    +0.000 A 
ATOM     17  C   UNL     1     111.130 127.686 135.384  0.00  0.00    +0.000 A 
ATOM     18  C   UNL     1     110.051 127.156 134.612  0.00  0.00    +0.000 A 
ATOM     19  C   UNL     1     110.544 127.786 134.812  0.00  0.00    +0.000 A 
BRANCH  14  20
ATOM     20  O   UNL     1     110.823 125.595 135.929  0.00  0.00    +0.000 OA
BRANCH  20  29
ATOM     21  O   UNL     1     110.270 125.952 137.198  0.00  0.00    +0.000 OA
ATOM     22  O   UNL     1     110.881 125.418 139.223  0.00  0.00    +0.000 OA
ATOM     23  O   UNL     1     112.016 124.615 138.334  0.00  0.00    +0.000 OA
ATOM     24  O   UNL     1     111.987 124.704 136.687  0.00  0.00    +0.000 OA
ATOM     25  C   UNL     1     110.867 125.462 138.400  0.00  0.00    +0.000 C 
ATOM     26  C   UNL     1     111.434 125.061 137.955  0.00  0.00    +0.000 C 
ATOM     27  C   UNL     1     110.284 125.908 138.021  0.00  0.00    +0.000 C 
ATOM     28  C   UNL     1     111.419 125.105 137.131  0.00  0.00    +0.000 C 
ATOM     29  C   UNL     1     110.837 125.551 136.753  0.00  0.00    +0.000 C 
BRANCH  27  31
ATOM     30  O   UNL     1     108.918 126.246 138.268  0.00  0.00    +0.000 OA
ATOM     31  C   UNL     1     109.717 126.309 138.466  0.00  0.00    +0.000 C 
ENDBRANCH  27  31
ENDBRANCH  20  29
ENDBRANCH  14  20
ENDBRANCH  10  17
BRANCH   4  32
ATOM     32  O   UNL     1     112.078 131.027 137.989  0.00  0.00    +0.000 OA
BRANCH  32  41
ATOM     33  O   UNL     1     111.231 131.987 137.352  0.00  0.00    +0.000 OA
ATOM     34  O   UNL     1     109.675 131.888 139.274  0.00  0.00    +0.000 OA
ATOM     35  O   UNL     1     109.348 132.881 137.997  0.00  0.00    +0.000 OA
ATOM     36  O   UNL     1     111.040 130.961 139.270  0.00  0.00    +0.000 OA
ATOM     37  C   UNL     1     110.193 131.921 138.634  0.00  0.00    +0.000 C 
ATOM     38  C   UNL     1     110.030 132.418 137.995  0.00  0.00    +0.000 C 
ATOM     39  C   UNL     1     110.549 132.450 137.355  0.00  0.00    +0.000 C 
ATOM     40  C   UNL     1     110.876 131.458 138.631  0.00  0.00    +0.000 C 
ATOM     41  C   UNL     1     111.396 131.490 137.991  0.00  0.00    +0.000 C 
BRANCH  39  43
ATOM     42  O   UNL     1     110.908 133.556 136.523  0.00  0.00    +0.000 OA
ATOM     43  C   UNL     1     110.386 132.947 136.716  0.00  0.00    +0.000 C 
ENDBRANCH  39  43
ENDBRANCH  32  41
ENDBRANCH   4  32
TORSDOF 7
ENDMDL
MODEL 4
REMARK VINA RESULT:     -10.2      1.710      4.360
REMARK  Name = 5490298
REMARK  7 active torsions:
REMARK  status: ('A' for Active; 'I' for Inactive)
REMARK    1  A    between atoms: O_3  and  C_25
REMARK    2  A    between atoms: O_3  and  C_29
REMARK    3  A    between atoms: O_6  and  C_26
REMARK    4  A    between atoms: O_6  and  C_30
REMARK    5  A    between atoms: C_21  and  C_27
REMARK    6  A    between atoms: C_23  and  C_28
REMARK    7  A    between atoms: C_36  and  C_39
REMARK                            x       y       z     vdW  Elec       q    Type
REMARK                         _______ _______ _______ _____ _____    ______ ____
ROOT
ATOM      1  O   UNL     1     111.750 126.486 137.802  0.00  0.00    +0.000 OA
ATOM      2  O   UNL     1     111.473 126.139 140.657  0.00  0.00    +0.000 OA
ATOM      3  O   UNL     1     110.560 125.505 139.738  0.00  0.00    +0.000 OA
ATOM      4  C   UNL     1     112.974 127.314 139.478  0.00  0.00    +0.000 A 
ATOM      5  C   UNL     1     112.697 127.147 138.682  0.00  0.00    +0.000 A 
ATOM      6  C   UNL     1     112.560 126.973 140.150  0.00  0.00    +0.000 A 
ATOM      7  C   UNL     1     112.011 126.642 138.569  0.00  0.00    +0.000 A 
ATOM      8  C   UNL     1     111.614 126.315 139.214  0.00  0.00    +0.000 A 
ATOM      9  C   UNL     1     111.876 126.470 140.017  0.00  0.00    +0.000 A 
ATOM     10  C   UNL     1     111.093 126.003 137.680  0.00  0.00    +0.000 A 
ATOM     11  C   UNL     1     110.956 125.832 139.092  0.00  0.00    +0.000 A 
ATOM     12  C   UNL     1     110.695 125.676 138.325  0.00  0.00    +0.000 A 
ENDROOT
BRANCH  10  17
ATOM     13  O   UNL     1     110.047 125.378 134.613  0.00  0.00    +0.000 OA
ATOM     14  C   UNL     1     109.943 126.121 135.829  0.00  0.00    +0.000 A 
ATOM     15  C   UNL     1     110.204 126.277 136.595  0.00  0.00    +0.000 A 
ATOM     16  C   UNL     1     110.309 125.534 135.380  0.00  0.00    +0.000 A 
ATOM     17  C   UNL     1     110.831 125.846 136.913  0.00  0.00    +0.000 A 
ATOM     18  C   UNL     1     110.936 125.103 135.698  0.00  0.00    +0.000 A 
ATOM     19  C   UNL     1     111.198 125.259 136.464  0.00  0.00    +0.000 A 
BRANCH  14  20
ATOM     20  O   UNL     1     109.315 126.552 135.511  0.00  0.00    +0.000 OA
BRANCH  20  29
ATOM     21  O   UNL     1     110.023 127.740 135.149  0.00  0.00    +0.000 OA
ATOM     22  O   UNL     1     109.484 129.844 135.358  0.00  0.00    +0.000 OA
ATOM     23  O   UNL     1     108.152 129.116 136.006  0.00  0.00    +0.000 OA
ATOM     24  O   UNL     1     108.068 127.469 136.082  0.00  0.00    +0.000 OA
ATOM     25  C   UNL     1     109.441 129.021 135.396  0.00  0.00    +0.000 C 
ATOM     26  C   UNL     1     108.775 128.657 135.720  0.00  0.00    +0.000 C 
ATOM     27  C   UNL     1     110.065 128.563 135.111  0.00  0.00    +0.000 C 
ATOM     28  C   UNL     1     108.734 127.833 135.758  0.00  0.00    +0.000 C 
ATOM     29  C   UNL     1     109.357 127.375 135.472  0.00  0.00    +0.000 C 
BRANCH  27  31
ATOM     30  O   UNL     1     111.476 128.791 135.114  0.00  0.00    +0.000 OA
ATOM     31  C   UNL     1     110.731 128.927 134.787  0.00  0.00    +0.000 C 
ENDBRANCH  27  31
ENDBRANCH  20  29
ENDBRANCH  14  20
ENDBRANCH  10  17
BRANCH   4  32
ATOM     32  O   UNL     1     113.631 127.797 139.596  0.00  0.00    +0.000 OA
BRANCH  32  41
ATOM     33  O   UNL     1     112.974 129.052 139.409  0.00  0.00    +0.000 OA
ATOM     34  O   UNL     1     114.336 130.037 141.226  0.00  0.00    +0.000 OA
ATOM     35  O   UNL     1     113.224 130.963 140.433  0.00  0.00    +0.000 OA
ATOM     36  O   UNL     1     114.540 128.453 140.808  0.00  0.00    +0.000 OA
ATOM     37  C   UNL     1     113.882 129.708 140.621  0.00  0.00    +0.000 C 
ATOM     38  C   UNL     1     113.326 130.172 140.224  0.00  0.00    +0.000 C 
ATOM     39  C   UNL     1     112.872 129.843 139.618  0.00  0.00    +0.000 C 
ATOM     40  C   UNL     1     113.984 128.917 140.411  0.00  0.00    +0.000 C 
ATOM     41  C   UNL     1     113.530 128.588 139.806  0.00  0.00    +0.000 C 
BRANCH  39  43
ATOM     42  O   UNL     1     112.300 130.314 138.397  0.00  0.00    +0.000 OA
ATOM     43  C   UNL     1     112.316 130.306 139.222  0.00  0.00    +0.000 C 
ENDBRANCH  39  43
ENDBRANCH  32  41
ENDBRANCH   4  32
TORSDOF 7
ENDMDL
MODEL 5
REMARK VINA RESULT:     -10.2      1.494      6.000
REMARK  Name = 5490298
REMARK  7 active torsions:
REMARK  status: ('A' for Active; 'I' for Inactive)
REMARK    1  A    between atoms: O_3  and  C_25
REMARK    2  A    between atoms: O_3  and  C_29
REMARK    3  A    between atoms: O_6  and  C_26
REMARK    4  A    between atoms: O_6  and  C_30
REMARK    5  A    between atoms: C_21  and  C_27
REMARK    6  A    between atoms: C_23  and  C_28
REMARK    7  A    between atoms: C_36  and  C_39
REMARK                            x       y       z     vdW  Elec       q    Type
REMARK                         _______ _______ _______ _____ _____    ______ ____
ROOT
ATOM      1  O   UNL     1     111.246 128.688 136.368  0.00  0.00    +0.000 OA
ATOM      2  O   UNL     1     113.928 128.617 135.298  0.00  0.00    +0.000 OA
ATOM      3  O   UNL     1     112.932 129.504 134.750  0.00  0.00    +0.000 OA
ATOM      4  C   UNL     1     113.006 127.451 136.975  0.00  0.00    +0.000 A 
ATOM      5  C   UNL     1     112.211 127.776 136.958  0.00  0.00    +0.000 A 
ATOM      6  C   UNL     1     113.591 127.735 136.412  0.00  0.00    +0.000 A 
ATOM      7  C   UNL     1     112.011 128.380 136.380  0.00  0.00    +0.000 A 
ATOM      8  C   UNL     1     112.573 128.652 135.840  0.00  0.00    +0.000 A 
ATOM      9  C   UNL     1     113.373 128.339 135.841  0.00  0.00    +0.000 A 
ATOM     10  C   UNL     1     111.042 129.267 135.818  0.00  0.00    +0.000 A 
ATOM     11  C   UNL     1     112.370 129.232 135.289  0.00  0.00    +0.000 A 
ATOM     12  C   UNL     1     111.604 129.540 135.278  0.00  0.00    +0.000 A 
ENDROOT
BRANCH  10  17
ATOM     13  O   UNL     1     107.981 130.501 135.773  0.00  0.00    +0.000 OA
ATOM     14  C   UNL     1     109.363 130.631 136.113  0.00  0.00    +0.000 A 
ATOM     15  C   UNL     1     110.129 130.323 136.124  0.00  0.00    +0.000 A 
ATOM     16  C   UNL     1     108.747 130.192 135.784  0.00  0.00    +0.000 A 
ATOM     17  C   UNL     1     110.277 129.576 135.807  0.00  0.00    +0.000 A 
ATOM     18  C   UNL     1     108.895 129.445 135.467  0.00  0.00    +0.000 A 
ATOM     19  C   UNL     1     109.660 129.137 135.478  0.00  0.00    +0.000 A 
BRANCH  14  20
ATOM     20  O   UNL     1     109.215 131.378 136.430  0.00  0.00    +0.000 OA
BRANCH  20  29
ATOM     21  O   UNL     1     109.230 131.003 137.808  0.00  0.00    +0.000 OA
ATOM     22  O   UNL     1     110.025 132.032 139.560  0.00  0.00    +0.000 OA
ATOM     23  O   UNL     1     110.400 133.111 138.369  0.00  0.00    +0.000 OA
ATOM     24  O   UNL     1     109.995 132.783 136.803  0.00  0.00    +0.000 OA
ATOM     25  C   UNL     1     109.823 131.869 138.778  0.00  0.00    +0.000 C 
ATOM     26  C   UNL     1     110.010 132.408 138.182  0.00  0.00    +0.000 C 
ATOM     27  C   UNL     1     109.432 131.166 138.591  0.00  0.00    +0.000 C 
ATOM     28  C   UNL     1     109.807 132.244 137.399  0.00  0.00    +0.000 C 
ATOM     29  C   UNL     1     109.417 131.541 137.212  0.00  0.00    +0.000 C 
BRANCH  27  31
ATOM     30  O   UNL     1     108.497 130.280 139.209  0.00  0.00    +0.000 OA
ATOM     31  C   UNL     1     109.245 130.627 139.187  0.00  0.00    +0.000 C 
ENDBRANCH  27  31
ENDBRANCH  20  29
ENDBRANCH  14  20
ENDBRANCH  10  17
BRANCH   4  32
ATOM     32  O   UNL     1     113.206 126.872 137.526  0.00  0.00    +0.000 OA
BRANCH  32  41
ATOM     33  O   UNL     1     112.546 125.763 136.912  0.00  0.00    +0.000 OA
ATOM     34  O   UNL     1     114.475 124.312 137.457  0.00  0.00    +0.000 OA
ATOM     35  O   UNL     1     113.172 123.687 136.661  0.00  0.00    +0.000 OA
ATOM     36  O   UNL     1     114.492 125.904 137.890  0.00  0.00    +0.000 OA
ATOM     37  C   UNL     1     113.833 124.796 137.276  0.00  0.00    +0.000 C 
ATOM     38  C   UNL     1     113.180 124.483 136.877  0.00  0.00    +0.000 C 
ATOM     39  C   UNL     1     112.537 124.967 136.695  0.00  0.00    +0.000 C 
ATOM     40  C   UNL     1     113.841 125.592 137.492  0.00  0.00    +0.000 C 
ATOM     41  C   UNL     1     113.198 126.076 137.310  0.00  0.00    +0.000 C 
BRANCH  39  43
ATOM     42  O   UNL     1     111.130 124.733 136.619  0.00  0.00    +0.000 OA
ATOM     43  C   UNL     1     111.886 124.655 136.297  0.00  0.00    +0.000 C 
ENDBRANCH  39  43
ENDBRANCH  32  41
ENDBRANCH   4  32
TORSDOF 7
ENDMDL
MODEL 6
REMARK VINA RESULT:     -10.1      8.508     10.471
REMARK  Name = 5490298
REMARK  7 active torsions:
REMARK  status: ('A' for Active; 'I' for Inactive)
REMARK    1  A    between atoms: O_3  and  C_25
REMARK    2  A    between atoms: O_3  and  C_29
REMARK    3  A    between atoms: O_6  and  C_26
REMARK    4  A    between atoms: O_6  and  C_30
REMARK    5  A    between atoms: C_21  and  C_27
REMARK    6  A    between atoms: C_23  and  C_28
REMARK    7  A    between atoms: C_36  and  C_39
REMARK                            x       y       z     vdW  Elec       q    Type
REMARK                         _______ _______ _______ _____ _____    ______ ____
ROOT
ATOM      1  O   UNL     1     106.225 125.496 144.012  0.00  0.00    +0.000 OA
ATOM      2  O   UNL     1     105.341 127.699 142.364  0.00  0.00    +0.000 OA
ATOM      3  O   UNL     1     105.143 127.712 143.793  0.00  0.00    +0.000 OA
ATOM      4  C   UNL     1     106.373 125.791 141.801  0.00  0.00    +0.000 A 
ATOM      5  C   UNL     1     106.449 125.432 142.578  0.00  0.00    +0.000 A 
ATOM      6  C   UNL     1     105.998 126.561 141.726  0.00  0.00    +0.000 A 
ATOM      7  C   UNL     1     106.149 125.846 143.268  0.00  0.00    +0.000 A 
ATOM      8  C   UNL     1     105.788 126.585 143.196  0.00  0.00    +0.000 A 
ATOM      9  C   UNL     1     105.703 126.960 142.427  0.00  0.00    +0.000 A 
ATOM     10  C   UNL     1     105.941 125.884 144.682  0.00  0.00    +0.000 A 
ATOM     11  C   UNL     1     105.504 126.973 143.866  0.00  0.00    +0.000 A 
ATOM     12  C   UNL     1     105.580 126.623 144.609  0.00  0.00    +0.000 A 
ENDROOT
BRANCH  10  17
ATOM     13  O   UNL     1     106.243 124.484 147.655  0.00  0.00    +0.000 OA
ATOM     14  C   UNL     1     105.620 124.539 146.370  0.00  0.00    +0.000 A 
ATOM     15  C   UNL     1     105.544 124.889 145.627  0.00  0.00    +0.000 A 
ATOM     16  C   UNL     1     106.168 124.834 146.911  0.00  0.00    +0.000 A 
ATOM     17  C   UNL     1     106.016 125.534 145.425  0.00  0.00    +0.000 A 
ATOM     18  C   UNL     1     106.640 125.480 146.709  0.00  0.00    +0.000 A 
ATOM     19  C   UNL     1     106.565 125.830 145.966  0.00  0.00    +0.000 A 
BRANCH  14  20
ATOM     20  O   UNL     1     105.147 123.893 146.572  0.00  0.00    +0.000 OA
BRANCH  20  29
ATOM     21  O   UNL     1     103.959 124.567 146.992  0.00  0.00    +0.000 OA
ATOM     22  O   UNL     1     101.860 124.180 146.538  0.00  0.00    +0.000 OA
ATOM     23  O   UNL     1     102.592 122.975 145.679  0.00  0.00    +0.000 OA
ATOM     24  O   UNL     1     104.236 122.832 145.697  0.00  0.00    +0.000 OA
ATOM     25  C   UNL     1     102.682 124.108 146.546  0.00  0.00    +0.000 C 
ATOM     26  C   UNL     1     103.048 123.506 146.117  0.00  0.00    +0.000 C 
ATOM     27  C   UNL     1     103.137 124.639 146.984  0.00  0.00    +0.000 C 
ATOM     28  C   UNL     1     103.870 123.434 146.126  0.00  0.00    +0.000 C 
ATOM     29  C   UNL     1     104.325 123.965 146.564  0.00  0.00    +0.000 C 
BRANCH  27  31
ATOM     30  O   UNL     1     103.036 125.427 148.172  0.00  0.00    +0.000 OA
ATOM     31  C   UNL     1     102.771 125.241 147.413  0.00  0.00    +0.000 C 
ENDBRANCH  27  31
ENDBRANCH  20  29
ENDBRANCH  14  20
ENDBRANCH  10  17
BRANCH   4  32
ATOM     32  O   UNL     1     106.659 125.401 141.134  0.00  0.00    +0.000 OA
BRANCH  32  41
ATOM     33  O   UNL     1     105.495 125.143 140.343  0.00  0.00    +0.000 OA
ATOM     34  O   UNL     1     106.077 122.739 140.270  0.00  0.00    +0.000 OA
ATOM     35  O   UNL     1     104.720 123.284 139.505  0.00  0.00    +0.000 OA
ATOM     36  O   UNL     1     107.046 123.797 141.084  0.00  0.00    +0.000 OA
ATOM     37  C   UNL     1     105.883 123.540 140.295  0.00  0.00    +0.000 C 
ATOM     38  C   UNL     1     105.204 123.813 139.912  0.00  0.00    +0.000 C 
ATOM     39  C   UNL     1     105.011 124.615 139.937  0.00  0.00    +0.000 C 
ATOM     40  C   UNL     1     106.368 124.070 140.702  0.00  0.00    +0.000 C 
ATOM     41  C   UNL     1     106.175 124.872 140.727  0.00  0.00    +0.000 C 
BRANCH  39  43
ATOM     42  O   UNL     1     104.340 125.620 139.175  0.00  0.00    +0.000 OA
ATOM     43  C   UNL     1     104.333 124.887 139.554  0.00  0.00    +0.000 C 
ENDBRANCH  39  43
ENDBRANCH  32  41
ENDBRANCH   4  32
TORSDOF 7
ENDMDL
MODEL 7
REMARK VINA RESULT:     -10.0      7.283     10.136
REMARK  Name = 5490298
REMARK  7 active torsions:
REMARK  status: ('A' for Active; 'I' for Inactive)
REMARK    1  A    between atoms: O_3  and  C_25
REMARK    2  A    between atoms: O_3  and  C_29
REMARK    3  A    between atoms: O_6  and  C_26
REMARK    4  A    between atoms: O_6  and  C_30
REMARK    5  A    between atoms: C_21  and  C_27
REMARK    6  A    between atoms: C_23  and  C_28
REMARK    7  A    between atoms: C_36  and  C_39
REMARK                            x       y       z     vdW  Elec       q    Type
REMARK                         _______ _______ _______ _____ _____    ______ ____
ROOT
ATOM      1  O   UNL     1     102.852 130.483 141.972  0.00  0.00    +0.000 OA
ATOM      2  O   UNL     1     103.418 128.371 140.084  0.00  0.00    +0.000 OA
ATOM      3  O   UNL     1     102.499 129.434 139.758  0.00  0.00    +0.000 OA
ATOM      4  C   UNL     1     104.205 128.714 142.154  0.00  0.00    +0.000 A 
ATOM      5  C   UNL     1     103.786 129.438 142.351  0.00  0.00    +0.000 A 
ATOM      6  C   UNL     1     104.081 128.349 141.385  0.00  0.00    +0.000 A 
ATOM      7  C   UNL     1     103.251 129.788 141.777  0.00  0.00    +0.000 A 
ATOM      8  C   UNL     1     103.133 129.438 141.039  0.00  0.00    +0.000 A 
ATOM      9  C   UNL     1     103.542 128.714 140.824  0.00  0.00    +0.000 A 
ATOM     10  C   UNL     1     102.336 130.829 141.430  0.00  0.00    +0.000 A 
ATOM     11  C   UNL     1     102.616 129.784 140.496  0.00  0.00    +0.000 A 
ATOM     12  C   UNL     1     102.217 130.480 140.692  0.00  0.00    +0.000 A 
ENDROOT
BRANCH  10  17
ATOM     13  O   UNL     1     100.740 133.611 142.209  0.00  0.00    +0.000 OA
ATOM     14  C   UNL     1     101.855 132.951 141.607  0.00  0.00    +0.000 A 
ATOM     15  C   UNL     1     102.254 132.255 141.412  0.00  0.00    +0.000 A 
ATOM     16  C   UNL     1     101.139 132.915 142.015  0.00  0.00    +0.000 A 
ATOM     17  C   UNL     1     101.937 131.524 141.625  0.00  0.00    +0.000 A 
ATOM     18  C   UNL     1     100.821 132.183 142.227  0.00  0.00    +0.000 A 
ATOM     19  C   UNL     1     101.220 131.488 142.032  0.00  0.00    +0.000 A 
BRANCH  14  20
ATOM     20  O   UNL     1     102.173 133.682 141.395  0.00  0.00    +0.000 OA
BRANCH  20  29
ATOM     21  O   UNL     1     103.156 133.806 142.425  0.00  0.00    +0.000 OA
ATOM     22  O   UNL     1     105.225 134.495 142.350  0.00  0.00    +0.000 OA
ATOM     23  O   UNL     1     104.786 134.654 140.767  0.00  0.00    +0.000 OA
ATOM     24  O   UNL     1     103.260 134.247 140.290  0.00  0.00    +0.000 OA
ATOM     25  C   UNL     1     104.462 134.292 142.111  0.00  0.00    +0.000 C 
ATOM     26  C   UNL     1     104.243 134.371 141.320  0.00  0.00    +0.000 C 
ATOM     27  C   UNL     1     103.919 134.009 142.664  0.00  0.00    +0.000 C 
ATOM     28  C   UNL     1     103.479 134.168 141.081  0.00  0.00    +0.000 C 
ATOM     29  C   UNL     1     102.936 133.885 141.634  0.00  0.00    +0.000 C 
BRANCH  27  31
ATOM     30  O   UNL     1     103.649 134.226 144.051  0.00  0.00    +0.000 OA
ATOM     31  C   UNL     1     104.138 133.930 143.456  0.00  0.00    +0.000 C 
ENDBRANCH  27  31
ENDBRANCH  20  29
ENDBRANCH  14  20
ENDBRANCH  10  17
BRANCH   4  32
ATOM     32  O   UNL     1     104.720 128.371 142.698  0.00  0.00    +0.000 OA
BRANCH  32  41
ATOM     33  O   UNL     1     105.928 128.978 142.234  0.00  0.00    +0.000 OA
ATOM     34  O   UNL     1     107.141 126.854 142.609  0.00  0.00    +0.000 OA
ATOM     35  O   UNL     1     107.943 128.170 142.019  0.00  0.00    +0.000 OA
ATOM     36  O   UNL     1     105.529 126.954 142.948  0.00  0.00    +0.000 OA
ATOM     37  C   UNL     1     106.736 127.562 142.484  0.00  0.00    +0.000 C 
ATOM     38  C   UNL     1     107.138 128.220 142.189  0.00  0.00    +0.000 C 
ATOM     39  C   UNL     1     106.733 128.928 142.064  0.00  0.00    +0.000 C 
ATOM     40  C   UNL     1     105.930 127.612 142.653  0.00  0.00    +0.000 C 
ATOM     41  C   UNL     1     105.525 128.320 142.529  0.00  0.00    +0.000 C 
BRANCH  39  43
ATOM     42  O   UNL     1     106.973 129.860 141.008  0.00  0.00    +0.000 OA
ATOM     43  C   UNL     1     107.134 129.586 141.770  0.00  0.00    +0.000 C 
ENDBRANCH  39  43
ENDBRANCH  32  41
ENDBRANCH   4  32
TORSDOF 7
ENDMDL
MODEL 8
REMARK VINA RESULT:     -10.0      1.777      3.635
REMARK  Name = 5490298
REMARK  7 active torsions:
REMARK  status: ('A' for Active; 'I' for Inactive)
REMARK    1  A    between atoms: O_3  and  C_25
REMARK    2  A    between atoms: O_3  and  C_29
REMARK    3  A    between atoms: O_6  and  C_26
REMARK    4  A    between atoms: O_6  and  C_30
REMARK    5  A    between atoms: C_21  and  C_27
REMARK    6  A    between atoms: C_23  and  C_28
REMARK    7  A    between atoms: C_36  and  C_39
REMARK                            x       y       z     vdW  Elec       q    Type
REMARK                         _______ _______ _______ _____ _____    ______ ____
ROOT
ATOM      1  O   UNL     1     112.787 127.446 136.023  0.00  0.00    +0.000 OA
ATOM      2  O   UNL     1     113.468 130.002 134.862  0.00  0.00    +0.000 OA
ATOM      3  O   UNL     1     114.465 129.195 135.523  0.00  0.00    +0.000 OA
ATOM      4  C   UNL     1     111.505 128.924 134.944  0.00  0.00    +0.000 A 
ATOM      5  C   UNL     1     111.745 128.217 135.369  0.00  0.00    +0.000 A 
ATOM      6  C   UNL     1     112.088 129.531 134.770  0.00  0.00    +0.000 A 
ATOM      7  C   UNL     1     112.563 128.127 135.615  0.00  0.00    +0.000 A 
ATOM      8  C   UNL     1     113.123 128.710 135.449  0.00  0.00    +0.000 A 
ATOM      9  C   UNL     1     112.902 129.424 135.024  0.00  0.00    +0.000 A 
ATOM     10  C   UNL     1     113.570 127.347 136.265  0.00  0.00    +0.000 A 
ATOM     11  C   UNL     1     113.906 128.612 135.690  0.00  0.00    +0.000 A 
ATOM     12  C   UNL     1     114.129 127.930 136.098  0.00  0.00    +0.000 A 
ENDROOT
BRANCH  10  17
ATOM     13  O   UNL     1     114.466 124.623 137.899  0.00  0.00    +0.000 OA
ATOM     14  C   UNL     1     113.951 125.956 137.903  0.00  0.00    +0.000 A 
ATOM     15  C   UNL     1     113.727 126.637 137.495  0.00  0.00    +0.000 A 
ATOM     16  C   UNL     1     114.242 125.304 137.489  0.00  0.00    +0.000 A 
ATOM     17  C   UNL     1     113.794 126.666 136.673  0.00  0.00    +0.000 A 
ATOM     18  C   UNL     1     114.308 125.333 136.668  0.00  0.00    +0.000 A 
ATOM     19  C   UNL     1     114.084 126.014 136.259  0.00  0.00    +0.000 A 
BRANCH  14  20
ATOM     20  O   UNL     1     113.884 125.927 138.725  0.00  0.00    +0.000 OA
BRANCH  20  29
ATOM     21  O   UNL     1     112.459 125.896 138.822  0.00  0.00    +0.000 OA
ATOM     22  O   UNL     1     111.098 126.915 140.190  0.00  0.00    +0.000 OA
ATOM     23  O   UNL     1     112.555 127.472 140.729  0.00  0.00    +0.000 OA
ATOM     24  O   UNL     1     113.948 126.978 139.996  0.00  0.00    +0.000 OA
ATOM     25  C   UNL     1     111.794 126.668 139.824  0.00  0.00    +0.000 C 
ATOM     26  C   UNL     1     112.523 126.947 140.093  0.00  0.00    +0.000 C 
ATOM     27  C   UNL     1     111.762 126.143 139.189  0.00  0.00    +0.000 C 
ATOM     28  C   UNL     1     113.220 126.699 139.726  0.00  0.00    +0.000 C 
ATOM     29  C   UNL     1     113.187 126.174 139.091  0.00  0.00    +0.000 C 
BRANCH  27  31
ATOM     30  O   UNL     1     110.932 125.062 138.759  0.00  0.00    +0.000 OA
ATOM     31  C   UNL     1     111.033 125.865 138.919  0.00  0.00    +0.000 C 
ENDBRANCH  27  31
ENDBRANCH  20  29
ENDBRANCH  14  20
ENDBRANCH  10  17
BRANCH   4  32
ATOM     32  O   UNL     1     110.722 129.019 134.704  0.00  0.00    +0.000 OA
BRANCH  32  41
ATOM     33  O   UNL     1     110.281 129.899 135.741  0.00  0.00    +0.000 OA
ATOM     34  O   UNL     1     108.160 128.635 135.910  0.00  0.00    +0.000 OA
ATOM     35  O   UNL     1     108.426 129.935 136.890  0.00  0.00    +0.000 OA
ATOM     36  O   UNL     1     109.308 128.176 134.817  0.00  0.00    +0.000 OA
ATOM     37  C   UNL     1     108.866 129.055 135.853  0.00  0.00    +0.000 C 
ATOM     38  C   UNL     1     108.999 129.706 136.344  0.00  0.00    +0.000 C 
ATOM     39  C   UNL     1     109.707 130.127 136.287  0.00  0.00    +0.000 C 
ATOM     40  C   UNL     1     109.441 128.827 135.307  0.00  0.00    +0.000 C 
ATOM     41  C   UNL     1     110.148 129.248 135.250  0.00  0.00    +0.000 C 
BRANCH  39  43
ATOM     42  O   UNL     1     110.066 131.501 136.449  0.00  0.00    +0.000 OA
ATOM     43  C   UNL     1     109.840 130.778 136.777  0.00  0.00    +0.000 C 
ENDBRANCH  39  43
ENDBRANCH  32  41
ENDBRANCH   4  32
TORSDOF 7
ENDMDL
MODEL 9
REMARK VINA RESULT:      -9.9      2.368      3.817
REMARK  Name = 5490298
REMARK  7 active torsions:
REMARK  status: ('A' for Active; 'I' for Inactive)
REMARK    1  A    between atoms: O_3  and  C_25
REMARK    2  A    between atoms: O_3  and  C_29
REMARK    3  A    between atoms: O_6  and  C_26
REMARK    4  A    between atoms: O_6  and  C_30
REMARK    5  A    between atoms: C_21  and  C_27
REMARK    6  A    between atoms: C_23  and  C_28
REMARK    7  A    between atoms: C_36  and  C_39
REMARK                            x       y       z     vdW  Elec       q    Type
REMARK                         _______ _______ _______ _____ _____    ______ ____
ROOT
ATOM      1  O   UNL     1     113.051 128.138 137.226  0.00  0.00    +0.000 OA
ATOM      2  O   UNL     1     114.241 130.573 136.225  0.00  0.00    +0.000 OA
ATOM      3  O   UNL     1     114.452 129.312 135.557  0.00  0.00    +0.000 OA
ATOM      4  C   UNL     1     112.928 130.227 138.008  0.00  0.00    +0.000 A 
ATOM      5  C   UNL     1     112.806 129.380 137.937  0.00  0.00    +0.000 A 
ATOM      6  C   UNL     1     113.415 130.635 137.428  0.00  0.00    +0.000 A 
ATOM      7  C   UNL     1     113.172 128.951 137.288  0.00  0.00    +0.000 A 
ATOM      8  C   UNL     1     113.639 129.342 136.732  0.00  0.00    +0.000 A 
ATOM      9  C   UNL     1     113.772 130.190 136.786  0.00  0.00    +0.000 A 
ATOM     10  C   UNL     1     113.397 127.715 136.608  0.00  0.00    +0.000 A 
ATOM     11  C   UNL     1     113.985 128.920 136.113  0.00  0.00    +0.000 A 
ATOM     12  C   UNL     1     113.864 128.106 136.051  0.00  0.00    +0.000 A 
ENDROOT
BRANCH  10  17
ATOM     13  O   UNL     1     112.913 124.460 136.357  0.00  0.00    +0.000 OA
ATOM     14  C   UNL     1     112.402 125.794 136.320  0.00  0.00    +0.000 A 
ATOM     15  C   UNL     1     112.523 126.608 136.382  0.00  0.00    +0.000 A 
ATOM     16  C   UNL     1     113.035 125.274 136.419  0.00  0.00    +0.000 A 
ATOM     17  C   UNL     1     113.276 126.901 136.545  0.00  0.00    +0.000 A 
ATOM     18  C   UNL     1     113.788 125.568 136.582  0.00  0.00    +0.000 A 
ATOM     19  C   UNL     1     113.909 126.382 136.645  0.00  0.00    +0.000 A 
BRANCH  14  20
ATOM     20  O   UNL     1     111.648 125.500 136.157  0.00  0.00    +0.000 OA
BRANCH  20  29
ATOM     21  O   UNL     1     111.007 125.696 137.419  0.00  0.00    +0.000 OA
ATOM     22  O   UNL     1     109.057 126.541 137.915  0.00  0.00    +0.000 OA
ATOM     23  O   UNL     1     109.042 126.669 136.269  0.00  0.00    +0.000 OA
ATOM     24  O   UNL     1     110.339 126.148 135.390  0.00  0.00    +0.000 OA
ATOM     25  C   UNL     1     109.705 126.280 137.475  0.00  0.00    +0.000 C 
ATOM     26  C   UNL     1     109.697 126.345 136.652  0.00  0.00    +0.000 C 
ATOM     27  C   UNL     1     110.359 125.956 137.859  0.00  0.00    +0.000 C 
ATOM     28  C   UNL     1     110.346 126.084 136.213  0.00  0.00    +0.000 C 
ATOM     29  C   UNL     1     111.000 125.760 136.597  0.00  0.00    +0.000 C 
BRANCH  27  31
ATOM     30  O   UNL     1     110.763 125.266 139.043  0.00  0.00    +0.000 OA
ATOM     31  C   UNL     1     110.366 125.892 138.681  0.00  0.00    +0.000 C 
ENDBRANCH  27  31
ENDBRANCH  20  29
ENDBRANCH  14  20
ENDBRANCH  10  17
BRANCH   4  32
ATOM     32  O   UNL     1     112.581 130.646 138.627  0.00  0.00    +0.000 OA
BRANCH  32  41
ATOM     33  O   UNL     1     113.635 130.622 139.593  0.00  0.00    +0.000 OA
ATOM     34  O   UNL     1     112.013 129.975 141.346  0.00  0.00    +0.000 OA
ATOM     35  O   UNL     1     113.607 130.166 141.726  0.00  0.00    +0.000 OA
ATOM     36  O   UNL     1     111.500 130.215 139.797  0.00  0.00    +0.000 OA
ATOM     37  C   UNL     1     112.553 130.190 140.762  0.00  0.00    +0.000 C 
ATOM     38  C   UNL     1     113.351 130.286 140.952  0.00  0.00    +0.000 C 
ATOM     39  C   UNL     1     113.891 130.502 140.367  0.00  0.00    +0.000 C 
ATOM     40  C   UNL     1     112.297 130.311 139.987  0.00  0.00    +0.000 C 
ATOM     41  C   UNL     1     112.837 130.526 139.401  0.00  0.00    +0.000 C 
BRANCH  39  43
ATOM     42  O   UNL     1     115.055 131.327 140.439  0.00  0.00    +0.000 OA
ATOM     43  C   UNL     1     114.688 130.597 140.557  0.00  0.00    +0.000 C 
ENDBRANCH  39  43
ENDBRANCH  32  41
ENDBRANCH   4  32
TORSDOF 7
ENDMDL
MODEL 10
REMARK VINA RESULT:      -9.9      2.327      5.471
REMARK  Name = 5490298
REMARK  7 active torsions:
REMARK  status: ('A' for Active; 'I' for Inactive)
REMARK    1  A    between atoms: O_3  and  C_25
REMARK    2  A    between atoms: O_3  and  C_29
REMARK    3  A    between atoms: O_6  and  C_26
REMARK    4  A    between atoms: O_6  and  C_30
REMARK    5  A    between atoms: C_21  and  C_27
REMARK    6  A    between atoms: C_23  and  C_28
REMARK    7  A    between atoms: C_36  and  C_39
REMARK                            x       y       z     vdW  Elec       q    Type
REMARK                         _______ _______ _______ _____ _____    ______ ____
ROOT
ATOM      1  O   UNL     1     113.058 127.721 136.025  0.00  0.00    +0.000 OA
ATOM      2  O   UNL     1     113.804 124.984 136.568  0.00  0.00    +0.000 OA
ATOM      3  O   UNL     1     114.803 126.017 136.444  0.00  0.00    +0.000 OA
ATOM      4  C   UNL     1     111.782 125.903 136.274  0.00  0.00    +0.000 A 
ATOM      5  C   UNL     1     112.012 126.720 136.140  0.00  0.00    +0.000 A 
ATOM      6  C   UNL     1     112.389 125.311 136.420  0.00  0.00    +0.000 A 
ATOM      7  C   UNL     1     112.843 126.935 136.154  0.00  0.00    +0.000 A 
ATOM      8  C   UNL     1     113.426 126.367 136.293  0.00  0.00    +0.000 A 
ATOM      9  C   UNL     1     113.216 125.545 136.429  0.00  0.00    +0.000 A 
ATOM     10  C   UNL     1     113.853 127.939 136.035  0.00  0.00    +0.000 A 
ATOM     11  C   UNL     1     114.221 126.585 136.304  0.00  0.00    +0.000 A 
ATOM     12  C   UNL     1     114.435 127.372 136.175  0.00  0.00    +0.000 A 
ENDROOT
BRANCH  10  17
ATOM     13  O   UNL     1     114.709 131.085 135.519  0.00  0.00    +0.000 OA
ATOM     14  C   UNL     1     114.286 130.046 136.405  0.00  0.00    +0.000 A 
ATOM     15  C   UNL     1     114.072 129.260 136.534  0.00  0.00    +0.000 A 
ATOM     16  C   UNL     1     114.495 130.298 135.648  0.00  0.00    +0.000 A 
ATOM     17  C   UNL     1     114.067 128.726 135.906  0.00  0.00    +0.000 A 
ATOM     18  C   UNL     1     114.490 129.763 135.019  0.00  0.00    +0.000 A 
ATOM     19  C   UNL     1     114.276 128.977 135.148  0.00  0.00    +0.000 A 
BRANCH  14  20
ATOM     20  O   UNL     1     114.291 130.581 137.034  0.00  0.00    +0.000 OA
BRANCH  20  29
ATOM     21  O   UNL     1     112.888 130.812 137.171  0.00  0.00    +0.000 OA
ATOM     22  O   UNL     1     111.622 130.905 138.947  0.00  0.00    +0.000 OA
ATOM     23  O   UNL     1     113.095 130.604 139.629  0.00  0.00    +0.000 OA
ATOM     24  O   UNL     1     114.429 130.443 138.672  0.00  0.00    +0.000 OA
ATOM     25  C   UNL     1     112.290 130.824 138.469  0.00  0.00    +0.000 C 
ATOM     26  C   UNL     1     113.026 130.674 138.810  0.00  0.00    +0.000 C 
ATOM     27  C   UNL     1     112.220 130.893 137.650  0.00  0.00    +0.000 C 
ATOM     28  C   UNL     1     113.693 130.593 138.331  0.00  0.00    +0.000 C 
ATOM     29  C   UNL     1     113.624 130.662 137.512  0.00  0.00    +0.000 C 
BRANCH  27  31
ATOM     30  O   UNL     1     111.412 131.616 136.719  0.00  0.00    +0.000 OA
ATOM     31  C   UNL     1     111.484 131.043 137.308  0.00  0.00    +0.000 C 
ENDBRANCH  27  31
ENDBRANCH  20  29
ENDBRANCH  14  20
ENDBRANCH  10  17
BRANCH   4  32
ATOM     32  O   UNL     1     110.986 125.688 136.263  0.00  0.00    +0.000 OA
BRANCH  32  41
ATOM     33  O   UNL     1     110.695 125.807 137.657  0.00  0.00    +0.000 OA
ATOM     34  O   UNL     1     108.554 126.923 137.114  0.00  0.00    +0.000 OA
ATOM     35  O   UNL     1     108.976 126.670 138.689  0.00  0.00    +0.000 OA
ATOM     36  O   UNL     1     109.559 126.432 135.901  0.00  0.00    +0.000 OA
ATOM     37  C   UNL     1     109.267 126.551 137.295  0.00  0.00    +0.000 C 
ATOM     38  C   UNL     1     109.478 126.424 138.083  0.00  0.00    +0.000 C 
ATOM     39  C   UNL     1     110.192 126.052 138.263  0.00  0.00    +0.000 C 
ATOM     40  C   UNL     1     109.770 126.306 136.688  0.00  0.00    +0.000 C 
ATOM     41  C   UNL     1     110.484 125.933 136.869  0.00  0.00    +0.000 C 
BRANCH  39  43
ATOM     42  O   UNL     1     110.687 125.188 139.287  0.00  0.00    +0.000 OA
ATOM     43  C   UNL     1     110.404 125.925 139.051  0.00  0.00    +0.000 C 
ENDBRANCH  39  43
ENDBRANCH  32  41
ENDBRANCH   4  32
TORSDOF 7
ENDMDL
