MODEL 1
REMARK VINA RESULT:      -7.8      0.000      0.000
REMARK  Name = 14137568
REMARK  3 active torsions:
REMARK  status: ('A' for Active; 'I' for Inactive)
REMARK    1  A    between atoms: O_2  and  C_11
REMARK    2  A    between atoms: O_3  and  C_16
REMARK    3  A    between atoms: C_5  and  C_10
REMARK                            x       y       z     vdW  Elec       q    Type
REMARK                         _______ _______ _______ _____ _____    ______ ____
ROOT
ATOM      1  O   UNL     1     105.260 124.289 147.206  0.00  0.00    +0.000 OA
ATOM      2  C   UNL     1     105.539 124.716 147.899  0.00  0.00    +0.000 C 
ATOM      3  C   UNL     1     104.975 125.128 148.400  0.00  0.00    +0.000 C 
ATOM      4  C   UNL     1     104.139 125.108 148.201  0.00  0.00    +0.000 C 
ATOM      5  C   UNL     1     103.879 124.677 147.505  0.00  0.00    +0.000 A 
ATOM      6  C   UNL     1     104.420 124.282 147.025  0.00  0.00    +0.000 A 
ATOM      7  C   UNL     1     103.075 124.662 147.319  0.00  0.00    +0.000 A 
ATOM      8  C   UNL     1     104.158 123.871 146.358  0.00  0.00    +0.000 A 
ATOM      9  C   UNL     1     102.813 124.251 146.654  0.00  0.00    +0.000 A 
ATOM     10  C   UNL     1     103.354 123.856 146.173  0.00  0.00    +0.000 A 
ENDROOT
BRANCH   2  12
ATOM     11  O   UNL     1     108.756 124.765 148.631  0.00  0.00    +0.000 OA
ATOM     12  C   UNL     1     106.343 124.729 148.081  0.00  0.00    +0.000 A 
ATOM     13  C   UNL     1     106.616 124.365 148.771  0.00  0.00    +0.000 A 
ATOM     14  C   UNL     1     106.876 125.104 147.575  0.00  0.00    +0.000 A 
ATOM     15  C   UNL     1     107.419 124.377 148.953  0.00  0.00    +0.000 A 
ATOM     16  C   UNL     1     107.680 125.117 147.758  0.00  0.00    +0.000 A 
ATOM     17  C   UNL     1     107.952 124.753 148.448  0.00  0.00    +0.000 A 
ENDBRANCH   2  12
BRANCH   7  18
ATOM     18  O   UNL     1     102.533 125.057 147.800  0.00  0.00    +0.000 OA
ATOM     19  C   UNL     1     101.724 124.943 147.689  0.00  0.00    +0.000 C 
ENDBRANCH   7  18
BRANCH  10  20
ATOM     20  O   UNL     1     103.092 123.445 145.507  0.00  0.00    +0.000 OA
ATOM     21  C   UNL     1     103.459 122.739 145.288  0.00  0.00    +0.000 C 
ENDBRANCH  10  20
TORSDOF 3
ENDMDL
MODEL 2
REMARK VINA RESULT:      -7.5     13.100     14.032
REMARK  Name = 14137568
REMARK  3 active torsions:
REMARK  status: ('A' for Active; 'I' for Inactive)
REMARK    1  A    between atoms: O_2  and  C_11
REMARK    2  A    between atoms: O_3  and  C_16
REMARK    3  A    between atoms: C_5  and  C_10
REMARK                            x       y       z     vdW  Elec       q    Type
REMARK                         _______ _______ _______ _____ _____    ______ ____
ROOT
ATOM      1  O   UNL     1     112.272 127.265 135.971  0.00  0.00    +0.000 OA
ATOM      2  C   UNL     1     113.046 127.412 136.317  0.00  0.00    +0.000 C 
ATOM      3  C   UNL     1     113.475 126.766 136.687  0.00  0.00    +0.000 C 
ATOM      4  C   UNL     1     113.124 125.981 136.707  0.00  0.00    +0.000 C 
ATOM      5  C   UNL     1     112.350 125.853 136.357  0.00  0.00    +0.000 A 
ATOM      6  C   UNL     1     111.939 126.474 136.001  0.00  0.00    +0.000 A 
ATOM      7  C   UNL     1     112.019 125.098 136.379  0.00  0.00    +0.000 A 
ATOM      8  C   UNL     1     111.195 126.339 135.668  0.00  0.00    +0.000 A 
ATOM      9  C   UNL     1     111.276 124.963 136.046  0.00  0.00    +0.000 A 
ATOM     10  C   UNL     1     110.865 125.583 135.691  0.00  0.00    +0.000 A 
ENDROOT
BRANCH   2  12
ATOM     11  O   UNL     1     114.358 130.438 136.216  0.00  0.00    +0.000 OA
ATOM     12  C   UNL     1     113.373 128.168 136.292  0.00  0.00    +0.000 A 
ATOM     13  C   UNL     1     113.863 128.385 135.664  0.00  0.00    +0.000 A 
ATOM     14  C   UNL     1     113.212 128.708 136.895  0.00  0.00    +0.000 A 
ATOM     15  C   UNL     1     114.191 129.141 135.639  0.00  0.00    +0.000 A 
ATOM     16  C   UNL     1     113.540 129.465 136.869  0.00  0.00    +0.000 A 
ATOM     17  C   UNL     1     114.030 129.681 136.241  0.00  0.00    +0.000 A 
ENDBRANCH   2  12
BRANCH   7  18
ATOM     18  O   UNL     1     112.430 124.478 136.734  0.00  0.00    +0.000 OA
ATOM     19  C   UNL     1     112.090 123.728 136.776  0.00  0.00    +0.000 C 
ENDBRANCH   7  18
BRANCH  10  20
ATOM     20  O   UNL     1     110.121 125.449 135.358  0.00  0.00    +0.000 OA
ATOM     21  C   UNL     1     109.911 125.825 134.655  0.00  0.00    +0.000 C 
ENDBRANCH  10  20
TORSDOF 3
ENDMDL
MODEL 3
REMARK VINA RESULT:      -7.3      1.591      4.383
REMARK  Name = 14137568
REMARK  3 active torsions:
REMARK  status: ('A' for Active; 'I' for Inactive)
REMARK    1  A    between atoms: O_2  and  C_11
REMARK    2  A    between atoms: O_3  and  C_16
REMARK    3  A    between atoms: C_5  and  C_10
REMARK                            x       y       z     vdW  Elec       q    Type
REMARK                         _______ _______ _______ _____ _____    ______ ____
ROOT
ATOM      1  O   UNL     1     104.231 124.433 145.910  0.00  0.00    +0.000 OA
ATOM      2  C   UNL     1     103.753 124.132 146.560  0.00  0.00    +0.000 C 
ATOM      3  C   UNL     1     104.073 124.133 147.357  0.00  0.00    +0.000 C 
ATOM      4  C   UNL     1     104.866 124.434 147.496  0.00  0.00    +0.000 C 
ATOM      5  C   UNL     1     105.328 124.731 146.835  0.00  0.00    +0.000 A 
ATOM      6  C   UNL     1     105.021 124.730 146.070  0.00  0.00    +0.000 A 
ATOM      7  C   UNL     1     106.089 125.019 146.974  0.00  0.00    +0.000 A 
ATOM      8  C   UNL     1     105.475 125.018 145.443  0.00  0.00    +0.000 A 
ATOM      9  C   UNL     1     106.542 125.306 146.348  0.00  0.00    +0.000 A 
ATOM     10  C   UNL     1     106.235 125.306 145.583  0.00  0.00    +0.000 A 
ENDROOT
BRANCH   2  12
ATOM     11  O   UNL     1     100.715 122.980 145.984  0.00  0.00    +0.000 OA
ATOM     12  C   UNL     1     102.994 123.845 146.416  0.00  0.00    +0.000 A 
ATOM     13  C   UNL     1     102.892 123.113 146.047  0.00  0.00    +0.000 A 
ATOM     14  C   UNL     1     102.335 124.288 146.641  0.00  0.00    +0.000 A 
ATOM     15  C   UNL     1     102.134 122.826 145.903  0.00  0.00    +0.000 A 
ATOM     16  C   UNL     1     101.576 124.000 146.497  0.00  0.00    +0.000 A 
ATOM     17  C   UNL     1     101.475 123.268 146.128  0.00  0.00    +0.000 A 
ENDBRANCH   2  12
BRANCH   7  18
ATOM     18  O   UNL     1     106.396 125.019 147.740  0.00  0.00    +0.000 OA
ATOM     19  C   UNL     1     107.201 125.147 147.861  0.00  0.00    +0.000 C 
ENDBRANCH   7  18
BRANCH  10  20
ATOM     20  O   UNL     1     106.689 125.593 144.955  0.00  0.00    +0.000 OA
ATOM     21  C   UNL     1     106.386 126.183 144.465  0.00  0.00    +0.000 C 
ENDBRANCH  10  20
TORSDOF 3
ENDMDL
MODEL 4
REMARK VINA RESULT:      -7.3      2.628      3.189
REMARK  Name = 14137568
REMARK  3 active torsions:
REMARK  status: ('A' for Active; 'I' for Inactive)
REMARK    1  A    between atoms: O_2  and  C_11
REMARK    2  A    between atoms: O_3  and  C_16
REMARK    3  A    between atoms: C_5  and  C_10
REMARK                            x       y       z     vdW  Elec       q    Type
REMARK                         _______ _______ _______ _____ _____    ______ ____
ROOT
ATOM      1  O   UNL     1     106.574 125.282 146.248  0.00  0.00    +0.000 OA
ATOM      2  C   UNL     1     106.872 125.722 146.925  0.00  0.00    +0.000 C 
ATOM      3  C   UNL     1     106.895 126.581 146.896  0.00  0.00    +0.000 C 
ATOM      4  C   UNL     1     106.619 126.989 146.191  0.00  0.00    +0.000 C 
ATOM      5  C   UNL     1     106.325 126.533 145.526  0.00  0.00    +0.000 A 
ATOM      6  C   UNL     1     106.303 125.708 145.553  0.00  0.00    +0.000 A 
ATOM      7  C   UNL     1     106.061 126.929 144.852  0.00  0.00    +0.000 A 
ATOM      8  C   UNL     1     106.018 125.281 144.907  0.00  0.00    +0.000 A 
ATOM      9  C   UNL     1     105.776 126.503 144.206  0.00  0.00    +0.000 A 
ATOM     10  C   UNL     1     105.755 125.679 144.234  0.00  0.00    +0.000 A 
ENDROOT
BRANCH   2  12
ATOM     11  O   UNL     1     107.918 124.118 149.612  0.00  0.00    +0.000 OA
ATOM     12  C   UNL     1     107.135 125.322 147.596  0.00  0.00    +0.000 A 
ATOM     13  C   UNL     1     106.588 125.039 148.147  0.00  0.00    +0.000 A 
ATOM     14  C   UNL     1     107.942 125.202 147.717  0.00  0.00    +0.000 A 
ATOM     15  C   UNL     1     106.850 124.639 148.818  0.00  0.00    +0.000 A 
ATOM     16  C   UNL     1     108.203 124.801 148.389  0.00  0.00    +0.000 A 
ATOM     17  C   UNL     1     107.657 124.519 148.940  0.00  0.00    +0.000 A 
ENDBRANCH   2  12
BRANCH   7  18
ATOM     18  O   UNL     1     106.083 127.754 144.824  0.00  0.00    +0.000 OA
ATOM     19  C   UNL     1     105.729 128.154 144.197  0.00  0.00    +0.000 C 
ENDBRANCH   7  18
BRANCH  10  20
ATOM     20  O   UNL     1     105.470 125.251 143.588  0.00  0.00    +0.000 OA
ATOM     21  C   UNL     1     105.998 124.909 143.055  0.00  0.00    +0.000 C 
ENDBRANCH  10  20
TORSDOF 3
ENDMDL
MODEL 5
REMARK VINA RESULT:      -7.3      9.659     10.563
REMARK  Name = 14137568
REMARK  3 active torsions:
REMARK  status: ('A' for Active; 'I' for Inactive)
REMARK    1  A    between atoms: O_2  and  C_11
REMARK    2  A    between atoms: O_3  and  C_16
REMARK    3  A    between atoms: C_5  and  C_10
REMARK                            x       y       z     vdW  Elec       q    Type
REMARK                         _______ _______ _______ _____ _____    ______ ____
ROOT
ATOM      1  O   UNL     1     102.745 132.042 141.119  0.00  0.00    +0.000 OA
ATOM      2  C   UNL     1     102.325 131.338 141.378  0.00  0.00    +0.000 C 
ATOM      3  C   UNL     1     101.625 131.418 141.869  0.00  0.00    +0.000 C 
ATOM      4  C   UNL     1     101.353 132.201 142.095  0.00  0.00    +0.000 C 
ATOM      5  C   UNL     1     101.784 132.894 141.826  0.00  0.00    +0.000 A 
ATOM      6  C   UNL     1     102.457 132.817 141.355  0.00  0.00    +0.000 A 
ATOM      7  C   UNL     1     101.519 133.643 142.046  0.00  0.00    +0.000 A 
ATOM      8  C   UNL     1     102.864 133.490 141.103  0.00  0.00    +0.000 A 
ATOM      9  C   UNL     1     101.925 134.315 141.795  0.00  0.00    +0.000 A 
ATOM     10  C   UNL     1     102.597 134.238 141.323  0.00  0.00    +0.000 A 
ENDROOT
BRANCH   2  12
ATOM     11  O   UNL     1     103.406 128.348 140.494  0.00  0.00    +0.000 OA
ATOM     12  C   UNL     1     102.595 130.590 141.157  0.00  0.00    +0.000 A 
ATOM     13  C   UNL     1     103.167 130.206 141.612  0.00  0.00    +0.000 A 
ATOM     14  C   UNL     1     102.294 130.226 140.480  0.00  0.00    +0.000 A 
ATOM     15  C   UNL     1     103.436 129.460 141.391  0.00  0.00    +0.000 A 
ATOM     16  C   UNL     1     102.564 129.479 140.259  0.00  0.00    +0.000 A 
ATOM     17  C   UNL     1     103.135 129.095 140.715  0.00  0.00    +0.000 A 
ENDBRANCH   2  12
BRANCH   7  18
ATOM     18  O   UNL     1     100.846 133.720 142.517  0.00  0.00    +0.000 OA
ATOM     19  C   UNL     1     100.710 134.420 142.931  0.00  0.00    +0.000 C 
ENDBRANCH   7  18
BRANCH  10  20
ATOM     20  O   UNL     1     103.004 134.911 141.071  0.00  0.00    +0.000 OA
ATOM     21  C   UNL     1     102.966 135.144 140.281  0.00  0.00    +0.000 C 
ENDBRANCH  10  20
TORSDOF 3
ENDMDL
MODEL 6
REMARK VINA RESULT:      -7.3     12.810     13.860
REMARK  Name = 14137568
REMARK  3 active torsions:
REMARK  status: ('A' for Active; 'I' for Inactive)
REMARK    1  A    between atoms: O_2  and  C_11
REMARK    2  A    between atoms: O_3  and  C_16
REMARK    3  A    between atoms: C_5  and  C_10
REMARK                            x       y       z     vdW  Elec       q    Type
REMARK                         _______ _______ _______ _____ _____    ______ ____
ROOT
ATOM      1  O   UNL     1     112.077 126.298 136.065  0.00  0.00    +0.000 OA
ATOM      2  C   UNL     1     111.231 126.359 135.922  0.00  0.00    +0.000 C 
ATOM      3  C   UNL     1     110.728 125.675 136.050  0.00  0.00    +0.000 C 
ATOM      4  C   UNL     1     111.077 124.937 136.320  0.00  0.00    +0.000 C 
ATOM      5  C   UNL     1     111.924 124.894 136.458  0.00  0.00    +0.000 A 
ATOM      6  C   UNL     1     112.407 125.551 136.334  0.00  0.00    +0.000 A 
ATOM      7  C   UNL     1     112.254 124.183 136.717  0.00  0.00    +0.000 A 
ATOM      8  C   UNL     1     113.219 125.498 136.470  0.00  0.00    +0.000 A 
ATOM      9  C   UNL     1     113.065 124.130 136.852  0.00  0.00    +0.000 A 
ATOM     10  C   UNL     1     113.548 124.787 136.729  0.00  0.00    +0.000 A 
ENDROOT
BRANCH   2  12
ATOM     11  O   UNL     1     109.929 129.208 134.883  0.00  0.00    +0.000 OA
ATOM     12  C   UNL     1     110.906 127.072 135.663  0.00  0.00    +0.000 A 
ATOM     13  C   UNL     1     110.688 127.162 134.872  0.00  0.00    +0.000 A 
ATOM     14  C   UNL     1     110.798 127.694 136.194  0.00  0.00    +0.000 A 
ATOM     15  C   UNL     1     110.363 127.873 134.612  0.00  0.00    +0.000 A 
ATOM     16  C   UNL     1     110.472 128.406 135.934  0.00  0.00    +0.000 A 
ATOM     17  C   UNL     1     110.255 128.496 135.143  0.00  0.00    +0.000 A 
ENDBRANCH   2  12
BRANCH   7  18
ATOM     18  O   UNL     1     111.771 123.526 136.840  0.00  0.00    +0.000 OA
ATOM     19  C   UNL     1     112.073 122.857 137.215  0.00  0.00    +0.000 C 
ENDBRANCH   7  18
BRANCH  10  20
ATOM     20  O   UNL     1     114.361 124.734 136.864  0.00  0.00    +0.000 OA
ATOM     21  C   UNL     1     114.686 125.058 137.549  0.00  0.00    +0.000 C 
ENDBRANCH  10  20
TORSDOF 3
ENDMDL
MODEL 7
REMARK VINA RESULT:      -7.3     13.328     14.625
REMARK  Name = 14137568
REMARK  3 active torsions:
REMARK  status: ('A' for Active; 'I' for Inactive)
REMARK    1  A    between atoms: O_2  and  C_11
REMARK    2  A    between atoms: O_3  and  C_16
REMARK    3  A    between atoms: C_5  and  C_10
REMARK                            x       y       z     vdW  Elec       q    Type
REMARK                         _______ _______ _______ _____ _____    ______ ____
ROOT
ATOM      1  O   UNL     1     113.935 127.402 136.312  0.00  0.00    +0.000 OA
ATOM      2  C   UNL     1     113.450 128.084 136.114  0.00  0.00    +0.000 C 
ATOM      3  C   UNL     1     112.602 127.987 136.015  0.00  0.00    +0.000 C 
ATOM      4  C   UNL     1     112.250 127.209 136.114  0.00  0.00    +0.000 C 
ATOM      5  C   UNL     1     112.750 126.539 136.312  0.00  0.00    +0.000 A 
ATOM      6  C   UNL     1     113.564 126.633 136.408  0.00  0.00    +0.000 A 
ATOM      7  C   UNL     1     112.407 125.795 136.406  0.00  0.00    +0.000 A 
ATOM      8  C   UNL     1     114.035 125.981 136.598  0.00  0.00    +0.000 A 
ATOM      9  C   UNL     1     112.876 125.145 136.596  0.00  0.00    +0.000 A 
ATOM     10  C   UNL     1     113.690 125.238 136.692  0.00  0.00    +0.000 A 
ENDROOT
BRANCH   2  12
ATOM     11  O   UNL     1     114.843 131.051 135.737  0.00  0.00    +0.000 OA
ATOM     12  C   UNL     1     113.798 128.826 136.021  0.00  0.00    +0.000 A 
ATOM     13  C   UNL     1     114.187 129.013 135.317  0.00  0.00    +0.000 A 
ATOM     14  C   UNL     1     113.757 129.381 136.630  0.00  0.00    +0.000 A 
ATOM     15  C   UNL     1     114.535 129.754 135.223  0.00  0.00    +0.000 A 
ATOM     16  C   UNL     1     114.105 130.123 136.535  0.00  0.00    +0.000 A 
ATOM     17  C   UNL     1     114.494 130.309 135.832  0.00  0.00    +0.000 A 
ENDBRANCH   2  12
BRANCH   7  18
ATOM     18  O   UNL     1     111.592 125.702 136.311  0.00  0.00    +0.000 OA
ATOM     19  C   UNL     1     111.268 124.946 136.257  0.00  0.00    +0.000 C 
ENDBRANCH   7  18
BRANCH  10  20
ATOM     20  O   UNL     1     114.161 124.587 136.882  0.00  0.00    +0.000 OA
ATOM     21  C   UNL     1     114.676 124.624 137.525  0.00  0.00    +0.000 C 
ENDBRANCH  10  20
TORSDOF 3
ENDMDL
MODEL 8
REMARK VINA RESULT:      -7.3     13.063     13.641
REMARK  Name = 14137568
REMARK  3 active torsions:
REMARK  status: ('A' for Active; 'I' for Inactive)
REMARK    1  A    between atoms: O_2  and  C_11
REMARK    2  A    between atoms: O_3  and  C_16
REMARK    3  A    between atoms: C_5  and  C_10
REMARK                            x       y       z     vdW  Elec       q    Type
REMARK                         _______ _______ _______ _____ _____    ______ ____
ROOT
ATOM      1  O   UNL     1     112.243 126.420 136.045  0.00  0.00    +0.000 OA
ATOM      2  C   UNL     1     112.378 125.630 136.358  0.00  0.00    +0.000 C 
ATOM      3  C   UNL     1     111.784 125.020 136.241  0.00  0.00    +0.000 C 
ATOM      4  C   UNL     1     111.062 125.208 135.814  0.00  0.00    +0.000 C 
ATOM      5  C   UNL     1     110.945 126.002 135.509  0.00  0.00    +0.000 A 
ATOM      6  C   UNL     1     111.515 126.588 135.621  0.00  0.00    +0.000 A 
ATOM      7  C   UNL     1     110.250 126.177 135.099  0.00  0.00    +0.000 A 
ATOM      8  C   UNL     1     111.390 127.348 135.323  0.00  0.00    +0.000 A 
ATOM      9  C   UNL     1     110.125 126.935 134.802  0.00  0.00    +0.000 A 
ATOM     10  C   UNL     1     110.696 127.521 134.914  0.00  0.00    +0.000 A 
ENDROOT
BRANCH   2  12
ATOM     11  O   UNL     1     115.164 124.949 137.989  0.00  0.00    +0.000 OA
ATOM     12  C   UNL     1     113.074 125.460 136.766  0.00  0.00    +0.000 A 
ATOM     13  C   UNL     1     113.680 125.042 136.392  0.00  0.00    +0.000 A 
ATOM     14  C   UNL     1     113.166 125.707 137.548  0.00  0.00    +0.000 A 
ATOM     15  C   UNL     1     114.376 124.872 136.800  0.00  0.00    +0.000 A 
ATOM     16  C   UNL     1     113.862 125.537 137.956  0.00  0.00    +0.000 A 
ATOM     17  C   UNL     1     114.467 125.119 137.582  0.00  0.00    +0.000 A 
ENDBRANCH   2  12
BRANCH   7  18
ATOM     18  O   UNL     1     109.679 125.591 134.988  0.00  0.00    +0.000 OA
ATOM     19  C   UNL     1     108.915 125.799 134.760  0.00  0.00    +0.000 C 
ENDBRANCH   7  18
BRANCH  10  20
ATOM     20  O   UNL     1     110.571 128.281 134.616  0.00  0.00    +0.000 OA
ATOM     21  C   UNL     1     110.508 128.920 135.134  0.00  0.00    +0.000 C 
ENDBRANCH  10  20
TORSDOF 3
ENDMDL
MODEL 9
REMARK VINA RESULT:      -7.2     12.940     14.191
REMARK  Name = 14137568
REMARK  3 active torsions:
REMARK  status: ('A' for Active; 'I' for Inactive)
REMARK    1  A    between atoms: O_2  and  C_11
REMARK    2  A    between atoms: O_3  and  C_16
REMARK    3  A    between atoms: C_5  and  C_10
REMARK                            x       y       z     vdW  Elec       q    Type
REMARK                         _______ _______ _______ _____ _____    ______ ____
ROOT
ATOM      1  O   UNL     1     112.133 126.671 136.060  0.00  0.00    +0.000 OA
ATOM      2  C   UNL     1     112.683 126.188 136.512  0.00  0.00    +0.000 C 
ATOM      3  C   UNL     1     113.429 126.525 136.773  0.00  0.00    +0.000 C 
ATOM      4  C   UNL     1     113.615 127.342 136.579  0.00  0.00    +0.000 C 
ATOM      5  C   UNL     1     113.054 127.809 136.128  0.00  0.00    +0.000 A 
ATOM      6  C   UNL     1     112.338 127.485 135.877  0.00  0.00    +0.000 A 
ATOM      7  C   UNL     1     113.238 128.593 135.945  0.00  0.00    +0.000 A 
ATOM      8  C   UNL     1     111.806 127.945 135.444  0.00  0.00    +0.000 A 
ATOM      9  C   UNL     1     112.707 129.051 135.512  0.00  0.00    +0.000 A 
ATOM     10  C   UNL     1     111.991 128.727 135.262  0.00  0.00    +0.000 A 
ENDROOT
BRANCH   2  12
ATOM     11  O   UNL     1     111.932 123.056 137.231  0.00  0.00    +0.000 OA
ATOM     12  C   UNL     1     112.495 125.405 136.692  0.00  0.00    +0.000 A 
ATOM     13  C   UNL     1     112.964 124.791 136.402  0.00  0.00    +0.000 A 
ATOM     14  C   UNL     1     111.838 125.236 137.162  0.00  0.00    +0.000 A 
ATOM     15  C   UNL     1     112.776 124.009 136.582  0.00  0.00    +0.000 A 
ATOM     16  C   UNL     1     111.651 124.453 137.342  0.00  0.00    +0.000 A 
ATOM     17  C   UNL     1     112.120 123.839 137.051  0.00  0.00    +0.000 A 
ENDBRANCH   2  12
BRANCH   7  18
ATOM     18  O   UNL     1     113.954 128.917 136.196  0.00  0.00    +0.000 OA
ATOM     19  C   UNL     1     114.192 129.655 135.918  0.00  0.00    +0.000 C 
ENDBRANCH   7  18
BRANCH  10  20
ATOM     20  O   UNL     1     111.460 129.187 134.828  0.00  0.00    +0.000 OA
ATOM     21  C   UNL     1     110.733 129.397 135.157  0.00  0.00    +0.000 C 
ENDBRANCH  10  20
TORSDOF 3
ENDMDL
MODEL 10
REMARK VINA RESULT:      -7.2     13.585     14.814
REMARK  Name = 14137568
REMARK  3 active torsions:
REMARK  status: ('A' for Active; 'I' for Inactive)
REMARK    1  A    between atoms: O_2  and  C_11
REMARK    2  A    between atoms: O_3  and  C_16
REMARK    3  A    between atoms: C_5  and  C_10
REMARK                            x       y       z     vdW  Elec       q    Type
REMARK                         _______ _______ _______ _____ _____    ______ ____
ROOT
ATOM      1  O   UNL     1     113.768 127.536 136.035  0.00  0.00    +0.000 OA
ATOM      2  C   UNL     1     113.447 127.105 136.706  0.00  0.00    +0.000 C 
ATOM      3  C   UNL     1     113.147 127.539 137.385  0.00  0.00    +0.000 C 
ATOM      4  C   UNL     1     113.173 128.398 137.383  0.00  0.00    +0.000 C 
ATOM      5  C   UNL     1     113.497 128.812 136.704  0.00  0.00    +0.000 A 
ATOM      6  C   UNL     1     113.785 128.395 136.053  0.00  0.00    +0.000 A 
ATOM      7  C   UNL     1     113.520 129.637 136.708  0.00  0.00    +0.000 A 
ATOM      8  C   UNL     1     114.095 128.804 135.405  0.00  0.00    +0.000 A 
ATOM      9  C   UNL     1     113.829 130.045 136.062  0.00  0.00    +0.000 A 
ATOM     10  C   UNL     1     114.117 129.628 135.411  0.00  0.00    +0.000 A 
ENDROOT
BRANCH   2  12
ATOM     11  O   UNL     1     113.370 123.807 136.673  0.00  0.00    +0.000 OA
ATOM     12  C   UNL     1     113.426 126.281 136.698  0.00  0.00    +0.000 A 
ATOM     13  C   UNL     1     114.098 125.850 136.912  0.00  0.00    +0.000 A 
ATOM     14  C   UNL     1     112.737 125.886 136.475  0.00  0.00    +0.000 A 
ATOM     15  C   UNL     1     114.078 125.026 136.903  0.00  0.00    +0.000 A 
ATOM     16  C   UNL     1     112.718 125.062 136.467  0.00  0.00    +0.000 A 
ATOM     17  C   UNL     1     113.389 124.632 136.681  0.00  0.00    +0.000 A 
ENDBRANCH   2  12
BRANCH   7  18
ATOM     18  O   UNL     1     113.232 130.053 137.360  0.00  0.00    +0.000 OA
ATOM     19  C   UNL     1     113.221 130.877 137.350  0.00  0.00    +0.000 C 
ENDBRANCH   7  18
BRANCH  10  20
ATOM     20  O   UNL     1     114.427 130.036 134.764  0.00  0.00    +0.000 OA
ATOM     21  C   UNL     1     115.238 130.019 134.615  0.00  0.00    +0.000 C 
ENDBRANCH  10  20
TORSDOF 3
ENDMDL
