MODEL 1
REMARK VINA RESULT:      -9.2      0.000      0.000
REMARK  Name = 74978527
REMARK  5 active torsions:
REMARK  status: ('A' for Active; 'I' for Inactive)
REMARK    1  A    between atoms: O_2  and  C_17
REMARK    2  A    between atoms: O_2  and  C_19
REMARK    3  A    between atoms: O_11  and  C_27
REMARK    4  A    between atoms: C_16  and  C_18
REMARK    5  A    between atoms: C_20  and  C_24
REMARK                            x       y       z     vdW  Elec       q    Type
REMARK                         _______ _______ _______ _____ _____    ______ ____
ROOT
ATOM      1  O   UNL     1     112.857 126.060 138.595  0.00  0.00    +0.000 OA
ATOM      2  O   UNL     1     110.567 125.688 137.730  0.00  0.00    +0.000 OA
ATOM      3  O   UNL     1     109.993 126.135 138.975  0.00  0.00    +0.000 OA
ATOM      4  O   UNL     1     113.098 126.640 140.149  0.00  0.00    +0.000 OA
ATOM      5  C   UNL     1     111.983 125.650 137.540  0.00  0.00    +0.000 A 
ATOM      6  C   UNL     1     112.747 125.775 137.829  0.00  0.00    +0.000 A 
ATOM      7  C   UNL     1     111.331 125.812 138.018  0.00  0.00    +0.000 A 
ATOM      8  C   UNL     1     111.441 126.098 138.785  0.00  0.00    +0.000 A 
ATOM      9  C   UNL     1     112.203 126.222 139.073  0.00  0.00    +0.000 A 
ATOM     10  C   UNL     1     110.753 126.262 139.272  0.00  0.00    +0.000 A 
ATOM     11  C   UNL     1     112.332 126.519 139.869  0.00  0.00    +0.000 A 
ATOM     12  C   UNL     1     111.656 126.689 140.371  0.00  0.00    +0.000 A 
ATOM     13  C   UNL     1     110.861 126.560 140.071  0.00  0.00    +0.000 A 
ENDROOT
BRANCH   6  15
ATOM     14  O   UNL     1     115.356 125.124 135.916  0.00  0.00    +0.000 OA
ATOM     15  C   UNL     1     113.399 125.613 137.351  0.00  0.00    +0.000 A 
ATOM     16  C   UNL     1     113.818 126.231 137.000  0.00  0.00    +0.000 A 
ATOM     17  C   UNL     1     113.633 124.831 137.223  0.00  0.00    +0.000 A 
ATOM     18  C   UNL     1     114.470 126.068 136.522  0.00  0.00    +0.000 A 
ATOM     19  C   UNL     1     114.285 124.669 136.745  0.00  0.00    +0.000 A 
ATOM     20  C   UNL     1     114.704 125.288 136.395  0.00  0.00    +0.000 A 
ENDBRANCH   6  15
BRANCH  12  21
ATOM     21  O   UNL     1     111.769 126.975 141.137  0.00  0.00    +0.000 OA
ATOM     22  C   UNL     1     111.120 127.202 141.592  0.00  0.00    +0.000 C 
ENDBRANCH  12  21
BRANCH   5  23
ATOM     23  O   UNL     1     111.873 125.365 136.774  0.00  0.00    +0.000 OA
BRANCH  23  32
ATOM     24  O   UNL     1     111.458 126.621 136.233  0.00  0.00    +0.000 OA
ATOM     25  O   UNL     1     110.006 125.443 134.612  0.00  0.00    +0.000 OA
ATOM     26  O   UNL     1     110.076 127.091 134.612  0.00  0.00    +0.000 OA
ATOM     27  O   UNL     1     110.905 124.580 135.693  0.00  0.00    +0.000 OA
ATOM     28  C   UNL     1     110.490 125.836 135.153  0.00  0.00    +0.000 C 
ATOM     29  C   UNL     1     110.525 126.660 135.153  0.00  0.00    +0.000 C 
ATOM     30  C   UNL     1     110.940 125.404 135.694  0.00  0.00    +0.000 C 
ATOM     31  C   UNL     1     111.010 127.052 135.693  0.00  0.00    +0.000 C 
ATOM     32  C   UNL     1     111.424 125.796 136.234  0.00  0.00    +0.000 C 
BRANCH  31  34
ATOM     33  O   UNL     1     111.756 128.260 135.530  0.00  0.00    +0.000 OA
ATOM     34  C   UNL     1     111.044 127.876 135.693  0.00  0.00    +0.000 C 
ENDBRANCH  31  34
ENDBRANCH  23  32
ENDBRANCH   5  23
TORSDOF 5
ENDMDL
MODEL 2
REMARK VINA RESULT:      -9.0      9.518     12.391
REMARK  Name = 74978527
REMARK  5 active torsions:
REMARK  status: ('A' for Active; 'I' for Inactive)
REMARK    1  A    between atoms: O_2  and  C_17
REMARK    2  A    between atoms: O_2  and  C_19
REMARK    3  A    between atoms: O_11  and  C_27
REMARK    4  A    between atoms: C_16  and  C_18
REMARK    5  A    between atoms: C_20  and  C_24
REMARK                            x       y       z     vdW  Elec       q    Type
REMARK                         _______ _______ _______ _____ _____    ______ ____
ROOT
ATOM      1  O   UNL     1     104.248 124.454 148.369  0.00  0.00    +0.000 OA
ATOM      2  O   UNL     1     104.249 124.485 145.894  0.00  0.00    +0.000 OA
ATOM      3  O   UNL     1     102.829 124.228 145.862  0.00  0.00    +0.000 OA
ATOM      4  O   UNL     1     102.829 124.186 149.220  0.00  0.00    +0.000 OA
ATOM      5  C   UNL     1     104.952 124.597 147.133  0.00  0.00    +0.000 A 
ATOM      6  C   UNL     1     104.951 124.587 147.959  0.00  0.00    +0.000 A 
ATOM      7  C   UNL     1     104.248 124.475 146.719  0.00  0.00    +0.000 A 
ATOM      8  C   UNL     1     103.545 124.342 147.130  0.00  0.00    +0.000 A 
ATOM      9  C   UNL     1     103.546 124.332 147.955  0.00  0.00    +0.000 A 
ATOM     10  C   UNL     1     102.820 124.216 146.687  0.00  0.00    +0.000 A 
ATOM     11  C   UNL     1     102.820 124.195 148.395  0.00  0.00    +0.000 A 
ATOM     12  C   UNL     1     102.084 124.066 147.969  0.00  0.00    +0.000 A 
ATOM     13  C   UNL     1     102.085 124.077 147.110  0.00  0.00    +0.000 A 
ENDROOT
BRANCH   6  15
ATOM     14  O   UNL     1     107.765 125.075 149.612  0.00  0.00    +0.000 OA
ATOM     15  C   UNL     1     105.655 124.709 148.372  0.00  0.00    +0.000 A 
ATOM     16  C   UNL     1     105.784 125.424 148.764  0.00  0.00    +0.000 A 
ATOM     17  C   UNL     1     106.229 124.117 148.393  0.00  0.00    +0.000 A 
ATOM     18  C   UNL     1     106.488 125.545 149.178  0.00  0.00    +0.000 A 
ATOM     19  C   UNL     1     106.932 124.239 148.806  0.00  0.00    +0.000 A 
ATOM     20  C   UNL     1     107.062 124.953 149.199  0.00  0.00    +0.000 A 
ENDBRANCH   6  15
BRANCH  12  21
ATOM     21  O   UNL     1     101.383 123.934 148.383  0.00  0.00    +0.000 OA
ATOM     22  C   UNL     1     100.729 123.614 147.994  0.00  0.00    +0.000 C 
ENDBRANCH  12  21
BRANCH   5  23
ATOM     23  O   UNL     1     105.655 124.730 146.722  0.00  0.00    +0.000 OA
BRANCH  23  32
ATOM     24  O   UNL     1     105.327 126.075 146.366  0.00  0.00    +0.000 OA
ATOM     25  O   UNL     1     106.658 125.850 144.292  0.00  0.00    +0.000 OA
ATOM     26  O   UNL     1     105.887 127.269 144.628  0.00  0.00    +0.000 OA
ATOM     27  O   UNL     1     106.542 124.580 145.339  0.00  0.00    +0.000 OA
ATOM     28  C   UNL     1     106.215 125.925 144.983  0.00  0.00    +0.000 C 
ATOM     29  C   UNL     1     105.829 126.634 145.152  0.00  0.00    +0.000 C 
ATOM     30  C   UNL     1     106.156 125.290 145.508  0.00  0.00    +0.000 C 
ATOM     31  C   UNL     1     105.385 126.709 145.843  0.00  0.00    +0.000 C 
ATOM     32  C   UNL     1     105.713 125.365 146.199  0.00  0.00    +0.000 C 
BRANCH  31  34
ATOM     33  O   UNL     1     105.177 127.832 146.702  0.00  0.00    +0.000 OA
ATOM     34  C   UNL     1     105.000 127.418 146.011  0.00  0.00    +0.000 C 
ENDBRANCH  31  34
ENDBRANCH  23  32
ENDBRANCH   5  23
TORSDOF 5
ENDMDL
MODEL 3
REMARK VINA RESULT:      -8.8      4.039      6.095
REMARK  Name = 74978527
REMARK  5 active torsions:
REMARK  status: ('A' for Active; 'I' for Inactive)
REMARK    1  A    between atoms: O_2  and  C_17
REMARK    2  A    between atoms: O_2  and  C_19
REMARK    3  A    between atoms: O_11  and  C_27
REMARK    4  A    between atoms: C_16  and  C_18
REMARK    5  A    between atoms: C_20  and  C_24
REMARK                            x       y       z     vdW  Elec       q    Type
REMARK                         _______ _______ _______ _____ _____    ______ ____
ROOT
ATOM      1  O   UNL     1     111.750 129.522 135.761  0.00  0.00    +0.000 OA
ATOM      2  O   UNL     1     112.294 130.787 137.818  0.00  0.00    +0.000 OA
ATOM      3  O   UNL     1     113.680 130.881 137.428  0.00  0.00    +0.000 OA
ATOM      4  O   UNL     1     112.942 129.165 134.638  0.00  0.00    +0.000 OA
ATOM      5  C   UNL     1     111.339 130.115 136.995  0.00  0.00    +0.000 A 
ATOM      6  C   UNL     1     111.157 129.693 136.309  0.00  0.00    +0.000 A 
ATOM      7  C   UNL     1     112.113 130.365 137.132  0.00  0.00    +0.000 A 
ATOM      8  C   UNL     1     112.705 130.194 136.584  0.00  0.00    +0.000 A 
ATOM      9  C   UNL     1     112.524 129.772 135.899  0.00  0.00    +0.000 A 
ATOM     10  C   UNL     1     113.508 130.460 136.739  0.00  0.00    +0.000 A 
ATOM     11  C   UNL     1     113.132 129.587 135.320  0.00  0.00    +0.000 A 
ATOM     12  C   UNL     1     113.940 129.845 135.458  0.00  0.00    +0.000 A 
ATOM     13  C   UNL     1     114.129 130.284 136.172  0.00  0.00    +0.000 A 
ENDROOT
BRANCH   6  15
ATOM     14  O   UNL     1     108.061 128.691 135.763  0.00  0.00    +0.000 OA
ATOM     15  C   UNL     1     110.383 129.443 136.172  0.00  0.00    +0.000 A 
ATOM     16  C   UNL     1     109.919 129.827 135.609  0.00  0.00    +0.000 A 
ATOM     17  C   UNL     1     110.074 128.808 136.599  0.00  0.00    +0.000 A 
ATOM     18  C   UNL     1     109.145 129.576 135.473  0.00  0.00    +0.000 A 
ATOM     19  C   UNL     1     109.300 128.558 136.462  0.00  0.00    +0.000 A 
ATOM     20  C   UNL     1     108.835 128.942 135.899  0.00  0.00    +0.000 A 
ENDBRANCH   6  15
BRANCH  12  21
ATOM     21  O   UNL     1     114.531 129.672 134.909  0.00  0.00    +0.000 OA
ATOM     22  C   UNL     1     115.202 130.149 134.862  0.00  0.00    +0.000 C 
ENDBRANCH  12  21
BRANCH   5  23
ATOM     23  O   UNL     1     110.746 130.286 137.543  0.00  0.00    +0.000 OA
BRANCH  23  32
ATOM     24  O   UNL     1     110.642 131.667 137.190  0.00  0.00    +0.000 OA
ATOM     25  O   UNL     1     110.049 132.221 139.528  0.00  0.00    +0.000 OA
ATOM     26  O   UNL     1     110.142 133.416 138.395  0.00  0.00    +0.000 OA
ATOM     27  O   UNL     1     110.351 130.655 139.102  0.00  0.00    +0.000 OA
ATOM     28  C   UNL     1     110.246 132.036 138.749  0.00  0.00    +0.000 C 
ATOM     29  C   UNL     1     110.293 132.634 138.182  0.00  0.00    +0.000 C 
ATOM     30  C   UNL     1     110.398 131.253 138.535  0.00  0.00    +0.000 C 
ATOM     31  C   UNL     1     110.491 132.449 137.402  0.00  0.00    +0.000 C 
ATOM     32  C   UNL     1     110.595 131.068 137.756  0.00  0.00    +0.000 C 
BRANCH  31  34
ATOM     33  O   UNL     1     110.028 133.042 136.188  0.00  0.00    +0.000 OA
ATOM     34  C   UNL     1     110.538 133.047 136.837  0.00  0.00    +0.000 C 
ENDBRANCH  31  34
ENDBRANCH  23  32
ENDBRANCH   5  23
TORSDOF 5
ENDMDL
MODEL 4
REMARK VINA RESULT:      -8.8      1.974      4.299
REMARK  Name = 74978527
REMARK  5 active torsions:
REMARK  status: ('A' for Active; 'I' for Inactive)
REMARK    1  A    between atoms: O_2  and  C_17
REMARK    2  A    between atoms: O_2  and  C_19
REMARK    3  A    between atoms: O_11  and  C_27
REMARK    4  A    between atoms: C_16  and  C_18
REMARK    5  A    between atoms: C_20  and  C_24
REMARK                            x       y       z     vdW  Elec       q    Type
REMARK                         _______ _______ _______ _____ _____    ______ ____
ROOT
ATOM      1  O   UNL     1     113.598 127.304 136.613  0.00  0.00    +0.000 OA
ATOM      2  O   UNL     1     112.205 128.272 138.416  0.00  0.00    +0.000 OA
ATOM      3  O   UNL     1     112.508 129.610 137.971  0.00  0.00    +0.000 OA
ATOM      4  O   UNL     1     114.397 128.298 135.525  0.00  0.00    +0.000 OA
ATOM      5  C   UNL     1     112.743 127.131 137.746  0.00  0.00    +0.000 A 
ATOM      6  C   UNL     1     113.208 126.808 137.144  0.00  0.00    +0.000 A 
ATOM      7  C   UNL     1     112.670 127.949 137.815  0.00  0.00    +0.000 A 
ATOM      8  C   UNL     1     113.060 128.445 137.283  0.00  0.00    +0.000 A 
ATOM      9  C   UNL     1     113.523 128.123 136.683  0.00  0.00    +0.000 A 
ATOM     10  C   UNL     1     112.975 129.297 137.367  0.00  0.00    +0.000 A 
ATOM     11  C   UNL     1     113.935 128.629 136.122  0.00  0.00    +0.000 A 
ATOM     12  C   UNL     1     113.862 129.482 136.190  0.00  0.00    +0.000 A 
ATOM     13  C   UNL     1     113.378 129.818 136.816  0.00  0.00    +0.000 A 
ENDROOT
BRANCH   6  15
ATOM     14  O   UNL     1     113.499 123.533 136.866  0.00  0.00    +0.000 OA
ATOM     15  C   UNL     1     113.281 125.989 137.075  0.00  0.00    +0.000 A 
ATOM     16  C   UNL     1     113.979 125.616 137.307  0.00  0.00    +0.000 A 
ATOM     17  C   UNL     1     112.655 125.543 136.773  0.00  0.00    +0.000 A 
ATOM     18  C   UNL     1     114.052 124.797 137.237  0.00  0.00    +0.000 A 
ATOM     19  C   UNL     1     112.729 124.725 136.704  0.00  0.00    +0.000 A 
ATOM     20  C   UNL     1     113.427 124.352 136.936  0.00  0.00    +0.000 A 
ENDBRANCH   6  15
BRANCH  12  21
ATOM     21  O   UNL     1     114.253 129.976 135.657  0.00  0.00    +0.000 OA
ATOM     22  C   UNL     1     114.567 130.694 135.915  0.00  0.00    +0.000 C 
ENDBRANCH  12  21
BRANCH   5  23
ATOM     23  O   UNL     1     112.353 126.634 138.277  0.00  0.00    +0.000 OA
BRANCH  23  32
ATOM     24  O   UNL     1     113.245 126.928 139.354  0.00  0.00    +0.000 OA
ATOM     25  O   UNL     1     111.443 126.445 140.979  0.00  0.00    +0.000 OA
ATOM     26  O   UNL     1     112.935 126.899 141.514  0.00  0.00    +0.000 OA
ATOM     27  O   UNL     1     111.151 126.312 139.361  0.00  0.00    +0.000 OA
ATOM     28  C   UNL     1     112.044 126.606 140.437  0.00  0.00    +0.000 C 
ATOM     29  C   UNL     1     112.790 126.833 140.704  0.00  0.00    +0.000 C 
ATOM     30  C   UNL     1     111.898 126.540 139.627  0.00  0.00    +0.000 C 
ATOM     31  C   UNL     1     113.391 126.994 140.162  0.00  0.00    +0.000 C 
ATOM     32  C   UNL     1     112.499 126.701 139.086  0.00  0.00    +0.000 C 
BRANCH  31  34
ATOM     33  O   UNL     1     114.790 126.734 140.299  0.00  0.00    +0.000 OA
ATOM     34  C   UNL     1     114.137 127.222 140.430  0.00  0.00    +0.000 C 
ENDBRANCH  31  34
ENDBRANCH  23  32
ENDBRANCH   5  23
TORSDOF 5
ENDMDL
MODEL 5
REMARK VINA RESULT:      -8.8      2.200      3.740
REMARK  Name = 74978527
REMARK  5 active torsions:
REMARK  status: ('A' for Active; 'I' for Inactive)
REMARK    1  A    between atoms: O_2  and  C_17
REMARK    2  A    between atoms: O_2  and  C_19
REMARK    3  A    between atoms: O_11  and  C_27
REMARK    4  A    between atoms: C_16  and  C_18
REMARK    5  A    between atoms: C_20  and  C_24
REMARK                            x       y       z     vdW  Elec       q    Type
REMARK                         _______ _______ _______ _____ _____    ______ ____
ROOT
ATOM      1  O   UNL     1     112.722 126.999 136.266  0.00  0.00    +0.000 OA
ATOM      2  O   UNL     1     110.382 127.060 135.459  0.00  0.00    +0.000 OA
ATOM      3  O   UNL     1     110.245 125.638 135.663  0.00  0.00    +0.000 OA
ATOM      4  O   UNL     1     113.418 125.555 136.757  0.00  0.00    +0.000 OA
ATOM      5  C   UNL     1     111.607 127.734 135.757  0.00  0.00    +0.000 A 
ATOM      6  C   UNL     1     112.387 127.713 136.026  0.00  0.00    +0.000 A 
ATOM      7  C   UNL     1     111.163 127.040 135.728  0.00  0.00    +0.000 A 
ATOM      8  C   UNL     1     111.498 126.325 135.968  0.00  0.00    +0.000 A 
ATOM      9  C   UNL     1     112.277 126.305 136.237  0.00  0.00    +0.000 A 
ATOM     10  C   UNL     1     111.024 125.609 135.933  0.00  0.00    +0.000 A 
ATOM     11  C   UNL     1     112.638 125.566 136.490  0.00  0.00    +0.000 A 
ATOM     12  C   UNL     1     112.180 124.840 136.462  0.00  0.00    +0.000 A 
ATOM     13  C   UNL     1     111.368 124.862 136.182  0.00  0.00    +0.000 A 
ENDROOT
BRANCH   6  15
ATOM     14  O   UNL     1     114.164 130.492 136.143  0.00  0.00    +0.000 OA
ATOM     15  C   UNL     1     112.832 128.408 136.054  0.00  0.00    +0.000 A 
ATOM     16  C   UNL     1     113.115 128.746 135.357  0.00  0.00    +0.000 A 
ATOM     17  C   UNL     1     112.992 128.765 136.782  0.00  0.00    +0.000 A 
ATOM     18  C   UNL     1     113.560 129.440 135.387  0.00  0.00    +0.000 A 
ATOM     19  C   UNL     1     113.436 129.459 136.810  0.00  0.00    +0.000 A 
ATOM     20  C   UNL     1     113.720 129.797 136.113  0.00  0.00    +0.000 A 
ENDBRANCH   6  15
BRANCH  12  21
ATOM     21  O   UNL     1     112.517 124.126 136.703  0.00  0.00    +0.000 OA
ATOM     22  C   UNL     1     112.036 123.479 136.872  0.00  0.00    +0.000 C 
ENDBRANCH  12  21
BRANCH   5  23
ATOM     23  O   UNL     1     111.272 128.449 135.517  0.00  0.00    +0.000 OA
BRANCH  23  32
ATOM     24  O   UNL     1     110.468 128.609 136.688  0.00  0.00    +0.000 OA
ATOM     25  O   UNL     1     108.748 129.778 135.347  0.00  0.00    +0.000 OA
ATOM     26  O   UNL     1     108.518 129.548 136.963  0.00  0.00    +0.000 OA
ATOM     27  O   UNL     1     110.125 129.228 134.623  0.00  0.00    +0.000 OA
ATOM     28  C   UNL     1     109.321 129.388 135.794  0.00  0.00    +0.000 C 
ATOM     29  C   UNL     1     109.207 129.273 136.602  0.00  0.00    +0.000 C 
ATOM     30  C   UNL     1     110.010 129.113 135.432  0.00  0.00    +0.000 C 
ATOM     31  C   UNL     1     109.780 128.883 137.049  0.00  0.00    +0.000 C 
ATOM     32  C   UNL     1     110.584 128.723 135.879  0.00  0.00    +0.000 C 
BRANCH  31  34
ATOM     33  O   UNL     1     110.190 129.100 138.401  0.00  0.00    +0.000 OA
ATOM     34  C   UNL     1     109.665 128.768 137.857  0.00  0.00    +0.000 C 
ENDBRANCH  31  34
ENDBRANCH  23  32
ENDBRANCH   5  23
TORSDOF 5
ENDMDL
MODEL 6
REMARK VINA RESULT:      -8.7      1.983      3.962
REMARK  Name = 74978527
REMARK  5 active torsions:
REMARK  status: ('A' for Active; 'I' for Inactive)
REMARK    1  A    between atoms: O_2  and  C_17
REMARK    2  A    between atoms: O_2  and  C_19
REMARK    3  A    between atoms: O_11  and  C_27
REMARK    4  A    between atoms: C_16  and  C_18
REMARK    5  A    between atoms: C_20  and  C_24
REMARK                            x       y       z     vdW  Elec       q    Type
REMARK                         _______ _______ _______ _____ _____    ______ ____
ROOT
ATOM      1  O   UNL     1     112.896 128.368 138.475  0.00  0.00    +0.000 OA
ATOM      2  O   UNL     1     112.364 127.181 136.368  0.00  0.00    +0.000 OA
ATOM      3  O   UNL     1     112.932 128.253 135.587  0.00  0.00    +0.000 OA
ATOM      4  O   UNL     1     113.652 129.863 138.445  0.00  0.00    +0.000 OA
ATOM      5  C   UNL     1     112.346 127.236 137.796  0.00  0.00    +0.000 A 
ATOM      6  C   UNL     1     112.523 127.632 138.499  0.00  0.00    +0.000 A 
ATOM      7  C   UNL     1     112.542 127.577 137.071  0.00  0.00    +0.000 A 
ATOM      8  C   UNL     1     112.914 128.312 137.047  0.00  0.00    +0.000 A 
ATOM      9  C   UNL     1     113.091 128.707 137.749  0.00  0.00    +0.000 A 
ATOM     10  C   UNL     1     113.113 128.656 136.285  0.00  0.00    +0.000 A 
ATOM     11  C   UNL     1     113.479 129.475 137.738  0.00  0.00    +0.000 A 
ATOM     12  C   UNL     1     113.685 129.834 136.985  0.00  0.00    +0.000 A 
ATOM     13  C   UNL     1     113.501 129.422 136.254  0.00  0.00    +0.000 A 
ENDROOT
BRANCH   6  15
ATOM     14  O   UNL     1     111.738 126.270 141.400  0.00  0.00    +0.000 OA
ATOM     15  C   UNL     1     112.328 127.291 139.224  0.00  0.00    +0.000 A 
ATOM     16  C   UNL     1     112.919 126.977 139.705  0.00  0.00    +0.000 A 
ATOM     17  C   UNL     1     111.539 127.266 139.468  0.00  0.00    +0.000 A 
ATOM     18  C   UNL     1     112.722 126.636 140.431  0.00  0.00    +0.000 A 
ATOM     19  C   UNL     1     111.343 126.925 140.193  0.00  0.00    +0.000 A 
ATOM     20  C   UNL     1     111.935 126.610 140.674  0.00  0.00    +0.000 A 
ENDBRANCH   6  15
BRANCH  12  21
ATOM     21  O   UNL     1     114.058 130.570 136.964  0.00  0.00    +0.000 OA
ATOM     22  C   UNL     1     114.288 130.895 136.242  0.00  0.00    +0.000 C 
ENDBRANCH  12  21
BRANCH   5  23
ATOM     23  O   UNL     1     111.973 126.500 137.820  0.00  0.00    +0.000 OA
BRANCH  23  32
ATOM     24  O   UNL     1     113.152 125.771 137.471  0.00  0.00    +0.000 OA
ATOM     25  O   UNL     1     111.757 124.031 136.397  0.00  0.00    +0.000 OA
ATOM     26  O   UNL     1     113.399 123.883 136.406  0.00  0.00    +0.000 OA
ATOM     27  O   UNL     1     111.044 125.340 137.104  0.00  0.00    +0.000 OA
ATOM     28  C   UNL     1     112.222 124.611 136.755  0.00  0.00    +0.000 C 
ATOM     29  C   UNL     1     113.043 124.537 136.760  0.00  0.00    +0.000 C 
ATOM     30  C   UNL     1     111.865 125.266 137.109  0.00  0.00    +0.000 C 
ATOM     31  C   UNL     1     113.508 125.117 137.118  0.00  0.00    +0.000 C 
ATOM     32  C   UNL     1     112.330 125.846 137.467  0.00  0.00    +0.000 C 
BRANCH  31  34
ATOM     33  O   UNL     1     114.740 125.037 137.838  0.00  0.00    +0.000 OA
ATOM     34  C   UNL     1     114.329 125.043 137.122  0.00  0.00    +0.000 C 
ENDBRANCH  31  34
ENDBRANCH  23  32
ENDBRANCH   5  23
TORSDOF 5
ENDMDL
MODEL 7
REMARK VINA RESULT:      -8.6      1.653      2.449
REMARK  Name = 74978527
REMARK  5 active torsions:
REMARK  status: ('A' for Active; 'I' for Inactive)
REMARK    1  A    between atoms: O_2  and  C_17
REMARK    2  A    between atoms: O_2  and  C_19
REMARK    3  A    between atoms: O_11  and  C_27
REMARK    4  A    between atoms: C_16  and  C_18
REMARK    5  A    between atoms: C_20  and  C_24
REMARK                            x       y       z     vdW  Elec       q    Type
REMARK                         _______ _______ _______ _____ _____    ______ ____
ROOT
ATOM      1  O   UNL     1     112.792 126.392 139.165  0.00  0.00    +0.000 OA
ATOM      2  O   UNL     1     113.231 128.623 138.185  0.00  0.00    +0.000 OA
ATOM      3  O   UNL     1     112.930 129.266 139.442  0.00  0.00    +0.000 OA
ATOM      4  O   UNL     1     112.336 126.240 140.771  0.00  0.00    +0.000 OA
ATOM      5  C   UNL     1     113.163 127.202 138.047  0.00  0.00    +0.000 A 
ATOM      6  C   UNL     1     113.017 126.458 138.374  0.00  0.00    +0.000 A 
ATOM      7  C   UNL     1     113.084 127.879 138.512  0.00  0.00    +0.000 A 
ATOM      8  C   UNL     1     112.860 127.813 139.303  0.00  0.00    +0.000 A 
ATOM      9  C   UNL     1     112.714 127.070 139.629  0.00  0.00    +0.000 A 
ATOM     10  C   UNL     1     112.782 128.526 139.777  0.00  0.00    +0.000 A 
ATOM     11  C   UNL     1     112.480 126.987 140.453  0.00  0.00    +0.000 A 
ATOM     12  C   UNL     1     112.397 127.689 140.941  0.00  0.00    +0.000 A 
ATOM     13  C   UNL     1     112.549 128.463 140.601  0.00  0.00    +0.000 A 
ENDROOT
BRANCH   6  15
ATOM     14  O   UNL     1     113.333 123.751 136.513  0.00  0.00    +0.000 OA
ATOM     15  C   UNL     1     113.095 125.782 137.909  0.00  0.00    +0.000 A 
ATOM     16  C   UNL     1     112.424 125.383 137.643  0.00  0.00    +0.000 A 
ATOM     17  C   UNL     1     113.847 125.504 137.709  0.00  0.00    +0.000 A 
ATOM     18  C   UNL     1     112.504 124.706 137.178  0.00  0.00    +0.000 A 
ATOM     19  C   UNL     1     113.925 124.827 137.244  0.00  0.00    +0.000 A 
ATOM     20  C   UNL     1     113.254 124.428 136.979  0.00  0.00    +0.000 A 
ENDBRANCH   6  15
BRANCH  12  21
ATOM     21  O   UNL     1     112.172 127.620 141.732  0.00  0.00    +0.000 OA
ATOM     22  C   UNL     1     112.030 128.297 142.181  0.00  0.00    +0.000 C 
ENDBRANCH  12  21
BRANCH   5  23
ATOM     23  O   UNL     1     113.387 127.269 137.256  0.00  0.00    +0.000 OA
BRANCH  23  32
ATOM     24  O   UNL     1     112.116 127.756 136.821  0.00  0.00    +0.000 OA
ATOM     25  O   UNL     1     113.224 129.025 135.007  0.00  0.00    +0.000 OA
ATOM     26  O   UNL     1     111.585 129.089 135.177  0.00  0.00    +0.000 OA
ATOM     27  O   UNL     1     114.126 128.114 136.047  0.00  0.00    +0.000 OA
ATOM     28  C   UNL     1     112.855 128.602 135.612  0.00  0.00    +0.000 C 
ATOM     29  C   UNL     1     112.035 128.634 135.697  0.00  0.00    +0.000 C 
ATOM     30  C   UNL     1     113.306 128.146 136.132  0.00  0.00    +0.000 C 
ATOM     31  C   UNL     1     111.666 128.211 136.301  0.00  0.00    +0.000 C 
ATOM     32  C   UNL     1     112.937 127.723 136.737  0.00  0.00    +0.000 C 
BRANCH  31  34
ATOM     33  O   UNL     1     110.396 127.556 136.313  0.00  0.00    +0.000 OA
ATOM     34  C   UNL     1     110.846 128.243 136.386  0.00  0.00    +0.000 C 
ENDBRANCH  31  34
ENDBRANCH  23  32
ENDBRANCH   5  23
TORSDOF 5
ENDMDL
MODEL 8
REMARK VINA RESULT:      -8.5      1.572      2.789
REMARK  Name = 74978527
REMARK  5 active torsions:
REMARK  status: ('A' for Active; 'I' for Inactive)
REMARK    1  A    between atoms: O_2  and  C_17
REMARK    2  A    between atoms: O_2  and  C_19
REMARK    3  A    between atoms: O_11  and  C_27
REMARK    4  A    between atoms: C_16  and  C_18
REMARK    5  A    between atoms: C_20  and  C_24
REMARK                            x       y       z     vdW  Elec       q    Type
REMARK                         _______ _______ _______ _____ _____    ______ ____
ROOT
ATOM      1  O   UNL     1     112.823 128.266 138.337  0.00  0.00    +0.000 OA
ATOM      2  O   UNL     1     111.769 126.038 138.570  0.00  0.00    +0.000 OA
ATOM      3  O   UNL     1     111.837 126.126 140.009  0.00  0.00    +0.000 OA
ATOM      4  O   UNL     1     113.266 129.148 139.692  0.00  0.00    +0.000 OA
ATOM      5  C   UNL     1     112.257 127.096 137.742  0.00  0.00    +0.000 A 
ATOM      6  C   UNL     1     112.608 127.839 137.664  0.00  0.00    +0.000 A 
ATOM      7  C   UNL     1     112.121 126.781 138.493  0.00  0.00    +0.000 A 
ATOM      8  C   UNL     1     112.336 127.209 139.165  0.00  0.00    +0.000 A 
ATOM      9  C   UNL     1     112.686 127.951 139.087  0.00  0.00    +0.000 A 
ATOM     10  C   UNL     1     112.188 126.869 139.941  0.00  0.00    +0.000 A 
ATOM     11  C   UNL     1     112.915 128.406 139.779  0.00  0.00    +0.000 A 
ATOM     12  C   UNL     1     112.776 128.083 140.563  0.00  0.00    +0.000 A 
ATOM     13  C   UNL     1     112.410 127.310 140.644  0.00  0.00    +0.000 A 
ENDROOT
BRANCH   6  15
ATOM     14  O   UNL     1     113.154 129.097 134.663  0.00  0.00    +0.000 OA
ATOM     15  C   UNL     1     112.744 128.154 136.914  0.00  0.00    +0.000 A 
ATOM     16  C   UNL     1     112.115 128.451 136.471  0.00  0.00    +0.000 A 
ATOM     17  C   UNL     1     113.510 128.171 136.607  0.00  0.00    +0.000 A 
ATOM     18  C   UNL     1     112.252 128.765 135.720  0.00  0.00    +0.000 A 
ATOM     19  C   UNL     1     113.646 128.486 135.857  0.00  0.00    +0.000 A 
ATOM     20  C   UNL     1     113.017 128.783 135.413  0.00  0.00    +0.000 A 
ENDBRANCH   6  15
BRANCH  12  21
ATOM     21  O   UNL     1     112.992 128.513 141.234  0.00  0.00    +0.000 OA
ATOM     22  C   UNL     1     112.528 128.475 141.915  0.00  0.00    +0.000 C 
ENDBRANCH  12  21
BRANCH   5  23
ATOM     23  O   UNL     1     112.042 126.669 137.070  0.00  0.00    +0.000 OA
BRANCH  23  32
ATOM     24  O   UNL     1     113.112 125.727 137.172  0.00  0.00    +0.000 OA
ATOM     25  O   UNL     1     111.672 123.982 136.168  0.00  0.00    +0.000 OA
ATOM     26  O   UNL     1     113.221 123.623 136.604  0.00  0.00    +0.000 OA
ATOM     27  O   UNL     1     111.082 125.505 136.401  0.00  0.00    +0.000 OA
ATOM     28  C   UNL     1     112.152 124.564 136.503  0.00  0.00    +0.000 C 
ATOM     29  C   UNL     1     112.927 124.385 136.721  0.00  0.00    +0.000 C 
ATOM     30  C   UNL     1     111.857 125.326 136.619  0.00  0.00    +0.000 C 
ATOM     31  C   UNL     1     113.407 124.966 137.055  0.00  0.00    +0.000 C 
ATOM     32  C   UNL     1     112.337 125.908 136.954  0.00  0.00    +0.000 C 
BRANCH  31  34
ATOM     33  O   UNL     1     114.812 125.203 136.942  0.00  0.00    +0.000 OA
ATOM     34  C   UNL     1     114.181 124.786 137.273  0.00  0.00    +0.000 C 
ENDBRANCH  31  34
ENDBRANCH  23  32
ENDBRANCH   5  23
TORSDOF 5
ENDMDL
MODEL 9
REMARK VINA RESULT:      -8.5      1.378      4.237
REMARK  Name = 74978527
REMARK  5 active torsions:
REMARK  status: ('A' for Active; 'I' for Inactive)
REMARK    1  A    between atoms: O_2  and  C_17
REMARK    2  A    between atoms: O_2  and  C_19
REMARK    3  A    between atoms: O_11  and  C_27
REMARK    4  A    between atoms: C_16  and  C_18
REMARK    5  A    between atoms: C_20  and  C_24
REMARK                            x       y       z     vdW  Elec       q    Type
REMARK                         _______ _______ _______ _____ _____    ______ ____
ROOT
ATOM      1  O   UNL     1     111.878 126.574 136.186  0.00  0.00    +0.000 OA
ATOM      2  O   UNL     1     112.847 127.978 137.981  0.00  0.00    +0.000 OA
ATOM      3  O   UNL     1     112.436 129.182 137.301  0.00  0.00    +0.000 OA
ATOM      4  O   UNL     1     111.122 127.278 134.866  0.00  0.00    +0.000 OA
ATOM      5  C   UNL     1     112.572 126.688 137.431  0.00  0.00    +0.000 A 
ATOM      6  C   UNL     1     112.249 126.220 136.832  0.00  0.00    +0.000 A 
ATOM      7  C   UNL     1     112.524 127.510 137.382  0.00  0.00    +0.000 A 
ATOM      8  C   UNL     1     112.153 127.864 136.736  0.00  0.00    +0.000 A 
ATOM      9  C   UNL     1     111.831 127.397 136.139  0.00  0.00    +0.000 A 
ATOM     10  C   UNL     1     112.110 128.722 136.698  0.00  0.00    +0.000 A 
ATOM     11  C   UNL     1     111.442 127.754 135.460  0.00  0.00    +0.000 A 
ATOM     12  C   UNL     1     111.389 128.610 135.404  0.00  0.00    +0.000 A 
ATOM     13  C   UNL     1     111.725 129.096 136.027  0.00  0.00    +0.000 A 
ENDROOT
BRANCH   6  15
ATOM     14  O   UNL     1     112.439 122.931 137.028  0.00  0.00    +0.000 OA
ATOM     15  C   UNL     1     112.297 125.398 136.881  0.00  0.00    +0.000 A 
ATOM     16  C   UNL     1     113.015 125.017 136.739  0.00  0.00    +0.000 A 
ATOM     17  C   UNL     1     111.626 124.956 137.072  0.00  0.00    +0.000 A 
ATOM     18  C   UNL     1     113.062 124.195 136.788  0.00  0.00    +0.000 A 
ATOM     19  C   UNL     1     111.674 124.134 137.120  0.00  0.00    +0.000 A 
ATOM     20  C   UNL     1     112.392 123.754 136.979  0.00  0.00    +0.000 A 
ENDBRANCH   6  15
BRANCH  12  21
ATOM     21  O   UNL     1     111.018 128.961 134.757  0.00  0.00    +0.000 OA
ATOM     22  C   UNL     1     110.592 129.661 134.855  0.00  0.00    +0.000 C 
ENDBRANCH  12  21
BRANCH   5  23
ATOM     23  O   UNL     1     112.943 126.333 138.077  0.00  0.00    +0.000 OA
BRANCH  23  32
ATOM     24  O   UNL     1     111.866 126.570 138.987  0.00  0.00    +0.000 OA
ATOM     25  O   UNL     1     113.485 126.782 140.847  0.00  0.00    +0.000 OA
ATOM     26  O   UNL     1     111.870 126.948 141.136  0.00  0.00    +0.000 OA
ATOM     27  O   UNL     1     114.022 126.475 139.317  0.00  0.00    +0.000 OA
ATOM     28  C   UNL     1     112.946 126.711 140.227  0.00  0.00    +0.000 C 
ATOM     29  C   UNL     1     112.138 126.794 140.371  0.00  0.00    +0.000 C 
ATOM     30  C   UNL     1     113.214 126.558 139.461  0.00  0.00    +0.000 C 
ATOM     31  C   UNL     1     111.598 126.724 139.751  0.00  0.00    +0.000 C 
ATOM     32  C   UNL     1     112.674 126.487 138.841  0.00  0.00    +0.000 C 
BRANCH  31  34
ATOM     33  O   UNL     1     110.278 126.176 139.753  0.00  0.00    +0.000 OA
ATOM     34  C   UNL     1     110.791 126.807 139.896  0.00  0.00    +0.000 C 
ENDBRANCH  31  34
ENDBRANCH  23  32
ENDBRANCH   5  23
TORSDOF 5
ENDMDL
MODEL 10
REMARK VINA RESULT:      -8.5      2.001      3.492
REMARK  Name = 74978527
REMARK  5 active torsions:
REMARK  status: ('A' for Active; 'I' for Inactive)
REMARK    1  A    between atoms: O_2  and  C_17
REMARK    2  A    between atoms: O_2  and  C_19
REMARK    3  A    between atoms: O_11  and  C_27
REMARK    4  A    between atoms: C_16  and  C_18
REMARK    5  A    between atoms: C_20  and  C_24
REMARK                            x       y       z     vdW  Elec       q    Type
REMARK                         _______ _______ _______ _____ _____    ______ ____
ROOT
ATOM      1  O   UNL     1     113.363 127.590 136.944  0.00  0.00    +0.000 OA
ATOM      2  O   UNL     1     111.923 128.102 138.892  0.00  0.00    +0.000 OA
ATOM      3  O   UNL     1     112.022 129.517 138.629  0.00  0.00    +0.000 OA
ATOM      4  O   UNL     1     113.975 128.823 135.987  0.00  0.00    +0.000 OA
ATOM      5  C   UNL     1     112.585 127.148 138.059  0.00  0.00    +0.000 A 
ATOM      6  C   UNL     1     113.066 126.977 137.409  0.00  0.00    +0.000 A 
ATOM      7  C   UNL     1     112.403 127.931 138.242  0.00  0.00    +0.000 A 
ATOM      8  C   UNL     1     112.700 128.544 137.776  0.00  0.00    +0.000 A 
ATOM      9  C   UNL     1     113.180 128.373 137.128  0.00  0.00    +0.000 A 
ATOM     10  C   UNL     1     112.503 129.356 137.978  0.00  0.00    +0.000 A 
ATOM     11  C   UNL     1     113.496 129.003 136.634  0.00  0.00    +0.000 A 
ATOM     12  C   UNL     1     113.309 129.820 136.820  0.00  0.00    +0.000 A 
ATOM     13  C   UNL     1     112.809 129.998 137.496  0.00  0.00    +0.000 A 
ENDROOT
BRANCH   6  15
ATOM     14  O   UNL     1     113.797 123.843 136.680  0.00  0.00    +0.000 OA
ATOM     15  C   UNL     1     113.248 126.194 137.227  0.00  0.00    +0.000 A 
ATOM     16  C   UNL     1     112.874 125.819 136.594  0.00  0.00    +0.000 A 
ATOM     17  C   UNL     1     113.806 125.784 137.677  0.00  0.00    +0.000 A 
ATOM     18  C   UNL     1     113.057 125.036 136.412  0.00  0.00    +0.000 A 
ATOM     19  C   UNL     1     113.988 125.001 137.495  0.00  0.00    +0.000 A 
ATOM     20  C   UNL     1     113.614 124.627 136.862  0.00  0.00    +0.000 A 
ENDBRANCH   6  15
BRANCH  12  21
ATOM     21  O   UNL     1     113.608 130.431 136.353  0.00  0.00    +0.000 OA
ATOM     22  C   UNL     1     113.774 131.165 136.690  0.00  0.00    +0.000 C 
ENDBRANCH  12  21
BRANCH   5  23
ATOM     23  O   UNL     1     112.288 126.535 138.525  0.00  0.00    +0.000 OA
BRANCH  23  32
ATOM     24  O   UNL     1     110.962 126.631 138.002  0.00  0.00    +0.000 OA
ATOM     25  O   UNL     1     110.054 125.829 140.161  0.00  0.00    +0.000 OA
ATOM     26  O   UNL     1     109.031 126.193 138.919  0.00  0.00    +0.000 OA
ATOM     27  O   UNL     1     111.683 126.000 139.964  0.00  0.00    +0.000 OA
ATOM     28  C   UNL     1     110.356 126.097 139.441  0.00  0.00    +0.000 C 
ATOM     29  C   UNL     1     109.845 126.279 138.820  0.00  0.00    +0.000 C 
ATOM     30  C   UNL     1     111.172 126.182 139.343  0.00  0.00    +0.000 C 
ATOM     31  C   UNL     1     110.148 126.546 138.101  0.00  0.00    +0.000 C 
ATOM     32  C   UNL     1     111.474 126.450 138.623  0.00  0.00    +0.000 C 
BRANCH  31  34
ATOM     33  O   UNL     1     109.679 126.306 136.772  0.00  0.00    +0.000 OA
ATOM     34  C   UNL     1     109.636 126.728 137.481  0.00  0.00    +0.000 C 
ENDBRANCH  31  34
ENDBRANCH  23  32
ENDBRANCH   5  23
TORSDOF 5
ENDMDL
