MODEL 1
REMARK VINA RESULT:      -9.7      0.000      0.000
REMARK  Name = 44258945
REMARK  9 active torsions:
REMARK  status: ('A' for Active; 'I' for Inactive)
REMARK    1  A    between atoms: O_1  and  C_19
REMARK    2  A    between atoms: O_1  and  C_23
REMARK    3  A    between atoms: O_4  and  C_25
REMARK    4  A    between atoms: O_4  and  C_34
REMARK    5  A    between atoms: O_11  and  C_33
REMARK    6  A    between atoms: O_11  and  C_39
REMARK    7  A    between atoms: C_20  and  C_27
REMARK    8  A    between atoms: C_24  and  C_28
REMARK    9  A    between atoms: C_36  and  C_43
REMARK                            x       y       z     vdW  Elec       q    Type
REMARK                         _______ _______ _______ _____ _____    ______ ____
ROOT
ATOM      1  O   UNL     1     110.594 127.735 137.294  0.00  0.00    +0.000 OA
ATOM      2  O   UNL     1     111.441 129.053 139.209  0.00  0.00    +0.000 OA
ATOM      3  O   UNL     1     112.027 127.873 139.798  0.00  0.00    +0.000 OA
ATOM      4  C   UNL     1     110.732 128.986 137.970  0.00  0.00    +0.000 A 
ATOM      5  C   UNL     1     110.449 128.547 137.331  0.00  0.00    +0.000 A 
ATOM      6  C   UNL     1     111.159 128.613 138.570  0.00  0.00    +0.000 A 
ATOM      7  C   UNL     1     111.302 127.802 138.532  0.00  0.00    +0.000 A 
ATOM      8  C   UNL     1     111.606 126.123 138.464  0.00  0.00    +0.000 A 
ATOM      9  C   UNL     1     111.020 127.363 137.893  0.00  0.00    +0.000 A 
ATOM     10  C   UNL     1     111.163 126.517 137.842  0.00  0.00    +0.000 A 
ATOM     11  C   UNL     1     111.748 127.426 139.164  0.00  0.00    +0.000 A 
ATOM     12  C   UNL     1     111.901 126.581 139.129  0.00  0.00    +0.000 A 
ENDROOT
BRANCH   5  14
ATOM     13  O   UNL     1     108.743 130.036 134.931  0.00  0.00    +0.000 OA
ATOM     14  C   UNL     1     110.023 128.919 136.731  0.00  0.00    +0.000 A 
ATOM     15  C   UNL     1     110.421 129.307 136.121  0.00  0.00    +0.000 A 
ATOM     16  C   UNL     1     109.198 128.904 136.741  0.00  0.00    +0.000 A 
ATOM     17  C   UNL     1     109.995 129.679 135.522  0.00  0.00    +0.000 A 
ATOM     18  C   UNL     1     108.771 129.276 136.141  0.00  0.00    +0.000 A 
ATOM     19  C   UNL     1     109.170 129.664 135.532  0.00  0.00    +0.000 A 
ENDBRANCH   5  14
BRANCH   4  20
ATOM     20  O   UNL     1     110.589 129.797 138.009  0.00  0.00    +0.000 OA
BRANCH  20  26
ATOM     21  O   UNL     1     109.612 129.730 139.106  0.00  0.00    +0.000 OA
ATOM     22  O   UNL     1     109.694 131.629 140.077  0.00  0.00    +0.000 OA
ATOM     23  C   UNL     1     110.287 130.873 138.964  0.00  0.00    +0.000 C 
ATOM     24  C   UNL     1     109.775 130.957 139.606  0.00  0.00    +0.000 C 
ATOM     25  C   UNL     1     109.358 130.250 139.694  0.00  0.00    +0.000 C 
ATOM     26  C   UNL     1     110.186 130.114 138.655  0.00  0.00    +0.000 C 
BRANCH  25  28
ATOM     27  O   UNL     1     108.222 129.505 140.136  0.00  0.00    +0.000 OA
ATOM     28  C   UNL     1     108.788 130.092 140.267  0.00  0.00    +0.000 C 
ENDBRANCH  25  28
BRANCH  23  29
ATOM     29  O   UNL     1     110.807 131.447 138.681  0.00  0.00    +0.000 OA
BRANCH  29  35
ATOM     30  O   UNL     1     109.772 132.282 138.055  0.00  0.00    +0.000 OA
ATOM     31  O   UNL     1     111.178 133.149 136.702  0.00  0.00    +0.000 OA
ATOM     32  O   UNL     1     111.824 132.290 137.466  0.00  0.00    +0.000 OA
ATOM     33  C   UNL     1     110.529 132.908 137.151  0.00  0.00    +0.000 C 
ATOM     34  C   UNL     1     111.014 132.396 137.578  0.00  0.00    +0.000 C 
ATOM     35  C   UNL     1     110.547 132.008 138.137  0.00  0.00    +0.000 C 
ATOM     36  C   UNL     1     109.761 132.838 137.445  0.00  0.00    +0.000 C 
BRANCH  33  38
ATOM     37  O   UNL     1     110.104 133.246 135.829  0.00  0.00    +0.000 OA
ATOM     38  C   UNL     1     110.268 133.470 136.606  0.00  0.00    +0.000 C 
ENDBRANCH  33  38
ENDBRANCH  29  35
ENDBRANCH  23  29
ENDBRANCH  20  26
ENDBRANCH   4  20
BRANCH   8  39
ATOM     39  O   UNL     1     111.749 125.311 138.423  0.00  0.00    +0.000 OA
BRANCH  39  48
ATOM     40  O   UNL     1     113.062 125.347 137.860  0.00  0.00    +0.000 OA
ATOM     41  O   UNL     1     112.469 123.473 136.356  0.00  0.00    +0.000 OA
ATOM     42  O   UNL     1     113.980 124.134 136.296  0.00  0.00    +0.000 OA
ATOM     43  O   UNL     1     111.353 124.062 137.420  0.00  0.00    +0.000 OA
ATOM     44  C   UNL     1     112.667 124.098 136.858  0.00  0.00    +0.000 C 
ATOM     45  C   UNL     1     113.422 124.429 136.828  0.00  0.00    +0.000 C 
ATOM     46  C   UNL     1     112.109 124.393 137.390  0.00  0.00    +0.000 C 
ATOM     47  C   UNL     1     113.619 125.053 137.329  0.00  0.00    +0.000 C 
ATOM     48  C   UNL     1     112.307 125.017 137.891  0.00  0.00    +0.000 C 
ATOM     49  C   UNL     1     114.375 125.383 137.298  0.00  0.00    +0.000 C 
ENDBRANCH  39  48
ENDBRANCH   8  39
TORSDOF 9
ENDMDL
MODEL 2
REMARK VINA RESULT:      -9.7      2.635      6.120
REMARK  Name = 44258945
REMARK  9 active torsions:
REMARK  status: ('A' for Active; 'I' for Inactive)
REMARK    1  A    between atoms: O_1  and  C_19
REMARK    2  A    between atoms: O_1  and  C_23
REMARK    3  A    between atoms: O_4  and  C_25
REMARK    4  A    between atoms: O_4  and  C_34
REMARK    5  A    between atoms: O_11  and  C_33
REMARK    6  A    between atoms: O_11  and  C_39
REMARK    7  A    between atoms: C_20  and  C_27
REMARK    8  A    between atoms: C_24  and  C_28
REMARK    9  A    between atoms: C_36  and  C_43
REMARK                            x       y       z     vdW  Elec       q    Type
REMARK                         _______ _______ _______ _____ _____    ______ ____
ROOT
ATOM      1  O   UNL     1     112.783 129.090 138.981  0.00  0.00    +0.000 OA
ATOM      2  O   UNL     1     112.130 126.773 139.554  0.00  0.00    +0.000 OA
ATOM      3  O   UNL     1     112.327 127.035 140.959  0.00  0.00    +0.000 OA
ATOM      4  C   UNL     1     112.355 127.789 138.575  0.00  0.00    +0.000 A 
ATOM      5  C   UNL     1     112.573 128.562 138.383  0.00  0.00    +0.000 A 
ATOM      6  C   UNL     1     112.348 127.546 139.363  0.00  0.00    +0.000 A 
ATOM      7  C   UNL     1     112.558 128.076 139.960  0.00  0.00    +0.000 A 
ATOM      8  C   UNL     1     112.991 129.161 141.205  0.00  0.00    +0.000 A 
ATOM      9  C   UNL     1     112.776 128.848 139.769  0.00  0.00    +0.000 A 
ATOM     10  C   UNL     1     112.996 129.408 140.382  0.00  0.00    +0.000 A 
ATOM     11  C   UNL     1     112.546 127.810 140.778  0.00  0.00    +0.000 A 
ATOM     12  C   UNL     1     112.764 128.356 141.404  0.00  0.00    +0.000 A 
ENDROOT
BRANCH   5  14
ATOM     13  O   UNL     1     112.603 129.534 135.230  0.00  0.00    +0.000 OA
ATOM     14  C   UNL     1     112.580 128.805 137.595  0.00  0.00    +0.000 A 
ATOM     15  C   UNL     1     111.875 129.016 137.222  0.00  0.00    +0.000 A 
ATOM     16  C   UNL     1     113.293 128.837 137.180  0.00  0.00    +0.000 A 
ATOM     17  C   UNL     1     111.883 129.258 136.434  0.00  0.00    +0.000 A 
ATOM     18  C   UNL     1     113.300 129.080 136.392  0.00  0.00    +0.000 A 
ATOM     19  C   UNL     1     112.596 129.291 136.019  0.00  0.00    +0.000 A 
ENDBRANCH   5  14
BRANCH   4  20
ATOM     20  O   UNL     1     112.145 127.260 137.978  0.00  0.00    +0.000 OA
BRANCH  20  26
ATOM     21  O   UNL     1     113.380 126.463 138.002  0.00  0.00    +0.000 OA
ATOM     22  O   UNL     1     112.816 124.494 137.401  0.00  0.00    +0.000 OA
ATOM     23  C   UNL     1     112.260 125.834 137.638  0.00  0.00    +0.000 C 
ATOM     24  C   UNL     1     112.878 125.289 137.613  0.00  0.00    +0.000 C 
ATOM     25  C   UNL     1     113.571 125.677 137.838  0.00  0.00    +0.000 C 
ATOM     26  C   UNL     1     112.571 126.560 137.879  0.00  0.00    +0.000 C 
BRANCH  25  28
ATOM     27  O   UNL     1     114.889 125.670 138.390  0.00  0.00    +0.000 OA
ATOM     28  C   UNL     1     114.321 125.339 137.890  0.00  0.00    +0.000 C 
ENDBRANCH  25  28
BRANCH  23  29
ATOM     29  O   UNL     1     111.471 125.681 137.455  0.00  0.00    +0.000 OA
BRANCH  29  35
ATOM     30  O   UNL     1     111.685 125.695 136.000  0.00  0.00    +0.000 OA
ATOM     31  O   UNL     1     109.602 125.968 135.617  0.00  0.00    +0.000 OA
ATOM     32  O   UNL     1     109.772 125.909 136.924  0.00  0.00    +0.000 OA
ATOM     33  C   UNL     1     110.421 125.865 135.606  0.00  0.00    +0.000 C 
ATOM     34  C   UNL     1     110.429 125.841 136.431  0.00  0.00    +0.000 C 
ATOM     35  C   UNL     1     111.210 125.736 136.675  0.00  0.00    +0.000 C 
ATOM     36  C   UNL     1     111.197 125.776 135.340  0.00  0.00    +0.000 C 
BRANCH  33  38
ATOM     37  O   UNL     1     109.424 125.613 134.613  0.00  0.00    +0.000 OA
ATOM     38  C   UNL     1     110.160 125.921 134.825  0.00  0.00    +0.000 C 
ENDBRANCH  33  38
ENDBRANCH  29  35
ENDBRANCH  23  29
ENDBRANCH  20  26
ENDBRANCH   4  20
BRANCH   8  39
ATOM     39  O   UNL     1     113.201 129.693 141.800  0.00  0.00    +0.000 OA
BRANCH  39  48
ATOM     40  O   UNL     1     111.890 129.907 142.325  0.00  0.00    +0.000 OA
ATOM     41  O   UNL     1     112.420 132.299 142.674  0.00  0.00    +0.000 OA
ATOM     42  O   UNL     1     110.932 131.716 143.083  0.00  0.00    +0.000 OA
ATOM     43  O   UNL     1     113.555 131.287 142.032  0.00  0.00    +0.000 OA
ATOM     44  C   UNL     1     112.244 131.502 142.557  0.00  0.00    +0.000 C 
ATOM     45  C   UNL     1     111.500 131.209 142.762  0.00  0.00    +0.000 C 
ATOM     46  C   UNL     1     112.810 130.995 142.237  0.00  0.00    +0.000 C 
ATOM     47  C   UNL     1     111.323 130.412 142.646  0.00  0.00    +0.000 C 
ATOM     48  C   UNL     1     112.633 130.198 142.121  0.00  0.00    +0.000 C 
ATOM     49  C   UNL     1     110.578 130.121 142.851  0.00  0.00    +0.000 C 
ENDBRANCH  39  48
ENDBRANCH   8  39
TORSDOF 9
ENDMDL
MODEL 3
REMARK VINA RESULT:      -9.6      2.677      4.035
REMARK  Name = 44258945
REMARK  9 active torsions:
REMARK  status: ('A' for Active; 'I' for Inactive)
REMARK    1  A    between atoms: O_1  and  C_19
REMARK    2  A    between atoms: O_1  and  C_23
REMARK    3  A    between atoms: O_4  and  C_25
REMARK    4  A    between atoms: O_4  and  C_34
REMARK    5  A    between atoms: O_11  and  C_33
REMARK    6  A    between atoms: O_11  and  C_39
REMARK    7  A    between atoms: C_20  and  C_27
REMARK    8  A    between atoms: C_24  and  C_28
REMARK    9  A    between atoms: C_36  and  C_43
REMARK                            x       y       z     vdW  Elec       q    Type
REMARK                         _______ _______ _______ _____ _____    ______ ____
ROOT
ATOM      1  O   UNL     1     111.095 127.449 138.999  0.00  0.00    +0.000 OA
ATOM      2  O   UNL     1     112.515 129.450 138.678  0.00  0.00    +0.000 OA
ATOM      3  O   UNL     1     112.827 129.047 137.328  0.00  0.00    +0.000 OA
ATOM      4  C   UNL     1     111.658 128.660 139.505  0.00  0.00    +0.000 A 
ATOM      5  C   UNL     1     111.185 127.993 139.612  0.00  0.00    +0.000 A 
ATOM      6  C   UNL     1     112.041 128.782 138.784  0.00  0.00    +0.000 A 
ATOM      7  C   UNL     1     111.951 128.238 138.171  0.00  0.00    +0.000 A 
ATOM      8  C   UNL     1     111.772 127.118 136.895  0.00  0.00    +0.000 A 
ATOM      9  C   UNL     1     111.477 127.571 138.279  0.00  0.00    +0.000 A 
ATOM     10  C   UNL     1     111.376 126.997 137.647  0.00  0.00    +0.000 A 
ATOM     11  C   UNL     1     112.355 128.377 137.426  0.00  0.00    +0.000 A 
ATOM     12  C   UNL     1     112.265 127.814 136.783  0.00  0.00    +0.000 A 
ENDROOT
BRANCH   5  14
ATOM     13  O   UNL     1     109.654 127.503 142.494  0.00  0.00    +0.000 OA
ATOM     14  C   UNL     1     110.802 127.870 140.333  0.00  0.00    +0.000 A 
ATOM     15  C   UNL     1     110.090 128.256 140.492  0.00  0.00    +0.000 A 
ATOM     16  C   UNL     1     111.131 127.362 140.893  0.00  0.00    +0.000 A 
ATOM     17  C   UNL     1     109.708 128.133 141.213  0.00  0.00    +0.000 A 
ATOM     18  C   UNL     1     110.748 127.239 141.614  0.00  0.00    +0.000 A 
ATOM     19  C   UNL     1     110.037 127.625 141.774  0.00  0.00    +0.000 A 
ENDBRANCH   5  14
BRANCH   4  20
ATOM     20  O   UNL     1     111.749 129.204 140.118  0.00  0.00    +0.000 OA
BRANCH  20  26
ATOM     21  O   UNL     1     113.164 128.889 140.361  0.00  0.00    +0.000 OA
ATOM     22  O   UNL     1     113.973 130.583 141.379  0.00  0.00    +0.000 OA
ATOM     23  C   UNL     1     112.724 130.072 140.795  0.00  0.00    +0.000 C 
ATOM     24  C   UNL     1     113.523 130.012 140.987  0.00  0.00    +0.000 C 
ATOM     25  C   UNL     1     113.796 129.281 140.719  0.00  0.00    +0.000 C 
ATOM     26  C   UNL     1     112.501 129.378 140.407  0.00  0.00    +0.000 C 
BRANCH  25  28
ATOM     27  O   UNL     1     114.695 128.180 140.872  0.00  0.00    +0.000 OA
ATOM     28  C   UNL     1     114.564 128.992 140.796  0.00  0.00    +0.000 C 
ENDBRANCH  25  28
BRANCH  23  29
ATOM     29  O   UNL     1     112.232 130.714 140.960  0.00  0.00    +0.000 OA
BRANCH  29  35
ATOM     30  O   UNL     1     112.160 130.411 142.397  0.00  0.00    +0.000 OA
ATOM     31  O   UNL     1     110.551 131.785 142.686  0.00  0.00    +0.000 OA
ATOM     32  O   UNL     1     110.886 131.811 141.410  0.00  0.00    +0.000 OA
ATOM     33  C   UNL     1     111.158 131.227 142.731  0.00  0.00    +0.000 C 
ATOM     34  C   UNL     1     111.295 131.311 141.922  0.00  0.00    +0.000 C 
ATOM     35  C   UNL     1     111.914 130.807 141.715  0.00  0.00    +0.000 C 
ATOM     36  C   UNL     1     111.692 130.671 143.024  0.00  0.00    +0.000 C 
BRANCH  33  38
ATOM     37  O   UNL     1     110.712 132.076 143.791  0.00  0.00    +0.000 OA
ATOM     38  C   UNL     1     110.839 131.320 143.487  0.00  0.00    +0.000 C 
ENDBRANCH  33  38
ENDBRANCH  29  35
ENDBRANCH  23  29
ENDBRANCH  20  26
ENDBRANCH   4  20
BRANCH   8  39
ATOM     39  O   UNL     1     111.680 126.572 136.283  0.00  0.00    +0.000 OA
BRANCH  39  48
ATOM     40  O   UNL     1     112.849 125.786 136.522  0.00  0.00    +0.000 OA
ATOM     41  O   UNL     1     111.552 123.724 136.083  0.00  0.00    +0.000 OA
ATOM     42  O   UNL     1     113.154 123.625 136.469  0.00  0.00    +0.000 OA
ATOM     43  O   UNL     1     110.815 125.197 135.990  0.00  0.00    +0.000 OA
ATOM     44  C   UNL     1     111.985 124.411 136.230  0.00  0.00    +0.000 C 
ATOM     45  C   UNL     1     112.785 124.363 136.422  0.00  0.00    +0.000 C 
ATOM     46  C   UNL     1     111.617 125.148 136.183  0.00  0.00    +0.000 C 
ATOM     47  C   UNL     1     113.217 125.050 136.569  0.00  0.00    +0.000 C 
ATOM     48  C   UNL     1     112.049 125.836 136.330  0.00  0.00    +0.000 C 
ATOM     49  C   UNL     1     114.018 125.000 136.761  0.00  0.00    +0.000 C 
ENDBRANCH  39  48
ENDBRANCH   8  39
TORSDOF 9
ENDMDL
MODEL 4
REMARK VINA RESULT:      -9.6      3.964      7.068
REMARK  Name = 44258945
REMARK  9 active torsions:
REMARK  status: ('A' for Active; 'I' for Inactive)
REMARK    1  A    between atoms: O_1  and  C_19
REMARK    2  A    between atoms: O_1  and  C_23
REMARK    3  A    between atoms: O_4  and  C_25
REMARK    4  A    between atoms: O_4  and  C_34
REMARK    5  A    between atoms: O_11  and  C_33
REMARK    6  A    between atoms: O_11  and  C_39
REMARK    7  A    between atoms: C_20  and  C_27
REMARK    8  A    between atoms: C_24  and  C_28
REMARK    9  A    between atoms: C_36  and  C_43
REMARK                            x       y       z     vdW  Elec       q    Type
REMARK                         _______ _______ _______ _____ _____    ______ ____
ROOT
ATOM      1  O   UNL     1     110.087 130.556 143.063  0.00  0.00    +0.000 OA
ATOM      2  O   UNL     1     111.805 131.534 141.576  0.00  0.00    +0.000 OA
ATOM      3  O   UNL     1     112.657 131.823 142.703  0.00  0.00    +0.000 OA
ATOM      4  C   UNL     1     110.533 130.907 141.753  0.00  0.00    +0.000 A 
ATOM      5  C   UNL     1     109.960 130.581 142.248  0.00  0.00    +0.000 A 
ATOM      6  C   UNL     1     111.232 131.208 142.072  0.00  0.00    +0.000 A 
ATOM      7  C   UNL     1     111.358 131.182 142.887  0.00  0.00    +0.000 A 
ATOM      8  C   UNL     1     111.630 131.136 144.572  0.00  0.00    +0.000 A 
ATOM      9  C   UNL     1     110.784 130.856 143.383  0.00  0.00    +0.000 A 
ATOM     10  C   UNL     1     110.904 130.824 144.233  0.00  0.00    +0.000 A 
ATOM     11  C   UNL     1     112.090 131.499 143.207  0.00  0.00    +0.000 A 
ATOM     12  C   UNL     1     112.227 131.476 144.055  0.00  0.00    +0.000 A 
ENDROOT
BRANCH   5  14
ATOM     13  O   UNL     1     107.166 129.377 140.971  0.00  0.00    +0.000 OA
ATOM     14  C   UNL     1     109.261 130.280 141.929  0.00  0.00    +0.000 A 
ATOM     15  C   UNL     1     108.648 130.792 141.723  0.00  0.00    +0.000 A 
ATOM     16  C   UNL     1     109.177 129.466 141.816  0.00  0.00    +0.000 A 
ATOM     17  C   UNL     1     107.950 130.490 141.403  0.00  0.00    +0.000 A 
ATOM     18  C   UNL     1     108.478 129.166 141.497  0.00  0.00    +0.000 A 
ATOM     19  C   UNL     1     107.865 129.678 141.290  0.00  0.00    +0.000 A 
ENDBRANCH   5  14
BRANCH   4  20
ATOM     20  O   UNL     1     110.408 130.932 140.938  0.00  0.00    +0.000 OA
BRANCH  20  26
ATOM     21  O   UNL     1     111.323 129.839 140.580  0.00  0.00    +0.000 OA
ATOM     22  O   UNL     1     112.041 130.296 138.622  0.00  0.00    +0.000 OA
ATOM     23  C   UNL     1     111.151 130.806 139.676  0.00  0.00    +0.000 C 
ATOM     24  C   UNL     1     111.680 130.256 139.363  0.00  0.00    +0.000 C 
ATOM     25  C   UNL     1     111.787 129.658 139.922  0.00  0.00    +0.000 C 
ATOM     26  C   UNL     1     110.930 130.548 140.428  0.00  0.00    +0.000 C 
BRANCH  25  28
ATOM     27  O   UNL     1     112.228 128.380 140.385  0.00  0.00    +0.000 OA
ATOM     28  C   UNL     1     112.272 128.997 139.838  0.00  0.00    +0.000 C 
ENDBRANCH  25  28
BRANCH  23  29
ATOM     29  O   UNL     1     110.888 131.492 139.301  0.00  0.00    +0.000 OA
BRANCH  29  35
ATOM     30  O   UNL     1     109.875 130.783 138.507  0.00  0.00    +0.000 OA
ATOM     31  O   UNL     1     108.966 132.613 137.886  0.00  0.00    +0.000 OA
ATOM     32  O   UNL     1     109.985 132.909 138.669  0.00  0.00    +0.000 OA
ATOM     33  C   UNL     1     109.204 131.837 138.037  0.00  0.00    +0.000 C 
ATOM     34  C   UNL     1     109.817 132.117 138.513  0.00  0.00    +0.000 C 
ATOM     35  C   UNL     1     110.232 131.466 138.803  0.00  0.00    +0.000 C 
ATOM     36  C   UNL     1     109.239 131.013 138.034  0.00  0.00    +0.000 C 
BRANCH  33  38
ATOM     37  O   UNL     1     107.802 132.020 137.825  0.00  0.00    +0.000 OA
ATOM     38  C   UNL     1     108.547 131.810 137.538  0.00  0.00    +0.000 C 
ENDBRANCH  33  38
ENDBRANCH  29  35
ENDBRANCH  23  29
ENDBRANCH  20  26
ENDBRANCH   4  20
BRANCH   8  39
ATOM     39  O   UNL     1     111.753 131.109 145.387  0.00  0.00    +0.000 OA
BRANCH  39  48
ATOM     40  O   UNL     1     110.920 132.224 145.713  0.00  0.00    +0.000 OA
ATOM     41  O   UNL     1     112.494 132.874 147.509  0.00  0.00    +0.000 OA
ATOM     42  O   UNL     1     111.137 133.772 147.236  0.00  0.00    +0.000 OA
ATOM     43  O   UNL     1     112.802 131.542 146.585  0.00  0.00    +0.000 OA
ATOM     44  C   UNL     1     111.969 132.657 146.910  0.00  0.00    +0.000 C 
ATOM     45  C   UNL     1     111.291 133.106 146.774  0.00  0.00    +0.000 C 
ATOM     46  C   UNL     1     112.123 131.992 146.448  0.00  0.00    +0.000 C 
ATOM     47  C   UNL     1     110.766 132.889 146.175  0.00  0.00    +0.000 C 
ATOM     48  C   UNL     1     111.598 131.775 145.849  0.00  0.00    +0.000 C 
ATOM     49  C   UNL     1     110.088 133.339 146.039  0.00  0.00    +0.000 C 
ENDBRANCH  39  48
ENDBRANCH   8  39
TORSDOF 9
ENDMDL
MODEL 5
REMARK VINA RESULT:      -9.6      1.357      2.325
REMARK  Name = 44258945
REMARK  9 active torsions:
REMARK  status: ('A' for Active; 'I' for Inactive)
REMARK    1  A    between atoms: O_1  and  C_19
REMARK    2  A    between atoms: O_1  and  C_23
REMARK    3  A    between atoms: O_4  and  C_25
REMARK    4  A    between atoms: O_4  and  C_34
REMARK    5  A    between atoms: O_11  and  C_33
REMARK    6  A    between atoms: O_11  and  C_39
REMARK    7  A    between atoms: C_20  and  C_27
REMARK    8  A    between atoms: C_24  and  C_28
REMARK    9  A    between atoms: C_36  and  C_43
REMARK                            x       y       z     vdW  Elec       q    Type
REMARK                         _______ _______ _______ _____ _____    ______ ____
ROOT
ATOM      1  O   UNL     1     112.294 128.586 137.835  0.00  0.00    +0.000 OA
ATOM      2  O   UNL     1     109.883 128.229 138.261  0.00  0.00    +0.000 OA
ATOM      3  O   UNL     1     110.133 126.881 138.712  0.00  0.00    +0.000 OA
ATOM      4  C   UNL     1     110.951 129.073 137.827  0.00  0.00    +0.000 A 
ATOM      5  C   UNL     1     111.755 129.192 137.685  0.00  0.00    +0.000 A 
ATOM      6  C   UNL     1     110.687 128.348 138.119  0.00  0.00    +0.000 A 
ATOM      7  C   UNL     1     111.227 127.742 138.269  0.00  0.00    +0.000 A 
ATOM      8  C   UNL     1     112.334 126.481 138.583  0.00  0.00    +0.000 A 
ATOM      9  C   UNL     1     112.031 127.862 138.127  0.00  0.00    +0.000 A 
ATOM     10  C   UNL     1     112.602 127.238 138.279  0.00  0.00    +0.000 A 
ATOM     11  C   UNL     1     110.939 126.991 138.573  0.00  0.00    +0.000 A 
ATOM     12  C   UNL     1     111.496 126.357 138.731  0.00  0.00    +0.000 A 
ENDROOT
BRANCH   5  14
ATOM     13  O   UNL     1     112.811 132.093 136.517  0.00  0.00    +0.000 OA
ATOM     14  C   UNL     1     112.019 129.917 137.393  0.00  0.00    +0.000 A 
ATOM     15  C   UNL     1     111.914 130.104 136.596  0.00  0.00    +0.000 A 
ATOM     16  C   UNL     1     112.388 130.456 137.898  0.00  0.00    +0.000 A 
ATOM     17  C   UNL     1     112.178 130.829 136.305  0.00  0.00    +0.000 A 
ATOM     18  C   UNL     1     112.652 131.181 137.606  0.00  0.00    +0.000 A 
ATOM     19  C   UNL     1     112.547 131.367 136.809  0.00  0.00    +0.000 A 
ENDBRANCH   5  14
BRANCH   4  20
ATOM     20  O   UNL     1     110.412 129.678 137.677  0.00  0.00    +0.000 OA
BRANCH  20  26
ATOM     21  O   UNL     1     110.207 130.141 139.058  0.00  0.00    +0.000 OA
ATOM     22  O   UNL     1     108.154 130.714 139.183  0.00  0.00    +0.000 OA
ATOM     23  C   UNL     1     109.150 130.176 138.244  0.00  0.00    +0.000 C 
ATOM     24  C   UNL     1     108.912 130.456 138.982  0.00  0.00    +0.000 C 
ATOM     25  C   UNL     1     109.566 130.435 139.486  0.00  0.00    +0.000 C 
ATOM     26  C   UNL     1     109.950 129.981 138.291  0.00  0.00    +0.000 C 
BRANCH  25  28
ATOM     27  O   UNL     1     110.291 130.865 140.640  0.00  0.00    +0.000 OA
ATOM     28  C   UNL     1     109.577 130.666 140.277  0.00  0.00    +0.000 C 
ENDBRANCH  25  28
BRANCH  23  29
ATOM     29  O   UNL     1     108.670 130.103 137.577  0.00  0.00    +0.000 OA
BRANCH  29  35
ATOM     30  O   UNL     1     108.853 131.509 137.188  0.00  0.00    +0.000 OA
ATOM     31  O   UNL     1     107.846 131.209 135.329  0.00  0.00    +0.000 OA
ATOM     32  O   UNL     1     107.860 130.059 135.976  0.00  0.00    +0.000 OA
ATOM     33  C   UNL     1     108.250 131.476 135.997  0.00  0.00    +0.000 C 
ATOM     34  C   UNL     1     108.211 130.720 136.324  0.00  0.00    +0.000 C 
ATOM     35  C   UNL     1     108.583 130.740 137.060  0.00  0.00    +0.000 C 
ATOM     36  C   UNL     1     108.647 131.964 136.531  0.00  0.00    +0.000 C 
BRANCH  33  38
ATOM     37  O   UNL     1     107.568 132.103 134.909  0.00  0.00    +0.000 OA
ATOM     38  C   UNL     1     108.163 132.114 135.480  0.00  0.00    +0.000 C 
ENDBRANCH  33  38
ENDBRANCH  29  35
ENDBRANCH  23  29
ENDBRANCH  20  26
ENDBRANCH   4  20
BRANCH   8  39
ATOM     39  O   UNL     1     112.876 125.877 138.732  0.00  0.00    +0.000 OA
BRANCH  39  48
ATOM     40  O   UNL     1     112.612 125.027 137.614  0.00  0.00    +0.000 OA
ATOM     41  O   UNL     1     115.045 124.753 137.248  0.00  0.00    +0.000 OA
ATOM     42  O   UNL     1     113.970 123.994 136.252  0.00  0.00    +0.000 OA
ATOM     43  O   UNL     1     114.498 125.695 138.487  0.00  0.00    +0.000 OA
ATOM     44  C   UNL     1     114.234 124.845 137.370  0.00  0.00    +0.000 C 
ATOM     45  C   UNL     1     113.696 124.465 136.872  0.00  0.00    +0.000 C 
ATOM     46  C   UNL     1     113.960 125.315 137.989  0.00  0.00    +0.000 C 
ATOM     47  C   UNL     1     112.885 124.556 136.995  0.00  0.00    +0.000 C 
ATOM     48  C   UNL     1     113.149 125.406 138.112  0.00  0.00    +0.000 C 
ATOM     49  C   UNL     1     112.348 124.177 136.496  0.00  0.00    +0.000 C 
ENDBRANCH  39  48
ENDBRANCH   8  39
TORSDOF 9
ENDMDL
MODEL 6
REMARK VINA RESULT:      -9.6      2.361      5.707
REMARK  Name = 44258945
REMARK  9 active torsions:
REMARK  status: ('A' for Active; 'I' for Inactive)
REMARK    1  A    between atoms: O_1  and  C_19
REMARK    2  A    between atoms: O_1  and  C_23
REMARK    3  A    between atoms: O_4  and  C_25
REMARK    4  A    between atoms: O_4  and  C_34
REMARK    5  A    between atoms: O_11  and  C_33
REMARK    6  A    between atoms: O_11  and  C_39
REMARK    7  A    between atoms: C_20  and  C_27
REMARK    8  A    between atoms: C_24  and  C_28
REMARK    9  A    between atoms: C_36  and  C_43
REMARK                            x       y       z     vdW  Elec       q    Type
REMARK                         _______ _______ _______ _____ _____    ______ ____
ROOT
ATOM      1  O   UNL     1     111.160 130.160 139.069  0.00  0.00    +0.000 OA
ATOM      2  O   UNL     1     108.809 129.538 138.611  0.00  0.00    +0.000 OA
ATOM      3  O   UNL     1     108.375 130.158 139.839  0.00  0.00    +0.000 OA
ATOM      4  C   UNL     1     110.186 129.538 138.229  0.00  0.00    +0.000 A 
ATOM      5  C   UNL     1     110.970 129.746 138.382  0.00  0.00    +0.000 A 
ATOM      6  C   UNL     1     109.593 129.745 138.764  0.00  0.00    +0.000 A 
ATOM      7  C   UNL     1     109.784 130.160 139.451  0.00  0.00    +0.000 A 
ATOM      8  C   UNL     1     110.165 131.017 140.877  0.00  0.00    +0.000 A 
ATOM      9  C   UNL     1     110.567 130.367 139.604  0.00  0.00    +0.000 A 
ATOM     10  C   UNL     1     110.778 130.799 140.316  0.00  0.00    +0.000 A 
ATOM     11  C   UNL     1     109.156 130.369 140.001  0.00  0.00    +0.000 A 
ATOM     12  C   UNL     1     109.348 130.801 140.718  0.00  0.00    +0.000 A 
ENDROOT
BRANCH   5  14
ATOM     13  O   UNL     1     113.342 128.917 136.242  0.00  0.00    +0.000 OA
ATOM     14  C   UNL     1     111.563 129.539 137.847  0.00  0.00    +0.000 A 
ATOM     15  C   UNL     1     111.846 130.096 137.308  0.00  0.00    +0.000 A 
ATOM     16  C   UNL     1     111.873 128.774 137.851  0.00  0.00    +0.000 A 
ATOM     17  C   UNL     1     112.439 129.888 136.774  0.00  0.00    +0.000 A 
ATOM     18  C   UNL     1     112.466 128.567 137.316  0.00  0.00    +0.000 A 
ATOM     19  C   UNL     1     112.749 129.124 136.777  0.00  0.00    +0.000 A 
ENDBRANCH   5  14
BRANCH   4  20
ATOM     20  O   UNL     1     109.995 129.124 137.542  0.00  0.00    +0.000 OA
BRANCH  20  26
ATOM     21  O   UNL     1     109.360 130.252 136.845  0.00  0.00    +0.000 OA
ATOM     22  O   UNL     1     107.954 129.387 135.492  0.00  0.00    +0.000 OA
ATOM     23  C   UNL     1     108.954 129.027 136.509  0.00  0.00    +0.000 C 
ATOM     24  C   UNL     1     108.529 129.569 136.055  0.00  0.00    +0.000 C 
ATOM     25  C   UNL     1     108.780 130.327 136.263  0.00  0.00    +0.000 C 
ATOM     26  C   UNL     1     109.467 129.449 136.997  0.00  0.00    +0.000 C 
BRANCH  25  28
ATOM     27  O   UNL     1     108.939 131.729 136.036  0.00  0.00    +0.000 OA
ATOM     28  C   UNL     1     108.501 131.035 135.945  0.00  0.00    +0.000 C 
ENDBRANCH  25  28
BRANCH  23  29
ATOM     29  O   UNL     1     108.877 128.206 136.479  0.00  0.00    +0.000 OA
BRANCH  29  35
ATOM     30  O   UNL     1     109.650 128.090 135.234  0.00  0.00    +0.000 OA
ATOM     31  O   UNL     1     109.734 125.962 135.390  0.00  0.00    +0.000 OA
ATOM     32  O   UNL     1     109.059 126.421 136.427  0.00  0.00    +0.000 OA
ATOM     33  C   UNL     1     109.785 126.762 135.196  0.00  0.00    +0.000 C 
ATOM     34  C   UNL     1     109.355 126.955 135.872  0.00  0.00    +0.000 C 
ATOM     35  C   UNL     1     109.271 127.775 135.896  0.00  0.00    +0.000 C 
ATOM     36  C   UNL     1     109.968 127.464 134.801  0.00  0.00    +0.000 C 
BRANCH  33  38
ATOM     37  O   UNL     1     110.540 125.614 134.801  0.00  0.00    +0.000 OA
ATOM     38  C   UNL     1     110.180 126.332 134.612  0.00  0.00    +0.000 C 
ENDBRANCH  33  38
ENDBRANCH  29  35
ENDBRANCH  23  29
ENDBRANCH  20  26
ENDBRANCH   4  20
BRANCH   8  39
ATOM     39  O   UNL     1     110.359 131.432 141.564  0.00  0.00    +0.000 OA
BRANCH  39  48
ATOM     40  O   UNL     1     110.515 130.268 142.379  0.00  0.00    +0.000 OA
ATOM     41  O   UNL     1     112.267 131.423 143.691  0.00  0.00    +0.000 OA
ATOM     42  O   UNL     1     111.839 129.874 144.069  0.00  0.00    +0.000 OA
ATOM     43  O   UNL     1     111.527 132.201 142.439  0.00  0.00    +0.000 OA
ATOM     44  C   UNL     1     111.683 131.038 143.254  0.00  0.00    +0.000 C 
ATOM     45  C   UNL     1     111.468 130.264 143.442  0.00  0.00    +0.000 C 
ATOM     46  C   UNL     1     111.313 131.427 142.628  0.00  0.00    +0.000 C 
ATOM     47  C   UNL     1     110.884 129.879 143.005  0.00  0.00    +0.000 C 
ATOM     48  C   UNL     1     110.728 131.042 142.190  0.00  0.00    +0.000 C 
ATOM     49  C   UNL     1     110.670 129.105 143.194  0.00  0.00    +0.000 C 
ENDBRANCH  39  48
ENDBRANCH   8  39
TORSDOF 9
ENDMDL
MODEL 7
REMARK VINA RESULT:      -9.5      1.969      6.251
REMARK  Name = 44258945
REMARK  9 active torsions:
REMARK  status: ('A' for Active; 'I' for Inactive)
REMARK    1  A    between atoms: O_1  and  C_19
REMARK    2  A    between atoms: O_1  and  C_23
REMARK    3  A    between atoms: O_4  and  C_25
REMARK    4  A    between atoms: O_4  and  C_34
REMARK    5  A    between atoms: O_11  and  C_33
REMARK    6  A    between atoms: O_11  and  C_39
REMARK    7  A    between atoms: C_20  and  C_27
REMARK    8  A    between atoms: C_24  and  C_28
REMARK    9  A    between atoms: C_36  and  C_43
REMARK                            x       y       z     vdW  Elec       q    Type
REMARK                         _______ _______ _______ _____ _____    ______ ____
ROOT
ATOM      1  O   UNL     1     111.800 129.941 136.844  0.00  0.00    +0.000 OA
ATOM      2  O   UNL     1     111.108 128.424 138.674  0.00  0.00    +0.000 OA
ATOM      3  O   UNL     1     109.976 129.264 138.980  0.00  0.00    +0.000 OA
ATOM      4  C   UNL     1     112.011 128.758 137.617  0.00  0.00    +0.000 A 
ATOM      5  C   UNL     1     112.242 129.263 137.007  0.00  0.00    +0.000 A 
ATOM      6  C   UNL     1     111.339 128.930 138.063  0.00  0.00    +0.000 A 
ATOM      7  C   UNL     1     110.897 129.608 137.900  0.00  0.00    +0.000 A 
ATOM      8  C   UNL     1     109.975 131.006 137.571  0.00  0.00    +0.000 A 
ATOM      9  C   UNL     1     111.128 130.113 137.290  0.00  0.00    +0.000 A 
ATOM     10  C   UNL     1     110.676 130.821 137.110  0.00  0.00    +0.000 A 
ATOM     11  C   UNL     1     110.199 129.776 138.372  0.00  0.00    +0.000 A 
ATOM     12  C   UNL     1     109.735 130.479 138.206  0.00  0.00    +0.000 A 
ENDROOT
BRANCH   5  14
ATOM     13  O   UNL     1     114.932 128.575 135.224  0.00  0.00    +0.000 OA
ATOM     14  C   UNL     1     112.914 129.091 136.561  0.00  0.00    +0.000 A 
ATOM     15  C   UNL     1     112.881 128.519 135.968  0.00  0.00    +0.000 A 
ATOM     16  C   UNL     1     113.621 129.492 136.709  0.00  0.00    +0.000 A 
ATOM     17  C   UNL     1     113.553 128.347 135.523  0.00  0.00    +0.000 A 
ATOM     18  C   UNL     1     114.293 129.320 136.263  0.00  0.00    +0.000 A 
ATOM     19  C   UNL     1     114.259 128.747 135.670  0.00  0.00    +0.000 A 
ENDBRANCH   5  14
BRANCH   4  20
ATOM     20  O   UNL     1     112.453 128.081 137.781  0.00  0.00    +0.000 OA
BRANCH  20  26
ATOM     21  O   UNL     1     113.077 128.576 139.017  0.00  0.00    +0.000 OA
ATOM     22  O   UNL     1     113.454 126.849 140.213  0.00  0.00    +0.000 OA
ATOM     23  C   UNL     1     112.894 127.258 138.916  0.00  0.00    +0.000 C 
ATOM     24  C   UNL     1     113.249 127.411 139.645  0.00  0.00    +0.000 C 
ATOM     25  C   UNL     1     113.362 128.226 139.708  0.00  0.00    +0.000 C 
ATOM     26  C   UNL     1     112.788 127.978 138.528  0.00  0.00    +0.000 C 
BRANCH  25  28
ATOM     27  O   UNL     1     113.805 129.440 140.318  0.00  0.00    +0.000 OA
ATOM     28  C   UNL     1     113.699 128.622 140.347  0.00  0.00    +0.000 C 
ENDBRANCH  25  28
BRANCH  23  29
ATOM     29  O   UNL     1     112.683 126.514 138.627  0.00  0.00    +0.000 OA
BRANCH  29  35
ATOM     30  O   UNL     1     114.065 126.129 138.303  0.00  0.00    +0.000 OA
ATOM     31  O   UNL     1     113.408 124.525 137.056  0.00  0.00    +0.000 OA
ATOM     32  O   UNL     1     112.340 125.126 137.544  0.00  0.00    +0.000 OA
ATOM     33  C   UNL     1     113.808 125.096 137.497  0.00  0.00    +0.000 C 
ATOM     34  C   UNL     1     113.087 125.406 137.751  0.00  0.00    +0.000 C 
ATOM     35  C   UNL     1     113.245 126.044 138.249  0.00  0.00    +0.000 C 
ATOM     36  C   UNL     1     114.412 125.543 137.838  0.00  0.00    +0.000 C 
BRANCH  33  38
ATOM     37  O   UNL     1     114.373 124.565 136.296  0.00  0.00    +0.000 OA
ATOM     38  C   UNL     1     114.371 124.625 137.119  0.00  0.00    +0.000 C 
ENDBRANCH  33  38
ENDBRANCH  29  35
ENDBRANCH  23  29
ENDBRANCH  20  26
ENDBRANCH   4  20
BRANCH   8  39
ATOM     39  O   UNL     1     109.536 131.684 137.405  0.00  0.00    +0.000 OA
BRANCH  39  48
ATOM     40  O   UNL     1     109.256 131.563 136.009  0.00  0.00    +0.000 OA
ATOM     41  O   UNL     1     106.849 131.917 136.459  0.00  0.00    +0.000 OA
ATOM     42  O   UNL     1     107.372 131.678 134.913  0.00  0.00    +0.000 OA
ATOM     43  O   UNL     1     107.931 131.920 137.705  0.00  0.00    +0.000 OA
ATOM     44  C   UNL     1     107.651 131.799 136.309  0.00  0.00    +0.000 C 
ATOM     45  C   UNL     1     107.914 131.679 135.536  0.00  0.00    +0.000 C 
ATOM     46  C   UNL     1     108.193 131.801 136.931  0.00  0.00    +0.000 C 
ATOM     47  C   UNL     1     108.716 131.561 135.386  0.00  0.00    +0.000 C 
ATOM     48  C   UNL     1     108.995 131.683 136.781  0.00  0.00    +0.000 C 
ATOM     49  C   UNL     1     108.977 131.442 134.612  0.00  0.00    +0.000 C 
ENDBRANCH  39  48
ENDBRANCH   8  39
TORSDOF 9
ENDMDL
MODEL 8
REMARK VINA RESULT:      -9.5      2.740      4.295
REMARK  Name = 44258945
REMARK  9 active torsions:
REMARK  status: ('A' for Active; 'I' for Inactive)
REMARK    1  A    between atoms: O_1  and  C_19
REMARK    2  A    between atoms: O_1  and  C_23
REMARK    3  A    between atoms: O_4  and  C_25
REMARK    4  A    between atoms: O_4  and  C_34
REMARK    5  A    between atoms: O_11  and  C_33
REMARK    6  A    between atoms: O_11  and  C_39
REMARK    7  A    between atoms: C_20  and  C_27
REMARK    8  A    between atoms: C_24  and  C_28
REMARK    9  A    between atoms: C_36  and  C_43
REMARK                            x       y       z     vdW  Elec       q    Type
REMARK                         _______ _______ _______ _____ _____    ______ ____
ROOT
ATOM      1  O   UNL     1     113.186 128.315 139.493  0.00  0.00    +0.000 OA
ATOM      2  O   UNL     1     111.003 128.471 140.648  0.00  0.00    +0.000 OA
ATOM      3  O   UNL     1     110.551 127.254 140.018  0.00  0.00    +0.000 OA
ATOM      4  C   UNL     1     112.306 128.996 140.389  0.00  0.00    +0.000 A 
ATOM      5  C   UNL     1     113.034 128.945 140.004  0.00  0.00    +0.000 A 
ATOM      6  C   UNL     1     111.731 128.418 140.262  0.00  0.00    +0.000 A 
ATOM      7  C   UNL     1     111.884 127.789 139.751  0.00  0.00    +0.000 A 
ATOM      8  C   UNL     1     112.187 126.482 138.696  0.00  0.00    +0.000 A 
ATOM      9  C   UNL     1     112.612 127.738 139.366  0.00  0.00    +0.000 A 
ATOM     10  C   UNL     1     112.782 127.087 138.832  0.00  0.00    +0.000 A 
ATOM     11  C   UNL     1     111.276 127.194 139.628  0.00  0.00    +0.000 A 
ATOM     12  C   UNL     1     111.429 126.536 139.097  0.00  0.00    +0.000 A 
ENDROOT
BRANCH   5  14
ATOM     13  O   UNL     1     115.335 131.256 140.509  0.00  0.00    +0.000 OA
ATOM     14  C   UNL     1     113.610 129.522 140.131  0.00  0.00    +0.000 A 
ATOM     15  C   UNL     1     114.051 129.520 140.828  0.00  0.00    +0.000 A 
ATOM     16  C   UNL     1     113.743 130.103 139.559  0.00  0.00    +0.000 A 
ATOM     17  C   UNL     1     114.626 130.097 140.953  0.00  0.00    +0.000 A 
ATOM     18  C   UNL     1     114.318 130.681 139.686  0.00  0.00    +0.000 A 
ATOM     19  C   UNL     1     114.760 130.678 140.383  0.00  0.00    +0.000 A 
ENDBRANCH   5  14
BRANCH   4  20
ATOM     20  O   UNL     1     112.154 129.625 140.900  0.00  0.00    +0.000 OA
BRANCH  20  26
ATOM     21  O   UNL     1     111.267 130.378 140.000  0.00  0.00    +0.000 OA
ATOM     22  O   UNL     1     109.910 131.433 141.265  0.00  0.00    +0.000 OA
ATOM     23  C   UNL     1     111.050 130.506 141.311  0.00  0.00    +0.000 C 
ATOM     24  C   UNL     1     110.496 130.970 140.914  0.00  0.00    +0.000 C 
ATOM     25  C   UNL     1     110.630 130.891 140.103  0.00  0.00    +0.000 C 
ATOM     26  C   UNL     1     111.527 130.139 140.746  0.00  0.00    +0.000 C 
BRANCH  25  28
ATOM     27  O   UNL     1     110.589 131.528 138.825  0.00  0.00    +0.000 OA
ATOM     28  C   UNL     1     110.202 131.260 139.503  0.00  0.00    +0.000 C 
ENDBRANCH  25  28
BRANCH  23  29
ATOM     29  O   UNL     1     111.116 130.423 142.129  0.00  0.00    +0.000 OA
BRANCH  29  35
ATOM     30  O   UNL     1     111.807 131.711 142.284  0.00  0.00    +0.000 OA
ATOM     31  O   UNL     1     112.074 131.405 144.380  0.00  0.00    +0.000 OA
ATOM     32  O   UNL     1     111.438 130.357 143.893  0.00  0.00    +0.000 OA
ATOM     33  C   UNL     1     112.047 131.661 143.596  0.00  0.00    +0.000 C 
ATOM     34  C   UNL     1     111.650 130.971 143.384  0.00  0.00    +0.000 C 
ATOM     35  C   UNL     1     111.502 131.000 142.573  0.00  0.00    +0.000 C 
ATOM     36  C   UNL     1     112.144 132.119 142.917  0.00  0.00    +0.000 C 
BRANCH  33  38
ATOM     37  O   UNL     1     112.216 132.371 144.825  0.00  0.00    +0.000 OA
ATOM     38  C   UNL     1     112.433 132.240 144.040  0.00  0.00    +0.000 C 
ENDBRANCH  33  38
ENDBRANCH  29  35
ENDBRANCH  23  29
ENDBRANCH  20  26
ENDBRANCH   4  20
BRANCH   8  39
ATOM     39  O   UNL     1     112.343 125.854 138.184  0.00  0.00    +0.000 OA
BRANCH  39  48
ATOM     40  O   UNL     1     111.999 126.556 136.988  0.00  0.00    +0.000 OA
ATOM     41  O   UNL     1     111.136 124.456 136.003  0.00  0.00    +0.000 OA
ATOM     42  O   UNL     1     111.079 125.858 135.136  0.00  0.00    +0.000 OA
ATOM     43  O   UNL     1     111.768 124.454 137.528  0.00  0.00    +0.000 OA
ATOM     44  C   UNL     1     111.423 125.156 136.332  0.00  0.00    +0.000 C 
ATOM     45  C   UNL     1     111.395 125.857 135.898  0.00  0.00    +0.000 C 
ATOM     46  C   UNL     1     111.739 125.155 137.094  0.00  0.00    +0.000 C 
ATOM     47  C   UNL     1     111.683 126.557 136.227  0.00  0.00    +0.000 C 
ATOM     48  C   UNL     1     112.027 125.855 137.422  0.00  0.00    +0.000 C 
ATOM     49  C   UNL     1     111.654 127.258 135.792  0.00  0.00    +0.000 C 
ENDBRANCH  39  48
ENDBRANCH   8  39
TORSDOF 9
ENDMDL
MODEL 9
REMARK VINA RESULT:      -9.5      2.569      4.225
REMARK  Name = 44258945
REMARK  9 active torsions:
REMARK  status: ('A' for Active; 'I' for Inactive)
REMARK    1  A    between atoms: O_1  and  C_19
REMARK    2  A    between atoms: O_1  and  C_23
REMARK    3  A    between atoms: O_4  and  C_25
REMARK    4  A    between atoms: O_4  and  C_34
REMARK    5  A    between atoms: O_11  and  C_33
REMARK    6  A    between atoms: O_11  and  C_39
REMARK    7  A    between atoms: C_20  and  C_27
REMARK    8  A    between atoms: C_24  and  C_28
REMARK    9  A    between atoms: C_36  and  C_43
REMARK                            x       y       z     vdW  Elec       q    Type
REMARK                         _______ _______ _______ _____ _____    ______ ____
ROOT
ATOM      1  O   UNL     1     112.460 128.829 138.394  0.00  0.00    +0.000 OA
ATOM      2  O   UNL     1     110.242 129.124 139.452  0.00  0.00    +0.000 OA
ATOM      3  O   UNL     1     109.582 128.590 138.285  0.00  0.00    +0.000 OA
ATOM      4  C   UNL     1     111.665 129.243 139.506  0.00  0.00    +0.000 A 
ATOM      5  C   UNL     1     112.405 129.145 139.154  0.00  0.00    +0.000 A 
ATOM      6  C   UNL     1     110.982 129.026 139.099  0.00  0.00    +0.000 A 
ATOM      7  C   UNL     1     111.038 128.710 138.338  0.00  0.00    +0.000 A 
ATOM      8  C   UNL     1     111.139 128.057 136.764  0.00  0.00    +0.000 A 
ATOM      9  C   UNL     1     111.777 128.612 137.986  0.00  0.00    +0.000 A 
ATOM     10  C   UNL     1     111.847 128.285 137.195  0.00  0.00    +0.000 A 
ATOM     11  C   UNL     1     110.318 128.488 137.924  0.00  0.00    +0.000 A 
ATOM     12  C   UNL     1     110.369 128.160 137.132  0.00  0.00    +0.000 A 
ENDROOT
BRANCH   5  14
ATOM     13  O   UNL     1     115.138 130.014 140.785  0.00  0.00    +0.000 OA
ATOM     14  C   UNL     1     113.088 129.362 139.562  0.00  0.00    +0.000 A 
ATOM     15  C   UNL     1     113.530 128.790 139.960  0.00  0.00    +0.000 A 
ATOM     16  C   UNL     1     113.329 130.151 139.571  0.00  0.00    +0.000 A 
ATOM     17  C   UNL     1     114.213 129.008 140.368  0.00  0.00    +0.000 A 
ATOM     18  C   UNL     1     114.013 130.368 139.979  0.00  0.00    +0.000 A 
ATOM     19  C   UNL     1     114.455 129.797 140.377  0.00  0.00    +0.000 A 
ENDBRANCH   5  14
BRANCH   4  20
ATOM     20  O   UNL     1     111.609 129.558 140.267  0.00  0.00    +0.000 OA
BRANCH  20  26
ATOM     21  O   UNL     1     111.245 128.298 140.932  0.00  0.00    +0.000 OA
ATOM     22  O   UNL     1     110.150 128.855 142.678  0.00  0.00    +0.000 OA
ATOM     23  C   UNL     1     110.845 129.430 141.516  0.00  0.00    +0.000 C 
ATOM     24  C   UNL     1     110.583 128.798 141.978  0.00  0.00    +0.000 C 
ATOM     25  C   UNL     1     110.830 128.098 141.617  0.00  0.00    +0.000 C 
ATOM     26  C   UNL     1     111.254 129.121 140.869  0.00  0.00    +0.000 C 
BRANCH  25  28
ATOM     27  O   UNL     1     111.146 126.705 141.617  0.00  0.00    +0.000 OA
ATOM     28  C   UNL     1     110.688 127.334 141.892  0.00  0.00    +0.000 C 
ENDBRANCH  25  28
BRANCH  23  29
ATOM     29  O   UNL     1     110.719 130.230 141.674  0.00  0.00    +0.000 OA
BRANCH  29  35
ATOM     30  O   UNL     1     111.751 130.286 142.720  0.00  0.00    +0.000 OA
ATOM     31  O   UNL     1     111.721 132.421 142.744  0.00  0.00    +0.000 OA
ATOM     32  O   UNL     1     110.845 132.011 141.847  0.00  0.00    +0.000 OA
ATOM     33  C   UNL     1     111.844 131.612 142.848  0.00  0.00    +0.000 C 
ATOM     34  C   UNL     1     111.278 131.451 142.270  0.00  0.00    +0.000 C 
ATOM     35  C   UNL     1     111.219 130.632 142.190  0.00  0.00    +0.000 C 
ATOM     36  C   UNL     1     112.136 130.892 143.126  0.00  0.00    +0.000 C 
BRANCH  33  38
ATOM     37  O   UNL     1     112.264 132.829 143.469  0.00  0.00    +0.000 OA
ATOM     38  C   UNL     1     112.345 132.014 143.366  0.00  0.00    +0.000 C 
ENDBRANCH  33  38
ENDBRANCH  29  35
ENDBRANCH  23  29
ENDBRANCH  20  26
ENDBRANCH   4  20
BRANCH   8  39
ATOM     39  O   UNL     1     111.198 127.742 136.004  0.00  0.00    +0.000 OA
BRANCH  39  48
ATOM     40  O   UNL     1     111.585 126.413 136.357  0.00  0.00    +0.000 OA
ATOM     41  O   UNL     1     110.079 125.511 134.612  0.00  0.00    +0.000 OA
ATOM     42  O   UNL     1     110.968 124.482 135.547  0.00  0.00    +0.000 OA
ATOM     43  O   UNL     1     110.195 127.141 134.841  0.00  0.00    +0.000 OA
ATOM     44  C   UNL     1     110.581 125.812 135.194  0.00  0.00    +0.000 C 
ATOM     45  C   UNL     1     111.026 125.298 135.661  0.00  0.00    +0.000 C 
ATOM     46  C   UNL     1     110.639 126.627 135.308  0.00  0.00    +0.000 C 
ATOM     47  C   UNL     1     111.527 125.598 136.243  0.00  0.00    +0.000 C 
ATOM     48  C   UNL     1     111.141 126.927 135.890  0.00  0.00    +0.000 C 
ATOM     49  C   UNL     1     111.972 125.083 136.710  0.00  0.00    +0.000 C 
ENDBRANCH  39  48
ENDBRANCH   8  39
TORSDOF 9
ENDMDL
MODEL 10
REMARK VINA RESULT:      -9.5      3.774      7.273
REMARK  Name = 44258945
REMARK  9 active torsions:
REMARK  status: ('A' for Active; 'I' for Inactive)
REMARK    1  A    between atoms: O_1  and  C_19
REMARK    2  A    between atoms: O_1  and  C_23
REMARK    3  A    between atoms: O_4  and  C_25
REMARK    4  A    between atoms: O_4  and  C_34
REMARK    5  A    between atoms: O_11  and  C_33
REMARK    6  A    between atoms: O_11  and  C_39
REMARK    7  A    between atoms: C_20  and  C_27
REMARK    8  A    between atoms: C_24  and  C_28
REMARK    9  A    between atoms: C_36  and  C_43
REMARK                            x       y       z     vdW  Elec       q    Type
REMARK                         _______ _______ _______ _____ _____    ______ ____
ROOT
ATOM      1  O   UNL     1     111.599 129.493 142.887  0.00  0.00    +0.000 OA
ATOM      2  O   UNL     1     111.358 131.221 141.132  0.00  0.00    +0.000 OA
ATOM      3  O   UNL     1     111.519 132.274 142.106  0.00  0.00    +0.000 OA
ATOM      4  C   UNL     1     111.398 129.846 141.518  0.00  0.00    +0.000 A 
ATOM      5  C   UNL     1     111.478 129.270 142.103  0.00  0.00    +0.000 A 
ATOM      6  C   UNL     1     111.439 130.645 141.718  0.00  0.00    +0.000 A 
ATOM      7  C   UNL     1     111.560 130.868 142.503  0.00  0.00    +0.000 A 
ATOM      8  C   UNL     1     111.810 131.343 144.124  0.00  0.00    +0.000 A 
ATOM      9  C   UNL     1     111.640 130.292 143.088  0.00  0.00    +0.000 A 
ATOM     10  C   UNL     1     111.767 130.512 143.908  0.00  0.00    +0.000 A 
ATOM     11  C   UNL     1     111.601 131.705 142.698  0.00  0.00    +0.000 A 
ATOM     12  C   UNL     1     111.727 131.943 143.514  0.00  0.00    +0.000 A 
ENDROOT
BRANCH   5  14
ATOM     13  O   UNL     1     111.314 126.073 141.302  0.00  0.00    +0.000 OA
ATOM     14  C   UNL     1     111.437 128.470 141.902  0.00  0.00    +0.000 A 
ATOM     15  C   UNL     1     112.130 128.033 141.806  0.00  0.00    +0.000 A 
ATOM     16  C   UNL     1     110.703 128.108 141.798  0.00  0.00    +0.000 A 
ATOM     17  C   UNL     1     112.089 127.234 141.606  0.00  0.00    +0.000 A 
ATOM     18  C   UNL     1     110.662 127.309 141.598  0.00  0.00    +0.000 A 
ATOM     19  C   UNL     1     111.355 126.872 141.502  0.00  0.00    +0.000 A 
ENDBRANCH   5  14
BRANCH   4  20
ATOM     20  O   UNL     1     111.277 129.623 140.733  0.00  0.00    +0.000 OA
BRANCH  20  26
ATOM     21  O   UNL     1     112.621 129.987 140.262  0.00  0.00    +0.000 OA
ATOM     22  O   UNL     1     112.420 130.388 138.175  0.00  0.00    +0.000 OA
ATOM     23  C   UNL     1     111.642 129.986 139.356  0.00  0.00    +0.000 C 
ATOM     24  C   UNL     1     112.340 130.204 138.975  0.00  0.00    +0.000 C 
ATOM     25  C   UNL     1     112.946 130.205 139.536  0.00  0.00    +0.000 C 
ATOM     26  C   UNL     1     111.815 129.852 140.151  0.00  0.00    +0.000 C 
BRANCH  25  28
ATOM     27  O   UNL     1     114.325 130.101 139.896  0.00  0.00    +0.000 OA
ATOM     28  C   UNL     1     113.737 130.391 139.395  0.00  0.00    +0.000 C 
ENDBRANCH  25  28
BRANCH  23  29
ATOM     29  O   UNL     1     110.900 129.914 139.002  0.00  0.00    +0.000 OA
BRANCH  29  35
ATOM     30  O   UNL     1     111.223 128.625 138.373  0.00  0.00    +0.000 OA
ATOM     31  O   UNL     1     109.189 128.298 137.813  0.00  0.00    +0.000 OA
ATOM     32  O   UNL     1     109.257 129.453 138.445  0.00  0.00    +0.000 OA
ATOM     33  C   UNL     1     110.001 128.283 137.959  0.00  0.00    +0.000 C 
ATOM     34  C   UNL     1     109.946 129.013 138.339  0.00  0.00    +0.000 C 
ATOM     35  C   UNL     1     110.701 129.225 138.596  0.00  0.00    +0.000 C 
ATOM     36  C   UNL     1     110.790 128.043 137.980  0.00  0.00    +0.000 C 
BRANCH  33  38
ATOM     37  O   UNL     1     109.138 127.158 137.777  0.00  0.00    +0.000 OA
ATOM     38  C   UNL     1     109.802 127.593 137.552  0.00  0.00    +0.000 C 
ENDBRANCH  33  38
ENDBRANCH  29  35
ENDBRANCH  23  29
ENDBRANCH  20  26
ENDBRANCH   4  20
BRANCH   8  39
ATOM     39  O   UNL     1     111.932 131.563 144.909  0.00  0.00    +0.000 OA
BRANCH  39  48
ATOM     40  O   UNL     1     110.555 131.671 145.276  0.00  0.00    +0.000 OA
ATOM     41  O   UNL     1     111.086 133.634 146.688  0.00  0.00    +0.000 OA
ATOM     42  O   UNL     1     109.532 133.088 146.584  0.00  0.00    +0.000 OA
ATOM     43  O   UNL     1     112.286 132.872 145.850  0.00  0.00    +0.000 OA
ATOM     44  C   UNL     1     110.909 132.980 146.217  0.00  0.00    +0.000 C 
ATOM     45  C   UNL     1     110.132 132.707 146.165  0.00  0.00    +0.000 C 
ATOM     46  C   UNL     1     111.508 132.598 145.798  0.00  0.00    +0.000 C 
ATOM     47  C   UNL     1     109.955 132.052 145.695  0.00  0.00    +0.000 C 
ATOM     48  C   UNL     1     111.331 131.944 145.328  0.00  0.00    +0.000 C 
ATOM     49  C   UNL     1     109.178 131.780 145.643  0.00  0.00    +0.000 C 
ENDBRANCH  39  48
ENDBRANCH   8  39
TORSDOF 9
ENDMDL
