MODEL 1
REMARK VINA RESULT:      -9.0      0.000      0.000
REMARK  Name = 44259124
REMARK  8 active torsions:
REMARK  status: ('A' for Active; 'I' for Inactive)
REMARK    1  A    between atoms: O_2  and  C_15
REMARK    2  A    between atoms: O_2  and  C_22
REMARK    3  A    between atoms: O_3  and  C_19
REMARK    4  A    between atoms: O_3  and  C_21
REMARK    5  A    between atoms: O_6  and  C_20
REMARK    6  A    between atoms: O_6  and  C_27
REMARK    7  A    between atoms: C_18  and  C_20
REMARK    8  A    between atoms: C_23  and  C_29
REMARK                            x       y       z     vdW  Elec       q    Type
REMARK                         _______ _______ _______ _____ _____    ______ ____
ROOT
ATOM      1  O   UNL     1     111.016 125.241 136.549  0.00  0.00    +0.000 OA
ATOM      2  O   UNL     1     113.207 126.277 136.044  0.00  0.00    +0.000 OA
ATOM      3  O   UNL     1     113.895 125.056 136.389  0.00  0.00    +0.000 OA
ATOM      4  O   UNL     1     112.337 122.746 137.263  0.00  0.00    +0.000 OA
ATOM      5  C   UNL     1     111.783 126.369 136.122  0.00  0.00    +0.000 A 
ATOM      6  C   UNL     1     111.052 126.024 136.291  0.00  0.00    +0.000 A 
ATOM      7  C   UNL     1     112.476 125.931 136.212  0.00  0.00    +0.000 A 
ATOM      8  C   UNL     1     112.440 125.149 136.471  0.00  0.00    +0.000 A 
ATOM      9  C   UNL     1     111.710 124.804 136.639  0.00  0.00    +0.000 A 
ATOM     10  C   UNL     1     113.169 124.703 136.560  0.00  0.00    +0.000 A 
ATOM     11  C   UNL     1     111.658 123.990 136.909  0.00  0.00    +0.000 A 
ATOM     12  C   UNL     1     113.138 123.888 136.829  0.00  0.00    +0.000 A 
ATOM     13  C   UNL     1     112.376 123.528 137.005  0.00  0.00    +0.000 A 
ENDROOT
BRANCH   6  16
ATOM     14  O   UNL     1     108.891 127.498 137.440  0.00  0.00    +0.000 OA
ATOM     15  O   UNL     1     108.280 127.778 135.933  0.00  0.00    +0.000 OA
ATOM     16  C   UNL     1     110.359 126.462 136.201  0.00  0.00    +0.000 A 
ATOM     17  C   UNL     1     109.972 126.761 136.866  0.00  0.00    +0.000 A 
ATOM     18  C   UNL     1     110.054 126.602 135.447  0.00  0.00    +0.000 A 
ATOM     19  C   UNL     1     109.279 127.199 136.776  0.00  0.00    +0.000 A 
ATOM     20  C   UNL     1     109.361 127.040 135.359  0.00  0.00    +0.000 A 
ATOM     21  C   UNL     1     108.973 127.339 136.022  0.00  0.00    +0.000 A 
ENDBRANCH   6  16
BRANCH   5  22
ATOM     22  O   UNL     1     111.820 127.152 135.864  0.00  0.00    +0.000 OA
BRANCH  22  30
ATOM     23  O   UNL     1     112.340 127.622 137.109  0.00  0.00    +0.000 OA
ATOM     24  O   UNL     1     113.546 129.378 137.583  0.00  0.00    +0.000 OA
ATOM     25  O   UNL     1     112.507 128.438 135.092  0.00  0.00    +0.000 OA
ATOM     26  C   UNL     1     113.027 128.908 136.338  0.00  0.00    +0.000 C 
ATOM     27  C   UNL     1     113.114 128.821 137.153  0.00  0.00    +0.000 C 
ATOM     28  C   UNL     1     112.595 128.351 135.908  0.00  0.00    +0.000 C 
ATOM     29  C   UNL     1     112.771 128.178 137.539  0.00  0.00    +0.000 C 
ATOM     30  C   UNL     1     112.251 127.708 136.294  0.00  0.00    +0.000 C 
BRANCH  26  31
ATOM     31  O   UNL     1     113.370 129.551 135.952  0.00  0.00    +0.000 OA
BRANCH  31  33
ATOM     32  O   UNL     1     114.500 128.891 135.378  0.00  0.00    +0.000 OA
ATOM     33  C   UNL     1     114.174 129.540 135.768  0.00  0.00    +0.000 C 
ATOM     34  C   UNL     1     114.653 130.180 135.975  0.00  0.00    +0.000 C 
ENDBRANCH  31  33
ENDBRANCH  26  31
BRANCH  29  35
ATOM     35  C   UNL     1     112.859 128.092 138.355  0.00  0.00    +0.000 C 
BRANCH  35  36
ATOM     36  O   UNL     1     112.222 127.842 138.815  0.00  0.00    +0.000 OA
BRANCH  36  38
ATOM     37  O   UNL     1     112.284 128.256 140.181  0.00  0.00    +0.000 OA
ATOM     38  C   UNL     1     112.334 127.661 139.612  0.00  0.00    +0.000 C 
ATOM     39  C   UNL     1     112.496 126.886 139.841  0.00  0.00    +0.000 C 
ENDBRANCH  36  38
ENDBRANCH  35  36
ENDBRANCH  29  35
ENDBRANCH  22  30
ENDBRANCH   5  22
TORSDOF 8
ENDMDL
MODEL 2
REMARK VINA RESULT:      -9.0      1.485      4.898
REMARK  Name = 44259124
REMARK  8 active torsions:
REMARK  status: ('A' for Active; 'I' for Inactive)
REMARK    1  A    between atoms: O_2  and  C_15
REMARK    2  A    between atoms: O_2  and  C_22
REMARK    3  A    between atoms: O_3  and  C_19
REMARK    4  A    between atoms: O_3  and  C_21
REMARK    5  A    between atoms: O_6  and  C_20
REMARK    6  A    between atoms: O_6  and  C_27
REMARK    7  A    between atoms: C_18  and  C_20
REMARK    8  A    between atoms: C_23  and  C_29
REMARK                            x       y       z     vdW  Elec       q    Type
REMARK                         _______ _______ _______ _____ _____    ______ ____
ROOT
ATOM      1  O   UNL     1     113.886 127.408 136.246  0.00  0.00    +0.000 OA
ATOM      2  O   UNL     1     112.130 128.525 137.586  0.00  0.00    +0.000 OA
ATOM      3  O   UNL     1     112.291 129.746 136.833  0.00  0.00    +0.000 OA
ATOM      4  O   UNL     1     114.267 129.837 134.684  0.00  0.00    +0.000 OA
ATOM      5  C   UNL     1     112.918 127.369 137.297  0.00  0.00    +0.000 A 
ATOM      6  C   UNL     1     113.504 126.997 136.850  0.00  0.00    +0.000 A 
ATOM      7  C   UNL     1     112.716 128.153 137.139  0.00  0.00    +0.000 A 
ATOM      8  C   UNL     1     113.098 128.565 136.535  0.00  0.00    +0.000 A 
ATOM      9  C   UNL     1     113.683 128.193 136.089  0.00  0.00    +0.000 A 
ATOM     10  C   UNL     1     112.878 129.381 136.381  0.00  0.00    +0.000 A 
ATOM     11  C   UNL     1     114.089 128.610 135.458  0.00  0.00    +0.000 A 
ATOM     12  C   UNL     1     113.273 129.816 135.754  0.00  0.00    +0.000 A 
ATOM     13  C   UNL     1     113.883 129.428 135.289  0.00  0.00    +0.000 A 
ENDROOT
BRANCH   6  16
ATOM     14  O   UNL     1     113.424 124.230 136.137  0.00  0.00    +0.000 OA
ATOM     15  O   UNL     1     114.311 123.859 137.478  0.00  0.00    +0.000 OA
ATOM     16  C   UNL     1     113.706 126.213 137.007  0.00  0.00    +0.000 A 
ATOM     17  C   UNL     1     113.464 125.613 136.493  0.00  0.00    +0.000 A 
ATOM     18  C   UNL     1     114.150 126.027 137.677  0.00  0.00    +0.000 A 
ATOM     19  C   UNL     1     113.666 124.829 136.651  0.00  0.00    +0.000 A 
ATOM     20  C   UNL     1     114.351 125.242 137.834  0.00  0.00    +0.000 A 
ATOM     21  C   UNL     1     114.110 124.644 137.321  0.00  0.00    +0.000 A 
ENDBRANCH   6  16
BRANCH   5  22
ATOM     22  O   UNL     1     112.535 126.957 137.900  0.00  0.00    +0.000 OA
BRANCH  22  30
ATOM     23  O   UNL     1     111.324 126.793 137.160  0.00  0.00    +0.000 OA
ATOM     24  O   UNL     1     109.256 126.595 137.829  0.00  0.00    +0.000 OA
ATOM     25  O   UNL     1     111.678 126.923 139.310  0.00  0.00    +0.000 OA
ATOM     26  C   UNL     1     110.467 126.759 138.569  0.00  0.00    +0.000 C 
ATOM     27  C   UNL     1     110.076 126.685 137.847  0.00  0.00    +0.000 C 
ATOM     28  C   UNL     1     111.287 126.850 138.587  0.00  0.00    +0.000 C 
ATOM     29  C   UNL     1     110.505 126.702 137.142  0.00  0.00    +0.000 C 
ATOM     30  C   UNL     1     111.716 126.867 137.882  0.00  0.00    +0.000 C 
BRANCH  26  31
ATOM     31  O   UNL     1     110.038 126.742 139.274  0.00  0.00    +0.000 OA
BRANCH  31  33
ATOM     32  O   UNL     1     110.409 125.433 139.711  0.00  0.00    +0.000 OA
ATOM     33  C   UNL     1     109.837 126.020 139.616  0.00  0.00    +0.000 C 
ATOM     34  C   UNL     1     109.062 125.883 139.864  0.00  0.00    +0.000 C 
ENDBRANCH  31  33
ENDBRANCH  26  31
BRANCH  29  35
ATOM     35  C   UNL     1     110.113 126.629 136.420  0.00  0.00    +0.000 C 
BRANCH  35  36
ATOM     36  O   UNL     1     110.378 126.085 135.859  0.00  0.00    +0.000 OA
BRANCH  36  38
ATOM     37  O   UNL     1     109.650 125.456 134.803  0.00  0.00    +0.000 OA
ATOM     38  C   UNL     1     110.075 126.101 135.092  0.00  0.00    +0.000 C 
ATOM     39  C   UNL     1     110.197 126.762 134.614  0.00  0.00    +0.000 C 
ENDBRANCH  36  38
ENDBRANCH  35  36
ENDBRANCH  29  35
ENDBRANCH  22  30
ENDBRANCH   5  22
TORSDOF 8
ENDMDL
MODEL 3
REMARK VINA RESULT:      -8.8      1.621      3.673
REMARK  Name = 44259124
REMARK  8 active torsions:
REMARK  status: ('A' for Active; 'I' for Inactive)
REMARK    1  A    between atoms: O_2  and  C_15
REMARK    2  A    between atoms: O_2  and  C_22
REMARK    3  A    between atoms: O_3  and  C_19
REMARK    4  A    between atoms: O_3  and  C_21
REMARK    5  A    between atoms: O_6  and  C_20
REMARK    6  A    between atoms: O_6  and  C_27
REMARK    7  A    between atoms: C_18  and  C_20
REMARK    8  A    between atoms: C_23  and  C_29
REMARK                            x       y       z     vdW  Elec       q    Type
REMARK                         _______ _______ _______ _____ _____    ______ ____
ROOT
ATOM      1  O   UNL     1     112.523 126.483 136.313  0.00  0.00    +0.000 OA
ATOM      2  O   UNL     1     111.528 126.784 138.560  0.00  0.00    +0.000 OA
ATOM      3  O   UNL     1     111.211 125.379 138.639  0.00  0.00    +0.000 OA
ATOM      4  O   UNL     1     111.915 123.637 136.403  0.00  0.00    +0.000 OA
ATOM      5  C   UNL     1     112.176 127.332 137.410  0.00  0.00    +0.000 A 
ATOM      6  C   UNL     1     112.508 127.231 136.661  0.00  0.00    +0.000 A 
ATOM      7  C   UNL     1     111.860 126.684 137.810  0.00  0.00    +0.000 A 
ATOM      8  C   UNL     1     111.874 125.936 137.462  0.00  0.00    +0.000 A 
ATOM      9  C   UNL     1     112.206 125.836 136.714  0.00  0.00    +0.000 A 
ATOM     10  C   UNL     1     111.541 125.269 137.890  0.00  0.00    +0.000 A 
ATOM     11  C   UNL     1     112.227 125.063 136.341  0.00  0.00    +0.000 A 
ATOM     12  C   UNL     1     111.553 124.488 137.534  0.00  0.00    +0.000 A 
ATOM     13  C   UNL     1     111.899 124.383 136.753  0.00  0.00    +0.000 A 
ENDROOT
BRANCH   6  16
ATOM     14  O   UNL     1     112.306 129.214 134.612  0.00  0.00    +0.000 OA
ATOM     15  O   UNL     1     113.773 129.824 135.058  0.00  0.00    +0.000 OA
ATOM     16  C   UNL     1     112.825 127.879 136.260  0.00  0.00    +0.000 A 
ATOM     17  C   UNL     1     112.407 128.223 135.636  0.00  0.00    +0.000 A 
ATOM     18  C   UNL     1     113.559 128.184 136.483  0.00  0.00    +0.000 A 
ATOM     19  C   UNL     1     112.724 128.871 135.236  0.00  0.00    +0.000 A 
ATOM     20  C   UNL     1     113.874 128.832 136.082  0.00  0.00    +0.000 A 
ATOM     21  C   UNL     1     113.458 129.175 135.459  0.00  0.00    +0.000 A 
ENDBRANCH   6  16
BRANCH   5  22
ATOM     22  O   UNL     1     112.162 128.080 137.758  0.00  0.00    +0.000 OA
BRANCH  22  30
ATOM     23  O   UNL     1     110.765 128.275 137.526  0.00  0.00    +0.000 OA
ATOM     24  O   UNL     1     109.283 129.438 138.629  0.00  0.00    +0.000 OA
ATOM     25  O   UNL     1     112.076 129.047 139.092  0.00  0.00    +0.000 OA
ATOM     26  C   UNL     1     110.679 129.243 138.860  0.00  0.00    +0.000 C 
ATOM     27  C   UNL     1     110.003 129.098 138.411  0.00  0.00    +0.000 C 
ATOM     28  C   UNL     1     111.400 128.903 138.642  0.00  0.00    +0.000 C 
ATOM     29  C   UNL     1     110.046 128.614 137.744  0.00  0.00    +0.000 C 
ATOM     30  C   UNL     1     111.442 128.419 137.975  0.00  0.00    +0.000 C 
BRANCH  26  31
ATOM     31  O   UNL     1     110.637 129.726 139.527  0.00  0.00    +0.000 OA
BRANCH  31  33
ATOM     32  O   UNL     1     111.352 130.884 139.090  0.00  0.00    +0.000 OA
ATOM     33  C   UNL     1     110.689 130.545 139.446  0.00  0.00    +0.000 C 
ATOM     34  C   UNL     1     110.079 131.027 139.722  0.00  0.00    +0.000 C 
ENDBRANCH  31  33
ENDBRANCH  26  31
BRANCH  29  35
ATOM     35  C   UNL     1     109.369 128.470 137.295  0.00  0.00    +0.000 C 
BRANCH  35  36
ATOM     36  O   UNL     1     109.408 128.486 136.472  0.00  0.00    +0.000 OA
BRANCH  36  38
ATOM     37  O   UNL     1     108.154 128.739 135.836  0.00  0.00    +0.000 OA
ATOM     38  C   UNL     1     108.768 128.222 136.022  0.00  0.00    +0.000 C 
ATOM     39  C   UNL     1     108.743 127.441 135.760  0.00  0.00    +0.000 C 
ENDBRANCH  36  38
ENDBRANCH  35  36
ENDBRANCH  29  35
ENDBRANCH  22  30
ENDBRANCH   5  22
TORSDOF 8
ENDMDL
MODEL 4
REMARK VINA RESULT:      -8.8      1.210      3.908
REMARK  Name = 44259124
REMARK  8 active torsions:
REMARK  status: ('A' for Active; 'I' for Inactive)
REMARK    1  A    between atoms: O_2  and  C_15
REMARK    2  A    between atoms: O_2  and  C_22
REMARK    3  A    between atoms: O_3  and  C_19
REMARK    4  A    between atoms: O_3  and  C_21
REMARK    5  A    between atoms: O_6  and  C_20
REMARK    6  A    between atoms: O_6  and  C_27
REMARK    7  A    between atoms: C_18  and  C_20
REMARK    8  A    between atoms: C_23  and  C_29
REMARK                            x       y       z     vdW  Elec       q    Type
REMARK                         _______ _______ _______ _____ _____    ______ ____
ROOT
ATOM      1  O   UNL     1     111.853 125.572 136.163  0.00  0.00    +0.000 OA
ATOM      2  O   UNL     1     110.888 127.100 137.856  0.00  0.00    +0.000 OA
ATOM      3  O   UNL     1     109.654 127.190 137.114  0.00  0.00    +0.000 OA
ATOM      4  O   UNL     1     109.392 125.705 134.612  0.00  0.00    +0.000 OA
ATOM      5  C   UNL     1     111.976 126.300 137.387  0.00  0.00    +0.000 A 
ATOM      6  C   UNL     1     112.298 125.791 136.823  0.00  0.00    +0.000 A 
ATOM      7  C   UNL     1     111.210 126.590 137.292  0.00  0.00    +0.000 A 
ATOM      8  C   UNL     1     110.765 126.371 136.632  0.00  0.00    +0.000 A 
ATOM      9  C   UNL     1     111.086 125.863 136.069  0.00  0.00    +0.000 A 
ATOM     10  C   UNL     1     109.968 126.681 136.545  0.00  0.00    +0.000 A 
ATOM     11  C   UNL     1     110.634 125.627 135.378  0.00  0.00    +0.000 A 
ATOM     12  C   UNL     1     109.499 126.457 135.860  0.00  0.00    +0.000 A 
ATOM     13  C   UNL     1     109.834 125.926 135.272  0.00  0.00    +0.000 A 
ENDROOT
BRANCH   6  16
ATOM     14  O   UNL     1     115.055 125.791 136.071  0.00  0.00    +0.000 OA
ATOM     15  O   UNL     1     115.364 124.633 137.204  0.00  0.00    +0.000 OA
ATOM     16  C   UNL     1     113.064 125.501 136.919  0.00  0.00    +0.000 A 
ATOM     17  C   UNL     1     113.676 125.791 136.447  0.00  0.00    +0.000 A 
ATOM     18  C   UNL     1     113.219 124.922 137.485  0.00  0.00    +0.000 A 
ATOM     19  C   UNL     1     114.443 125.501 136.542  0.00  0.00    +0.000 A 
ATOM     20  C   UNL     1     113.986 124.633 137.580  0.00  0.00    +0.000 A 
ATOM     21  C   UNL     1     114.597 124.922 137.109  0.00  0.00    +0.000 A 
ENDBRANCH   6  16
BRANCH   5  22
ATOM     22  O   UNL     1     112.421 126.519 138.047  0.00  0.00    +0.000 OA
BRANCH  22  30
ATOM     23  O   UNL     1     112.687 127.838 137.566  0.00  0.00    +0.000 OA
ATOM     24  O   UNL     1     113.035 129.707 138.638  0.00  0.00    +0.000 OA
ATOM     25  O   UNL     1     112.503 127.069 139.600  0.00  0.00    +0.000 OA
ATOM     26  C   UNL     1     112.769 128.388 139.119  0.00  0.00    +0.000 C 
ATOM     27  C   UNL     1     112.882 128.910 138.490  0.00  0.00    +0.000 C 
ATOM     28  C   UNL     1     112.616 127.591 138.971  0.00  0.00    +0.000 C 
ATOM     29  C   UNL     1     112.841 128.635 137.713  0.00  0.00    +0.000 C 
ATOM     30  C   UNL     1     112.575 127.316 138.194  0.00  0.00    +0.000 C 
BRANCH  26  31
ATOM     31  O   UNL     1     112.810 128.663 139.896  0.00  0.00    +0.000 OA
BRANCH  31  33
ATOM     32  O   UNL     1     114.055 128.093 140.305  0.00  0.00    +0.000 OA
ATOM     33  C   UNL     1     113.542 128.738 140.268  0.00  0.00    +0.000 C 
ATOM     34  C   UNL     1     113.762 129.458 140.605  0.00  0.00    +0.000 C 
ENDBRANCH  31  33
ENDBRANCH  26  31
BRANCH  29  35
ATOM     35  C   UNL     1     112.953 129.158 137.085  0.00  0.00    +0.000 C 
BRANCH  35  36
ATOM     36  O   UNL     1     113.405 128.929 136.434  0.00  0.00    +0.000 OA
BRANCH  36  38
ATOM     37  O   UNL     1     113.886 130.084 135.744  0.00  0.00    +0.000 OA
ATOM     38  C   UNL     1     113.423 129.402 135.757  0.00  0.00    +0.000 C 
ATOM     39  C   UNL     1     112.979 129.192 135.095  0.00  0.00    +0.000 C 
ENDBRANCH  36  38
ENDBRANCH  35  36
ENDBRANCH  29  35
ENDBRANCH  22  30
ENDBRANCH   5  22
TORSDOF 8
ENDMDL
MODEL 5
REMARK VINA RESULT:      -8.8      1.623      4.334
REMARK  Name = 44259124
REMARK  8 active torsions:
REMARK  status: ('A' for Active; 'I' for Inactive)
REMARK    1  A    between atoms: O_2  and  C_15
REMARK    2  A    between atoms: O_2  and  C_22
REMARK    3  A    between atoms: O_3  and  C_19
REMARK    4  A    between atoms: O_3  and  C_21
REMARK    5  A    between atoms: O_6  and  C_20
REMARK    6  A    between atoms: O_6  and  C_27
REMARK    7  A    between atoms: C_18  and  C_20
REMARK    8  A    between atoms: C_23  and  C_29
REMARK                            x       y       z     vdW  Elec       q    Type
REMARK                         _______ _______ _______ _____ _____    ______ ____
ROOT
ATOM      1  O   UNL     1     111.902 129.601 135.359  0.00  0.00    +0.000 OA
ATOM      2  O   UNL     1     111.492 127.219 135.896  0.00  0.00    +0.000 OA
ATOM      3  O   UNL     1     110.101 127.347 135.534  0.00  0.00    +0.000 OA
ATOM      4  O   UNL     1     109.107 129.934 134.612  0.00  0.00    +0.000 OA
ATOM      5  C   UNL     1     112.384 128.333 135.810  0.00  0.00    +0.000 A 
ATOM      6  C   UNL     1     112.520 129.127 135.631  0.00  0.00    +0.000 A 
ATOM      7  C   UNL     1     111.629 128.014 135.717  0.00  0.00    +0.000 A 
ATOM      8  C   UNL     1     111.010 128.487 135.445  0.00  0.00    +0.000 A 
ATOM      9  C   UNL     1     111.147 129.280 135.267  0.00  0.00    +0.000 A 
ATOM     10  C   UNL     1     110.229 128.142 135.353  0.00  0.00    +0.000 A 
ATOM     11  C   UNL     1     110.512 129.785 134.983  0.00  0.00    +0.000 A 
ATOM     12  C   UNL     1     109.581 128.630 135.070  0.00  0.00    +0.000 A 
ATOM     13  C   UNL     1     109.723 129.458 134.884  0.00  0.00    +0.000 A 
ENDROOT
BRANCH   6  16
ATOM     14  O   UNL     1     114.344 130.787 137.076  0.00  0.00    +0.000 OA
ATOM     15  O   UNL     1     115.540 130.405 136.005  0.00  0.00    +0.000 OA
ATOM     16  C   UNL     1     113.275 129.446 135.724  0.00  0.00    +0.000 A 
ATOM     17  C   UNL     1     113.432 129.957 136.353  0.00  0.00    +0.000 A 
ATOM     18  C   UNL     1     113.873 129.255 135.188  0.00  0.00    +0.000 A 
ATOM     19  C   UNL     1     114.187 130.276 136.446  0.00  0.00    +0.000 A 
ATOM     20  C   UNL     1     114.628 129.575 135.282  0.00  0.00    +0.000 A 
ATOM     21  C   UNL     1     114.785 130.085 135.911  0.00  0.00    +0.000 A 
ENDBRANCH   6  16
BRANCH   5  22
ATOM     22  O   UNL     1     113.002 127.859 136.082  0.00  0.00    +0.000 OA
BRANCH  22  30
ATOM     23  O   UNL     1     112.563 127.825 137.441  0.00  0.00    +0.000 OA
ATOM     24  O   UNL     1     112.714 126.258 138.953  0.00  0.00    +0.000 OA
ATOM     25  O   UNL     1     113.591 126.325 136.234  0.00  0.00    +0.000 OA
ATOM     26  C   UNL     1     113.153 126.292 137.594  0.00  0.00    +0.000 C 
ATOM     27  C   UNL     1     112.786 126.659 138.235  0.00  0.00    +0.000 C 
ATOM     28  C   UNL     1     113.225 126.692 136.875  0.00  0.00    +0.000 C 
ATOM     29  C   UNL     1     112.492 127.426 138.159  0.00  0.00    +0.000 C 
ATOM     30  C   UNL     1     112.930 127.459 136.799  0.00  0.00    +0.000 C 
BRANCH  26  31
ATOM     31  O   UNL     1     113.447 125.525 137.670  0.00  0.00    +0.000 OA
BRANCH  31  33
ATOM     32  O   UNL     1     114.635 125.742 138.434  0.00  0.00    +0.000 OA
ATOM     33  C   UNL     1     114.254 125.403 137.785  0.00  0.00    +0.000 C 
ATOM     34  C   UNL     1     114.682 124.942 137.251  0.00  0.00    +0.000 C 
ENDBRANCH  31  33
ENDBRANCH  26  31
BRANCH  29  35
ATOM     35  C   UNL     1     112.125 127.792 138.801  0.00  0.00    +0.000 C 
BRANCH  35  36
ATOM     36  O   UNL     1     112.247 128.595 138.943  0.00  0.00    +0.000 OA
BRANCH  36  38
ATOM     37  O   UNL     1     112.021 128.960 140.306  0.00  0.00    +0.000 OA
ATOM     38  C   UNL     1     111.796 128.986 139.513  0.00  0.00    +0.000 C 
ATOM     39  C   UNL     1     111.121 129.404 139.290  0.00  0.00    +0.000 C 
ENDBRANCH  36  38
ENDBRANCH  35  36
ENDBRANCH  29  35
ENDBRANCH  22  30
ENDBRANCH   5  22
TORSDOF 8
ENDMDL
MODEL 6
REMARK VINA RESULT:      -8.7      1.486      3.264
REMARK  Name = 44259124
REMARK  8 active torsions:
REMARK  status: ('A' for Active; 'I' for Inactive)
REMARK    1  A    between atoms: O_2  and  C_15
REMARK    2  A    between atoms: O_2  and  C_22
REMARK    3  A    between atoms: O_3  and  C_19
REMARK    4  A    between atoms: O_3  and  C_21
REMARK    5  A    between atoms: O_6  and  C_20
REMARK    6  A    between atoms: O_6  and  C_27
REMARK    7  A    between atoms: C_18  and  C_20
REMARK    8  A    between atoms: C_23  and  C_29
REMARK                            x       y       z     vdW  Elec       q    Type
REMARK                         _______ _______ _______ _____ _____    ______ ____
ROOT
ATOM      1  O   UNL     1     111.872 125.798 136.003  0.00  0.00    +0.000 OA
ATOM      2  O   UNL     1     111.802 128.253 135.691  0.00  0.00    +0.000 OA
ATOM      3  O   UNL     1     110.530 128.159 135.017  0.00  0.00    +0.000 OA
ATOM      4  O   UNL     1     109.306 125.532 134.651  0.00  0.00    +0.000 OA
ATOM      5  C   UNL     1     112.467 127.086 136.179  0.00  0.00    +0.000 A 
ATOM      6  C   UNL     1     112.490 126.267 136.283  0.00  0.00    +0.000 A 
ATOM      7  C   UNL     1     111.825 127.434 135.795  0.00  0.00    +0.000 A 
ATOM      8  C   UNL     1     111.207 126.965 135.515  0.00  0.00    +0.000 A 
ATOM      9  C   UNL     1     111.231 126.147 135.619  0.00  0.00    +0.000 A 
ATOM     10  C   UNL     1     110.545 127.340 135.116  0.00  0.00    +0.000 A 
ATOM     11  C   UNL     1     110.594 125.647 135.332  0.00  0.00    +0.000 A 
ATOM     12  C   UNL     1     109.898 126.857 134.822  0.00  0.00    +0.000 A 
ATOM     13  C   UNL     1     109.923 126.004 134.931  0.00  0.00    +0.000 A 
ENDROOT
BRANCH   6  16
ATOM     14  O   UNL     1     115.202 125.367 136.250  0.00  0.00    +0.000 OA
ATOM     15  O   UNL     1     115.059 124.875 137.818  0.00  0.00    +0.000 OA
ATOM     16  C   UNL     1     113.132 125.919 136.668  0.00  0.00    +0.000 A 
ATOM     17  C   UNL     1     113.846 125.817 136.266  0.00  0.00    +0.000 A 
ATOM     18  C   UNL     1     113.060 125.673 137.452  0.00  0.00    +0.000 A 
ATOM     19  C   UNL     1     114.488 125.469 136.651  0.00  0.00    +0.000 A 
ATOM     20  C   UNL     1     113.703 125.325 137.835  0.00  0.00    +0.000 A 
ATOM     21  C   UNL     1     114.416 125.223 137.435  0.00  0.00    +0.000 A 
ENDBRANCH   6  16
BRANCH   5  22
ATOM     22  O   UNL     1     113.085 127.555 136.460  0.00  0.00    +0.000 OA
BRANCH  22  30
ATOM     23  O   UNL     1     112.321 128.079 137.548  0.00  0.00    +0.000 OA
ATOM     24  O   UNL     1     112.470 129.977 138.616  0.00  0.00    +0.000 OA
ATOM     25  O   UNL     1     113.997 128.930 136.439  0.00  0.00    +0.000 OA
ATOM     26  C   UNL     1     113.233 129.453 137.527  0.00  0.00    +0.000 C 
ATOM     27  C   UNL     1     112.624 129.371 138.077  0.00  0.00    +0.000 C 
ATOM     28  C   UNL     1     113.387 128.848 136.988  0.00  0.00    +0.000 C 
ATOM     29  C   UNL     1     112.168 128.683 138.087  0.00  0.00    +0.000 C 
ATOM     30  C   UNL     1     112.931 128.160 136.998  0.00  0.00    +0.000 C 
BRANCH  26  31
ATOM     31  O   UNL     1     113.690 130.141 137.517  0.00  0.00    +0.000 OA
BRANCH  31  33
ATOM     32  O   UNL     1     112.797 131.098 136.943  0.00  0.00    +0.000 OA
ATOM     33  C   UNL     1     113.535 130.729 136.960  0.00  0.00    +0.000 C 
ATOM     34  C   UNL     1     114.119 130.949 136.420  0.00  0.00    +0.000 C 
ENDBRANCH  31  33
ENDBRANCH  26  31
BRANCH  29  35
ATOM     35  C   UNL     1     111.558 128.602 138.637  0.00  0.00    +0.000 C 
BRANCH  35  36
ATOM     36  O   UNL     1     111.424 127.874 139.001  0.00  0.00    +0.000 OA
BRANCH  36  38
ATOM     37  O   UNL     1     110.749 128.006 140.253  0.00  0.00    +0.000 OA
ATOM     38  C   UNL     1     110.751 127.762 139.465  0.00  0.00    +0.000 C 
ATOM     39  C   UNL     1     110.082 127.405 139.142  0.00  0.00    +0.000 C 
ENDBRANCH  36  38
ENDBRANCH  35  36
ENDBRANCH  29  35
ENDBRANCH  22  30
ENDBRANCH   5  22
TORSDOF 8
ENDMDL
MODEL 7
REMARK VINA RESULT:      -8.7      1.922      4.599
REMARK  Name = 44259124
REMARK  8 active torsions:
REMARK  status: ('A' for Active; 'I' for Inactive)
REMARK    1  A    between atoms: O_2  and  C_15
REMARK    2  A    between atoms: O_2  and  C_22
REMARK    3  A    between atoms: O_3  and  C_19
REMARK    4  A    between atoms: O_3  and  C_21
REMARK    5  A    between atoms: O_6  and  C_20
REMARK    6  A    between atoms: O_6  and  C_27
REMARK    7  A    between atoms: C_18  and  C_20
REMARK    8  A    between atoms: C_23  and  C_29
REMARK                            x       y       z     vdW  Elec       q    Type
REMARK                         _______ _______ _______ _____ _____    ______ ____
ROOT
ATOM      1  O   UNL     1     113.870 126.272 138.288  0.00  0.00    +0.000 OA
ATOM      2  O   UNL     1     111.808 124.916 138.084  0.00  0.00    +0.000 OA
ATOM      3  O   UNL     1     112.348 124.214 136.946  0.00  0.00    +0.000 OA
ATOM      4  O   UNL     1     115.024 124.895 135.995  0.00  0.00    +0.000 OA
ATOM      5  C   UNL     1     112.559 125.934 138.749  0.00  0.00    +0.000 A 
ATOM      6  C   UNL     1     113.247 126.386 138.817  0.00  0.00    +0.000 A 
ATOM      7  C   UNL     1     112.495 125.368 138.152  0.00  0.00    +0.000 A 
ATOM      8  C   UNL     1     113.118 125.254 137.623  0.00  0.00    +0.000 A 
ATOM      9  C   UNL     1     113.805 125.705 137.691  0.00  0.00    +0.000 A 
ATOM     10  C   UNL     1     113.039 124.661 137.006  0.00  0.00    +0.000 A 
ATOM     11  C   UNL     1     114.460 125.596 137.147  0.00  0.00    +0.000 A 
ATOM     12  C   UNL     1     113.684 124.537 136.452  0.00  0.00    +0.000 A 
ATOM     13  C   UNL     1     114.400 125.008 136.523  0.00  0.00    +0.000 A 
ENDROOT
BRANCH   6  16
ATOM     14  O   UNL     1     113.259 129.123 139.639  0.00  0.00    +0.000 OA
ATOM     15  O   UNL     1     113.501 128.652 141.202  0.00  0.00    +0.000 OA
ATOM     16  C   UNL     1     113.310 126.952 139.413  0.00  0.00    +0.000 A 
ATOM     17  C   UNL     1     113.253 127.755 139.228  0.00  0.00    +0.000 A 
ATOM     18  C   UNL     1     113.432 126.717 140.195  0.00  0.00    +0.000 A 
ATOM     19  C   UNL     1     113.316 128.321 139.825  0.00  0.00    +0.000 A 
ATOM     20  C   UNL     1     113.495 127.284 140.791  0.00  0.00    +0.000 A 
ATOM     21  C   UNL     1     113.438 128.085 140.606  0.00  0.00    +0.000 A 
ENDBRANCH   6  16
BRANCH   5  22
ATOM     22  O   UNL     1     111.936 126.049 139.278  0.00  0.00    +0.000 OA
BRANCH  22  30
ATOM     23  O   UNL     1     111.109 126.725 138.329  0.00  0.00    +0.000 OA
ATOM     24  O   UNL     1     108.936 126.832 138.149  0.00  0.00    +0.000 OA
ATOM     25  O   UNL     1     110.591 125.479 140.046  0.00  0.00    +0.000 OA
ATOM     26  C   UNL     1     109.764 126.156 139.097  0.00  0.00    +0.000 C 
ATOM     27  C   UNL     1     109.687 126.636 138.431  0.00  0.00    +0.000 C 
ATOM     28  C   UNL     1     110.514 125.960 139.380  0.00  0.00    +0.000 C 
ATOM     29  C   UNL     1     110.359 126.921 138.047  0.00  0.00    +0.000 C 
ATOM     30  C   UNL     1     111.187 126.244 138.996  0.00  0.00    +0.000 C 
BRANCH  26  31
ATOM     31  O   UNL     1     109.091 125.871 139.481  0.00  0.00    +0.000 OA
BRANCH  31  33
ATOM     32  O   UNL     1     108.701 127.015 140.242  0.00  0.00    +0.000 OA
ATOM     33  C   UNL     1     108.852 126.206 140.195  0.00  0.00    +0.000 C 
ATOM     34  C   UNL     1     108.763 125.731 140.864  0.00  0.00    +0.000 C 
ENDBRANCH  31  33
ENDBRANCH  26  31
BRANCH  29  35
ATOM     35  C   UNL     1     110.281 127.401 137.381  0.00  0.00    +0.000 C 
BRANCH  35  36
ATOM     36  O   UNL     1     110.784 128.045 137.275  0.00  0.00    +0.000 OA
BRANCH  36  38
ATOM     37  O   UNL     1     110.224 129.042 136.419  0.00  0.00    +0.000 OA
ATOM     38  C   UNL     1     110.786 128.455 136.559  0.00  0.00    +0.000 C 
ATOM     39  C   UNL     1     111.349 128.278 135.983  0.00  0.00    +0.000 C 
ENDBRANCH  36  38
ENDBRANCH  35  36
ENDBRANCH  29  35
ENDBRANCH  22  30
ENDBRANCH   5  22
TORSDOF 8
ENDMDL
MODEL 8
REMARK VINA RESULT:      -8.7      1.199      3.689
REMARK  Name = 44259124
REMARK  8 active torsions:
REMARK  status: ('A' for Active; 'I' for Inactive)
REMARK    1  A    between atoms: O_2  and  C_15
REMARK    2  A    between atoms: O_2  and  C_22
REMARK    3  A    between atoms: O_3  and  C_19
REMARK    4  A    between atoms: O_3  and  C_21
REMARK    5  A    between atoms: O_6  and  C_20
REMARK    6  A    between atoms: O_6  and  C_27
REMARK    7  A    between atoms: C_18  and  C_20
REMARK    8  A    between atoms: C_23  and  C_29
REMARK                            x       y       z     vdW  Elec       q    Type
REMARK                         _______ _______ _______ _____ _____    ______ ____
ROOT
ATOM      1  O   UNL     1     111.804 129.266 135.877  0.00  0.00    +0.000 OA
ATOM      2  O   UNL     1     112.936 127.065 135.932  0.00  0.00    +0.000 OA
ATOM      3  O   UNL     1     114.232 127.699 135.939  0.00  0.00    +0.000 OA
ATOM      4  O   UNL     1     114.384 130.616 135.888  0.00  0.00    +0.000 OA
ATOM      5  C   UNL     1     111.735 127.838 135.902  0.00  0.00    +0.000 A 
ATOM      6  C   UNL     1     111.357 128.572 135.884  0.00  0.00    +0.000 A 
ATOM      7  C   UNL     1     112.559 127.799 135.914  0.00  0.00    +0.000 A 
ATOM      8  C   UNL     1     113.005 128.492 135.908  0.00  0.00    +0.000 A 
ATOM      9  C   UNL     1     112.628 129.225 135.889  0.00  0.00    +0.000 A 
ATOM     10  C   UNL     1     113.863 128.438 135.920  0.00  0.00    +0.000 A 
ATOM     11  C   UNL     1     113.081 129.955 135.882  0.00  0.00    +0.000 A 
ATOM     12  C   UNL     1     114.334 129.156 135.914  0.00  0.00    +0.000 A 
ATOM     13  C   UNL     1     113.940 129.921 135.894  0.00  0.00    +0.000 A 
ENDROOT
BRANCH   6  16
ATOM     14  O   UNL     1     108.886 129.110 137.215  0.00  0.00    +0.000 OA
ATOM     15  O   UNL     1     108.061 128.729 135.839  0.00  0.00    +0.000 OA
ATOM     16  C   UNL     1     110.533 128.611 135.872  0.00  0.00    +0.000 A 
ATOM     17  C   UNL     1     110.122 128.841 136.550  0.00  0.00    +0.000 A 
ATOM     18  C   UNL     1     110.121 128.420 135.183  0.00  0.00    +0.000 A 
ATOM     19  C   UNL     1     109.298 128.880 136.538  0.00  0.00    +0.000 A 
ATOM     20  C   UNL     1     109.297 128.460 135.173  0.00  0.00    +0.000 A 
ATOM     21  C   UNL     1     108.885 128.690 135.849  0.00  0.00    +0.000 A 
ENDBRANCH   6  16
BRANCH   5  22
ATOM     22  O   UNL     1     111.288 127.144 135.909  0.00  0.00    +0.000 OA
BRANCH  22  30
ATOM     23  O   UNL     1     111.545 126.876 137.288  0.00  0.00    +0.000 OA
ATOM     24  O   UNL     1     111.618 124.993 138.389  0.00  0.00    +0.000 OA
ATOM     25  O   UNL     1     111.104 125.529 135.629  0.00  0.00    +0.000 OA
ATOM     26  C   UNL     1     111.361 125.261 137.009  0.00  0.00    +0.000 C 
ATOM     27  C   UNL     1     111.536 125.531 137.768  0.00  0.00    +0.000 C 
ATOM     28  C   UNL     1     111.278 125.799 136.389  0.00  0.00    +0.000 C 
ATOM     29  C   UNL     1     111.628 126.339 137.908  0.00  0.00    +0.000 C 
ATOM     30  C   UNL     1     111.371 126.607 136.528  0.00  0.00    +0.000 C 
BRANCH  26  31
ATOM     31  O   UNL     1     111.269 124.453 136.869  0.00  0.00    +0.000 OA
BRANCH  31  33
ATOM     32  O   UNL     1     112.532 124.180 136.260  0.00  0.00    +0.000 OA
ATOM     33  C   UNL     1     111.932 123.971 136.786  0.00  0.00    +0.000 C 
ATOM     34  C   UNL     1     111.997 123.278 137.230  0.00  0.00    +0.000 C 
ENDBRANCH  31  33
ENDBRANCH  26  31
BRANCH  29  35
ATOM     35  C   UNL     1     111.803 126.608 138.668  0.00  0.00    +0.000 C 
BRANCH  35  36
ATOM     36  O   UNL     1     111.468 127.309 138.945  0.00  0.00    +0.000 OA
BRANCH  36  38
ATOM     37  O   UNL     1     111.399 127.372 140.371  0.00  0.00    +0.000 OA
ATOM     38  C   UNL     1     111.723 127.635 139.659  0.00  0.00    +0.000 C 
ATOM     39  C   UNL     1     112.301 128.222 139.662  0.00  0.00    +0.000 C 
ENDBRANCH  36  38
ENDBRANCH  35  36
ENDBRANCH  29  35
ENDBRANCH  22  30
ENDBRANCH   5  22
TORSDOF 8
ENDMDL
MODEL 9
REMARK VINA RESULT:      -8.7      1.393      3.977
REMARK  Name = 44259124
REMARK  8 active torsions:
REMARK  status: ('A' for Active; 'I' for Inactive)
REMARK    1  A    between atoms: O_2  and  C_15
REMARK    2  A    between atoms: O_2  and  C_22
REMARK    3  A    between atoms: O_3  and  C_19
REMARK    4  A    between atoms: O_3  and  C_21
REMARK    5  A    between atoms: O_6  and  C_20
REMARK    6  A    between atoms: O_6  and  C_27
REMARK    7  A    between atoms: C_18  and  C_20
REMARK    8  A    between atoms: C_23  and  C_29
REMARK                            x       y       z     vdW  Elec       q    Type
REMARK                         _______ _______ _______ _____ _____    ______ ____
ROOT
ATOM      1  O   UNL     1     111.783 127.645 135.543  0.00  0.00    +0.000 OA
ATOM      2  O   UNL     1     111.177 127.159 137.894  0.00  0.00    +0.000 OA
ATOM      3  O   UNL     1     110.151 126.237 137.469  0.00  0.00    +0.000 OA
ATOM      4  O   UNL     1     109.731 125.799 134.612  0.00  0.00    +0.000 OA
ATOM      5  C   UNL     1     111.984 127.856 136.943  0.00  0.00    +0.000 A 
ATOM      6  C   UNL     1     112.186 128.018 136.159  0.00  0.00    +0.000 A 
ATOM      7  C   UNL     1     111.379 127.321 137.110  0.00  0.00    +0.000 A 
ATOM      8  C   UNL     1     110.975 126.948 136.494  0.00  0.00    +0.000 A 
ATOM      9  C   UNL     1     111.177 127.110 135.712  0.00  0.00    +0.000 A 
ATOM     10  C   UNL     1     110.346 126.393 136.682  0.00  0.00    +0.000 A 
ATOM     11  C   UNL     1     110.765 126.729 135.062  0.00  0.00    +0.000 A 
ATOM     12  C   UNL     1     109.922 126.002 136.046  0.00  0.00    +0.000 A 
ATOM     13  C   UNL     1     110.133 126.170 135.230  0.00  0.00    +0.000 A 
ENDROOT
BRANCH   6  16
ATOM     14  O   UNL     1     114.858 128.536 135.287  0.00  0.00    +0.000 OA
ATOM     15  O   UNL     1     114.610 130.155 135.489  0.00  0.00    +0.000 OA
ATOM     16  C   UNL     1     112.791 128.552 135.992  0.00  0.00    +0.000 A 
ATOM     17  C   UNL     1     113.522 128.277 135.723  0.00  0.00    +0.000 A 
ATOM     18  C   UNL     1     112.667 129.362 136.092  0.00  0.00    +0.000 A 
ATOM     19  C   UNL     1     114.128 128.812 135.556  0.00  0.00    +0.000 A 
ATOM     20  C   UNL     1     113.274 129.896 135.925  0.00  0.00    +0.000 A 
ATOM     21  C   UNL     1     114.003 129.621 135.657  0.00  0.00    +0.000 A 
ENDBRANCH   6  16
BRANCH   5  22
ATOM     22  O   UNL     1     112.387 128.229 137.558  0.00  0.00    +0.000 OA
BRANCH  22  30
ATOM     23  O   UNL     1     113.102 127.045 137.920  0.00  0.00    +0.000 OA
ATOM     24  O   UNL     1     113.971 126.426 139.824  0.00  0.00    +0.000 OA
ATOM     25  O   UNL     1     112.541 128.793 139.101  0.00  0.00    +0.000 OA
ATOM     26  C   UNL     1     113.256 127.609 139.463  0.00  0.00    +0.000 C 
ATOM     27  C   UNL     1     113.575 126.877 139.257  0.00  0.00    +0.000 C 
ATOM     28  C   UNL     1     112.860 128.060 138.896  0.00  0.00    +0.000 C 
ATOM     29  C   UNL     1     113.498 126.595 138.485  0.00  0.00    +0.000 C 
ATOM     30  C   UNL     1     112.783 127.778 138.124  0.00  0.00    +0.000 C 
BRANCH  26  31
ATOM     31  O   UNL     1     113.333 127.891 140.234  0.00  0.00    +0.000 OA
BRANCH  31  33
ATOM     32  O   UNL     1     112.410 127.090 140.975  0.00  0.00    +0.000 OA
ATOM     33  C   UNL     1     112.700 127.832 140.759  0.00  0.00    +0.000 C 
ATOM     34  C   UNL     1     112.357 128.515 141.070  0.00  0.00    +0.000 C 
ENDBRANCH  31  33
ENDBRANCH  26  31
BRANCH  29  35
ATOM     35  C   UNL     1     113.817 125.862 138.281  0.00  0.00    +0.000 C 
BRANCH  35  36
ATOM     36  O   UNL     1     114.216 125.770 137.565  0.00  0.00    +0.000 OA
BRANCH  36  38
ATOM     37  O   UNL     1     115.096 124.644 137.574  0.00  0.00    +0.000 OA
ATOM     38  C   UNL     1     114.414 125.016 137.296  0.00  0.00    +0.000 C 
ATOM     39  C   UNL     1     113.930 124.633 136.749  0.00  0.00    +0.000 C 
ENDBRANCH  36  38
ENDBRANCH  35  36
ENDBRANCH  29  35
ENDBRANCH  22  30
ENDBRANCH   5  22
TORSDOF 8
ENDMDL
MODEL 10
REMARK VINA RESULT:      -8.7      1.584      4.798
REMARK  Name = 44259124
REMARK  8 active torsions:
REMARK  status: ('A' for Active; 'I' for Inactive)
REMARK    1  A    between atoms: O_2  and  C_15
REMARK    2  A    between atoms: O_2  and  C_22
REMARK    3  A    between atoms: O_3  and  C_19
REMARK    4  A    between atoms: O_3  and  C_21
REMARK    5  A    between atoms: O_6  and  C_20
REMARK    6  A    between atoms: O_6  and  C_27
REMARK    7  A    between atoms: C_18  and  C_20
REMARK    8  A    between atoms: C_23  and  C_29
REMARK                            x       y       z     vdW  Elec       q    Type
REMARK                         _______ _______ _______ _____ _____    ______ ____
ROOT
ATOM      1  O   UNL     1     111.203 129.628 135.746  0.00  0.00    +0.000 OA
ATOM      2  O   UNL     1     110.570 128.733 137.966  0.00  0.00    +0.000 OA
ATOM      3  O   UNL     1     109.184 129.057 137.733  0.00  0.00    +0.000 OA
ATOM      4  O   UNL     1     108.423 130.310 135.207  0.00  0.00    +0.000 OA
ATOM      5  C   UNL     1     111.570 129.015 136.985  0.00  0.00    +0.000 A 
ATOM      6  C   UNL     1     111.781 129.313 136.244  0.00  0.00    +0.000 A 
ATOM      7  C   UNL     1     110.781 129.031 137.226  0.00  0.00    +0.000 A 
ATOM      8  C   UNL     1     110.203 129.346 136.728  0.00  0.00    +0.000 A 
ATOM      9  C   UNL     1     110.414 129.644 135.989  0.00  0.00    +0.000 A 
ATOM     10  C   UNL     1     109.385 129.357 136.992  0.00  0.00    +0.000 A 
ATOM     11  C   UNL     1     109.823 129.974 135.461  0.00  0.00    +0.000 A 
ATOM     12  C   UNL     1     108.779 129.683 136.478  0.00  0.00    +0.000 A 
ATOM     13  C   UNL     1     108.999 129.994 135.707  0.00  0.00    +0.000 A 
ENDROOT
BRANCH   6  16
ATOM     14  O   UNL     1     114.431 130.374 136.376  0.00  0.00    +0.000 OA
ATOM     15  O   UNL     1     114.936 129.249 135.281  0.00  0.00    +0.000 OA
ATOM     16  C   UNL     1     112.569 129.296 136.003  0.00  0.00    +0.000 A 
ATOM     17  C   UNL     1     113.106 129.844 136.310  0.00  0.00    +0.000 A 
ATOM     18  C   UNL     1     112.822 128.734 135.455  0.00  0.00    +0.000 A 
ATOM     19  C   UNL     1     113.894 129.827 136.069  0.00  0.00    +0.000 A 
ATOM     20  C   UNL     1     113.611 128.718 135.215  0.00  0.00    +0.000 A 
ATOM     21  C   UNL     1     114.147 129.264 135.521  0.00  0.00    +0.000 A 
ENDBRANCH   6  16
BRANCH   5  22
ATOM     22  O   UNL     1     112.147 128.700 137.482  0.00  0.00    +0.000 OA
BRANCH  22  30
ATOM     23  O   UNL     1     111.718 127.351 137.285  0.00  0.00    +0.000 OA
ATOM     24  O   UNL     1     111.871 125.599 138.578  0.00  0.00    +0.000 OA
ATOM     25  O   UNL     1     112.729 128.297 138.973  0.00  0.00    +0.000 OA
ATOM     26  C   UNL     1     112.300 126.948 138.775  0.00  0.00    +0.000 C 
ATOM     27  C   UNL     1     111.940 126.375 138.304  0.00  0.00    +0.000 C 
ATOM     28  C   UNL     1     112.369 127.724 138.501  0.00  0.00    +0.000 C 
ATOM     29  C   UNL     1     111.649 126.577 137.558  0.00  0.00    +0.000 C 
ATOM     30  C   UNL     1     112.078 127.925 137.756  0.00  0.00    +0.000 C 
BRANCH  26  31
ATOM     31  O   UNL     1     112.591 126.746 139.521  0.00  0.00    +0.000 OA
BRANCH  31  33
ATOM     32  O   UNL     1     113.850 126.201 139.123  0.00  0.00    +0.000 OA
ATOM     33  C   UNL     1     113.402 126.665 139.638  0.00  0.00    +0.000 C 
ATOM     34  C   UNL     1     113.768 127.047 140.271  0.00  0.00    +0.000 C 
ENDBRANCH  31  33
ENDBRANCH  26  31
BRANCH  29  35
ATOM     35  C   UNL     1     111.289 126.003 137.087  0.00  0.00    +0.000 C 
BRANCH  35  36
ATOM     36  O   UNL     1     111.461 125.962 136.282  0.00  0.00    +0.000 OA
BRANCH  36  38
ATOM     37  O   UNL     1     111.161 124.652 135.796  0.00  0.00    +0.000 OA
ATOM     38  C   UNL     1     111.022 125.466 135.790  0.00  0.00    +0.000 C 
ATOM     39  C   UNL     1     110.445 125.781 135.294  0.00  0.00    +0.000 C 
ENDBRANCH  36  38
ENDBRANCH  35  36
ENDBRANCH  29  35
ENDBRANCH  22  30
ENDBRANCH   5  22
TORSDOF 8
ENDMDL
