MODEL 1
REMARK VINA RESULT:      -9.7      0.000      0.000
REMARK  Name = 44259321
REMARK  6 active torsions:
REMARK  status: ('A' for Active; 'I' for Inactive)
REMARK    1  A    between atoms: S_1  and  O_12
REMARK    2  A    between atoms: O_3  and  C_21
REMARK    3  A    between atoms: O_3  and  C_24
REMARK    4  A    between atoms: O_12  and  C_36
REMARK    5  A    between atoms: C_22  and  C_23
REMARK    6  A    between atoms: C_25  and  C_29
REMARK                            x       y       z     vdW  Elec       q    Type
REMARK                         _______ _______ _______ _____ _____    ______ ____
ROOT
ATOM      1  O   UNL     1     105.671 124.424 147.785  0.00  0.00    +0.000 OA
ATOM      2  O   UNL     1     107.056 125.654 146.143  0.00  0.00    +0.000 OA
ATOM      3  O   UNL     1     108.199 125.598 147.021  0.00  0.00    +0.000 OA
ATOM      4  O   UNL     1     107.935 124.273 149.611  0.00  0.00    +0.000 OA
ATOM      5  C   UNL     1     105.805 125.074 146.519  0.00  0.00    +0.000 A 
ATOM      6  C   UNL     1     105.343 124.664 147.067  0.00  0.00    +0.000 A 
ATOM      7  C   UNL     1     106.594 125.244 146.690  0.00  0.00    +0.000 A 
ATOM      8  C   UNL     1     106.921 125.004 147.409  0.00  0.00    +0.000 A 
ATOM      9  C   UNL     1     106.460 124.595 147.956  0.00  0.00    +0.000 A 
ATOM     10  C   UNL     1     107.744 125.188 147.575  0.00  0.00    +0.000 A 
ATOM     11  C   UNL     1     106.788 124.339 148.707  0.00  0.00    +0.000 A 
ATOM     12  C   UNL     1     108.090 124.940 148.321  0.00  0.00    +0.000 A 
ATOM     13  C   UNL     1     107.610 124.513 148.892  0.00  0.00    +0.000 A 
ENDROOT
BRANCH   6  15
ATOM     14  O   UNL     1     102.187 123.987 146.382  0.00  0.00    +0.000 OA
ATOM     15  C   UNL     1     104.554 124.494 146.895  0.00  0.00    +0.000 A 
ATOM     16  C   UNL     1     103.951 124.885 147.302  0.00  0.00    +0.000 A 
ATOM     17  C   UNL     1     104.368 123.935 146.318  0.00  0.00    +0.000 A 
ATOM     18  C   UNL     1     103.162 124.715 147.130  0.00  0.00    +0.000 A 
ATOM     19  C   UNL     1     103.579 123.766 146.147  0.00  0.00    +0.000 A 
ATOM     20  C   UNL     1     102.976 124.156 146.553  0.00  0.00    +0.000 A 
BRANCH  18  21
ATOM     21  O   UNL     1     102.559 125.105 147.537  0.00  0.00    +0.000 OA
BRANCH  21  22
ATOM     22  S   UNL     1     102.656 125.300 148.333  0.00  0.00    +0.000 S 
ATOM     23  O   UNL     1     102.754 125.494 149.129  0.00  0.00    +0.000 OA
ATOM     24  O   UNL     1     102.818 126.081 148.122  0.00  0.00    +0.000 OA
ATOM     25  O   UNL     1     102.494 124.519 148.543  0.00  0.00    +0.000 OA
ENDBRANCH  21  22
ENDBRANCH  18  21
ENDBRANCH   6  15
BRANCH   5  26
ATOM     26  O   UNL     1     105.478 125.314 145.801  0.00  0.00    +0.000 OA
BRANCH  26  34
ATOM     27  O   UNL     1     105.377 126.690 146.174  0.00  0.00    +0.000 OA
ATOM     28  O   UNL     1     105.681 127.354 143.810  0.00  0.00    +0.000 OA
ATOM     29  O   UNL     1     105.681 125.757 144.224  0.00  0.00    +0.000 OA
ATOM     30  O   UNL     1     105.478 128.507 144.971  0.00  0.00    +0.000 OA
ATOM     31  C   UNL     1     105.579 127.133 144.598  0.00  0.00    +0.000 C 
ATOM     32  C   UNL     1     105.579 126.334 144.805  0.00  0.00    +0.000 C 
ATOM     33  C   UNL     1     105.478 127.709 145.179  0.00  0.00    +0.000 C 
ATOM     34  C   UNL     1     105.478 126.112 145.594  0.00  0.00    +0.000 C 
ATOM     35  C   UNL     1     105.377 127.488 145.967  0.00  0.00    +0.000 C 
BRANCH  35  38
ATOM     36  O   UNL     1     105.929 128.472 146.843  0.00  0.00    +0.000 OA
ATOM     37  O   UNL     1     104.521 128.234 146.833  0.00  0.00    +0.000 OA
ATOM     38  C   UNL     1     105.276 128.064 146.548  0.00  0.00    +0.000 C 
ENDBRANCH  35  38
ENDBRANCH  26  34
ENDBRANCH   5  26
TORSDOF 6
ENDMDL
MODEL 2
REMARK VINA RESULT:      -9.6      1.353      3.947
REMARK  Name = 44259321
REMARK  6 active torsions:
REMARK  status: ('A' for Active; 'I' for Inactive)
REMARK    1  A    between atoms: S_1  and  O_12
REMARK    2  A    between atoms: O_3  and  C_21
REMARK    3  A    between atoms: O_3  and  C_24
REMARK    4  A    between atoms: O_12  and  C_36
REMARK    5  A    between atoms: C_22  and  C_23
REMARK    6  A    between atoms: C_25  and  C_29
REMARK                            x       y       z     vdW  Elec       q    Type
REMARK                         _______ _______ _______ _____ _____    ______ ____
ROOT
ATOM      1  O   UNL     1     106.745 125.989 146.981  0.00  0.00    +0.000 OA
ATOM      2  O   UNL     1     104.991 124.952 148.387  0.00  0.00    +0.000 OA
ATOM      3  O   UNL     1     105.987 124.254 149.165  0.00  0.00    +0.000 OA
ATOM      4  O   UNL     1     108.810 124.614 148.507  0.00  0.00    +0.000 OA
ATOM      5  C   UNL     1     105.365 125.810 147.308  0.00  0.00    +0.000 A 
ATOM      6  C   UNL     1     105.950 126.156 146.839  0.00  0.00    +0.000 A 
ATOM      7  C   UNL     1     105.576 125.298 147.919  0.00  0.00    +0.000 A 
ATOM      8  C   UNL     1     106.371 125.131 148.061  0.00  0.00    +0.000 A 
ATOM      9  C   UNL     1     106.955 125.477 147.593  0.00  0.00    +0.000 A 
ATOM     10  C   UNL     1     106.578 124.596 148.701  0.00  0.00    +0.000 A 
ATOM     11  C   UNL     1     107.787 125.312 147.731  0.00  0.00    +0.000 A 
ATOM     12  C   UNL     1     107.404 124.419 148.854  0.00  0.00    +0.000 A 
ATOM     13  C   UNL     1     108.013 124.779 148.366  0.00  0.00    +0.000 A 
ENDROOT
BRANCH   6  15
ATOM     14  O   UNL     1     105.104 128.204 144.393  0.00  0.00    +0.000 OA
ATOM     15  C   UNL     1     105.738 126.668 146.228  0.00  0.00    +0.000 A 
ATOM     16  C   UNL     1     105.827 126.431 145.442  0.00  0.00    +0.000 A 
ATOM     17  C   UNL     1     105.438 127.417 146.402  0.00  0.00    +0.000 A 
ATOM     18  C   UNL     1     105.616 126.944 144.831  0.00  0.00    +0.000 A 
ATOM     19  C   UNL     1     105.227 127.929 145.790  0.00  0.00    +0.000 A 
ATOM     20  C   UNL     1     105.316 127.692 145.005  0.00  0.00    +0.000 A 
BRANCH  18  21
ATOM     21  O   UNL     1     105.704 126.707 144.045  0.00  0.00    +0.000 OA
BRANCH  21  22
ATOM     22  S   UNL     1     106.239 126.108 143.852  0.00  0.00    +0.000 S 
ATOM     23  O   UNL     1     106.774 125.510 143.660  0.00  0.00    +0.000 OA
ATOM     24  O   UNL     1     105.613 125.581 143.753  0.00  0.00    +0.000 OA
ATOM     25  O   UNL     1     106.865 126.636 143.951  0.00  0.00    +0.000 OA
ENDBRANCH  21  22
ENDBRANCH  18  21
ENDBRANCH   6  15
BRANCH   5  26
ATOM     26  O   UNL     1     104.569 125.977 147.165  0.00  0.00    +0.000 OA
BRANCH  26  34
ATOM     27  O   UNL     1     104.259 124.751 146.498  0.00  0.00    +0.000 OA
ATOM     28  O   UNL     1     102.020 124.745 147.552  0.00  0.00    +0.000 OA
ATOM     29  O   UNL     1     103.076 125.972 147.867  0.00  0.00    +0.000 OA
ATOM     30  O   UNL     1     102.457 123.522 146.534  0.00  0.00    +0.000 OA
ATOM     31  C   UNL     1     102.766 124.747 147.200  0.00  0.00    +0.000 C 
ATOM     32  C   UNL     1     103.295 125.361 147.358  0.00  0.00    +0.000 C 
ATOM     33  C   UNL     1     102.985 124.136 146.692  0.00  0.00    +0.000 C 
ATOM     34  C   UNL     1     104.042 125.363 147.007  0.00  0.00    +0.000 C 
ATOM     35  C   UNL     1     103.732 124.138 146.341  0.00  0.00    +0.000 C 
BRANCH  35  38
ATOM     36  O   UNL     1     103.755 123.566 145.031  0.00  0.00    +0.000 OA
ATOM     37  O   UNL     1     104.363 122.875 146.124  0.00  0.00    +0.000 OA
ATOM     38  C   UNL     1     103.950 123.527 145.832  0.00  0.00    +0.000 C 
ENDBRANCH  35  38
ENDBRANCH  26  34
ENDBRANCH   5  26
TORSDOF 6
ENDMDL
MODEL 3
REMARK VINA RESULT:      -9.4      1.076      2.041
REMARK  Name = 44259321
REMARK  6 active torsions:
REMARK  status: ('A' for Active; 'I' for Inactive)
REMARK    1  A    between atoms: S_1  and  O_12
REMARK    2  A    between atoms: O_3  and  C_21
REMARK    3  A    between atoms: O_3  and  C_24
REMARK    4  A    between atoms: O_12  and  C_36
REMARK    5  A    between atoms: C_22  and  C_23
REMARK    6  A    between atoms: C_25  and  C_29
REMARK                            x       y       z     vdW  Elec       q    Type
REMARK                         _______ _______ _______ _____ _____    ______ ____
ROOT
ATOM      1  O   UNL     1     105.694 125.280 148.575  0.00  0.00    +0.000 OA
ATOM      2  O   UNL     1     107.063 126.293 146.778  0.00  0.00    +0.000 OA
ATOM      3  O   UNL     1     108.243 125.613 147.254  0.00  0.00    +0.000 OA
ATOM      4  O   UNL     1     108.034 123.874 149.592  0.00  0.00    +0.000 OA
ATOM      5  C   UNL     1     105.802 126.129 147.431  0.00  0.00    +0.000 A 
ATOM      6  C   UNL     1     105.346 125.791 148.030  0.00  0.00    +0.000 A 
ATOM      7  C   UNL     1     106.606 125.955 147.378  0.00  0.00    +0.000 A 
ATOM      8  C   UNL     1     106.955 125.443 147.923  0.00  0.00    +0.000 A 
ATOM      9  C   UNL     1     106.499 125.106 148.521  0.00  0.00    +0.000 A 
ATOM     10  C   UNL     1     107.794 125.270 147.856  0.00  0.00    +0.000 A 
ATOM     11  C   UNL     1     106.850 124.572 149.095  0.00  0.00    +0.000 A 
ATOM     12  C   UNL     1     108.163 124.738 148.421  0.00  0.00    +0.000 A 
ATOM     13  C   UNL     1     107.688 124.386 149.045  0.00  0.00    +0.000 A 
ENDROOT
BRANCH   6  15
ATOM     14  O   UNL     1     102.126 126.486 148.242  0.00  0.00    +0.000 OA
ATOM     15  C   UNL     1     104.541 125.965 148.083  0.00  0.00    +0.000 A 
ATOM     16  C   UNL     1     103.981 125.392 147.884  0.00  0.00    +0.000 A 
ATOM     17  C   UNL     1     104.296 126.712 148.335  0.00  0.00    +0.000 A 
ATOM     18  C   UNL     1     103.177 125.566 147.937  0.00  0.00    +0.000 A 
ATOM     19  C   UNL     1     103.491 126.885 148.387  0.00  0.00    +0.000 A 
ATOM     20  C   UNL     1     102.932 126.313 148.189  0.00  0.00    +0.000 A 
BRANCH  18  21
ATOM     21  O   UNL     1     102.617 124.993 147.738  0.00  0.00    +0.000 OA
BRANCH  21  22
ATOM     22  S   UNL     1     102.837 124.199 147.694  0.00  0.00    +0.000 S 
ATOM     23  O   UNL     1     103.057 123.405 147.650  0.00  0.00    +0.000 OA
ATOM     24  O   UNL     1     102.792 124.141 148.516  0.00  0.00    +0.000 OA
ATOM     25  O   UNL     1     102.882 124.257 146.873  0.00  0.00    +0.000 OA
ENDBRANCH  21  22
ENDBRANCH  18  21
ENDBRANCH   6  15
BRANCH   5  26
ATOM     26  O   UNL     1     105.453 126.641 146.885  0.00  0.00    +0.000 OA
BRANCH  26  34
ATOM     27  O   UNL     1     105.509 125.698 145.813  0.00  0.00    +0.000 OA
ATOM     28  O   UNL     1     105.644 127.559 144.186  0.00  0.00    +0.000 OA
ATOM     29  O   UNL     1     105.543 127.881 145.801  0.00  0.00    +0.000 OA
ATOM     30  O   UNL     1     105.655 125.997 143.656  0.00  0.00    +0.000 OA
ATOM     31  C   UNL     1     105.599 126.939 144.728  0.00  0.00    +0.000 C 
ATOM     32  C   UNL     1     105.548 127.100 145.536  0.00  0.00    +0.000 C 
ATOM     33  C   UNL     1     105.605 126.157 144.463  0.00  0.00    +0.000 C 
ATOM     34  C   UNL     1     105.504 126.480 146.079  0.00  0.00    +0.000 C 
ATOM     35  C   UNL     1     105.560 125.537 145.006  0.00  0.00    +0.000 C 
BRANCH  35  38
ATOM     36  O   UNL     1     106.282 124.375 144.594  0.00  0.00    +0.000 OA
ATOM     37  O   UNL     1     104.854 124.357 144.621  0.00  0.00    +0.000 OA
ATOM     38  C   UNL     1     105.566 124.757 144.741  0.00  0.00    +0.000 C 
ENDBRANCH  35  38
ENDBRANCH  26  34
ENDBRANCH   5  26
TORSDOF 6
ENDMDL
MODEL 4
REMARK VINA RESULT:      -9.4      9.881     12.254
REMARK  Name = 44259321
REMARK  6 active torsions:
REMARK  status: ('A' for Active; 'I' for Inactive)
REMARK    1  A    between atoms: S_1  and  O_12
REMARK    2  A    between atoms: O_3  and  C_21
REMARK    3  A    between atoms: O_3  and  C_24
REMARK    4  A    between atoms: O_12  and  C_36
REMARK    5  A    between atoms: C_22  and  C_23
REMARK    6  A    between atoms: C_25  and  C_29
REMARK                            x       y       z     vdW  Elec       q    Type
REMARK                         _______ _______ _______ _____ _____    ______ ____
ROOT
ATOM      1  O   UNL     1     112.963 127.094 136.571  0.00  0.00    +0.000 OA
ATOM      2  O   UNL     1     112.932 128.425 138.659  0.00  0.00    +0.000 OA
ATOM      3  O   UNL     1     112.373 129.558 137.962  0.00  0.00    +0.000 OA
ATOM      4  O   UNL     1     111.837 129.341 135.099  0.00  0.00    +0.000 OA
ATOM      5  C   UNL     1     113.224 127.206 137.972  0.00  0.00    +0.000 A 
ATOM      6  C   UNL     1     113.234 126.762 137.276  0.00  0.00    +0.000 A 
ATOM      7  C   UNL     1     112.942 127.981 137.962  0.00  0.00    +0.000 A 
ATOM      8  C   UNL     1     112.671 128.313 137.257  0.00  0.00    +0.000 A 
ATOM      9  C   UNL     1     112.681 127.870 136.562  0.00  0.00    +0.000 A 
ATOM     10  C   UNL     1     112.380 129.122 137.261  0.00  0.00    +0.000 A 
ATOM     11  C   UNL     1     112.402 128.204 135.822  0.00  0.00    +0.000 A 
ATOM     12  C   UNL     1     112.097 129.473 136.530  0.00  0.00    +0.000 A 
ATOM     13  C   UNL     1     112.107 129.011 135.805  0.00  0.00    +0.000 A 
ENDROOT
BRANCH   6  15
ATOM     14  O   UNL     1     114.358 123.660 137.315  0.00  0.00    +0.000 OA
ATOM     15  C   UNL     1     113.516 125.987 137.286  0.00  0.00    +0.000 A 
ATOM     16  C   UNL     1     112.991 125.357 137.188  0.00  0.00    +0.000 A 
ATOM     17  C   UNL     1     114.320 125.841 137.393  0.00  0.00    +0.000 A 
ATOM     18  C   UNL     1     113.273 124.582 137.198  0.00  0.00    +0.000 A 
ATOM     19  C   UNL     1     114.601 125.065 137.403  0.00  0.00    +0.000 A 
ATOM     20  C   UNL     1     114.078 124.436 137.305  0.00  0.00    +0.000 A 
BRANCH  18  21
ATOM     21  O   UNL     1     112.748 123.951 137.100  0.00  0.00    +0.000 OA
BRANCH  21  22
ATOM     22  S   UNL     1     112.058 124.053 136.659  0.00  0.00    +0.000 S 
ATOM     23  O   UNL     1     111.368 124.155 136.219  0.00  0.00    +0.000 OA
ATOM     24  O   UNL     1     112.494 123.991 135.962  0.00  0.00    +0.000 OA
ATOM     25  O   UNL     1     111.622 124.116 137.357  0.00  0.00    +0.000 OA
ENDBRANCH  21  22
ENDBRANCH  18  21
ENDBRANCH   6  15
BRANCH   5  26
ATOM     26  O   UNL     1     113.495 126.874 138.677  0.00  0.00    +0.000 OA
BRANCH  26  34
ATOM     27  O   UNL     1     112.192 126.667 139.226  0.00  0.00    +0.000 OA
ATOM     28  O   UNL     1     113.096 127.018 141.503  0.00  0.00    +0.000 OA
ATOM     29  O   UNL     1     114.098 127.108 140.195  0.00  0.00    +0.000 OA
ATOM     30  O   UNL     1     111.493 126.694 141.293  0.00  0.00    +0.000 OA
ATOM     31  C   UNL     1     112.795 126.901 140.744  0.00  0.00    +0.000 C 
ATOM     32  C   UNL     1     113.296 126.946 140.089  0.00  0.00    +0.000 C 
ATOM     33  C   UNL     1     111.993 126.739 140.639  0.00  0.00    +0.000 C 
ATOM     34  C   UNL     1     112.994 126.829 139.331  0.00  0.00    +0.000 C 
ATOM     35  C   UNL     1     111.692 126.622 139.880  0.00  0.00    +0.000 C 
BRANCH  35  38
ATOM     36  O   UNL     1     110.626 125.679 139.751  0.00  0.00    +0.000 OA
ATOM     37  O   UNL     1     110.351 127.080 139.695  0.00  0.00    +0.000 OA
ATOM     38  C   UNL     1     110.890 126.460 139.775  0.00  0.00    +0.000 C 
ENDBRANCH  35  38
ENDBRANCH  26  34
ENDBRANCH   5  26
TORSDOF 6
ENDMDL
MODEL 5
REMARK VINA RESULT:      -9.3     10.204     12.570
REMARK  Name = 44259321
REMARK  6 active torsions:
REMARK  status: ('A' for Active; 'I' for Inactive)
REMARK    1  A    between atoms: S_1  and  O_12
REMARK    2  A    between atoms: O_3  and  C_21
REMARK    3  A    between atoms: O_3  and  C_24
REMARK    4  A    between atoms: O_12  and  C_36
REMARK    5  A    between atoms: C_22  and  C_23
REMARK    6  A    between atoms: C_25  and  C_29
REMARK                            x       y       z     vdW  Elec       q    Type
REMARK                         _______ _______ _______ _____ _____    ______ ____
ROOT
ATOM      1  O   UNL     1     113.487 126.822 136.820  0.00  0.00    +0.000 OA
ATOM      2  O   UNL     1     111.570 125.514 135.957  0.00  0.00    +0.000 OA
ATOM      3  O   UNL     1     112.222 124.275 136.304  0.00  0.00    +0.000 OA
ATOM      4  O   UNL     1     114.864 124.361 137.547  0.00  0.00    +0.000 OA
ATOM      5  C   UNL     1     112.194 126.774 136.212  0.00  0.00    +0.000 A 
ATOM      6  C   UNL     1     112.833 127.210 136.499  0.00  0.00    +0.000 A 
ATOM      7  C   UNL     1     112.209 125.950 136.245  0.00  0.00    +0.000 A 
ATOM      8  C   UNL     1     112.863 125.562 136.565  0.00  0.00    +0.000 A 
ATOM      9  C   UNL     1     113.501 125.997 136.852  0.00  0.00    +0.000 A 
ATOM     10  C   UNL     1     112.866 124.703 136.594  0.00  0.00    +0.000 A 
ATOM     11  C   UNL     1     114.187 125.605 137.189  0.00  0.00    +0.000 A 
ATOM     12  C   UNL     1     113.544 124.293 136.926  0.00  0.00    +0.000 A 
ATOM     13  C   UNL     1     114.209 124.747 137.226  0.00  0.00    +0.000 A 
ENDROOT
BRANCH   6  15
ATOM     14  O   UNL     1     112.771 130.507 136.369  0.00  0.00    +0.000 OA
ATOM     15  C   UNL     1     112.818 128.034 136.466  0.00  0.00    +0.000 A 
ATOM     16  C   UNL     1     112.737 128.473 137.161  0.00  0.00    +0.000 A 
ATOM     17  C   UNL     1     112.883 128.420 135.740  0.00  0.00    +0.000 A 
ATOM     18  C   UNL     1     112.721 129.297 137.128  0.00  0.00    +0.000 A 
ATOM     19  C   UNL     1     112.868 129.244 135.708  0.00  0.00    +0.000 A 
ATOM     20  C   UNL     1     112.787 129.683 136.401  0.00  0.00    +0.000 A 
BRANCH  18  21
ATOM     21  O   UNL     1     112.640 129.736 137.822  0.00  0.00    +0.000 OA
BRANCH  21  22
ATOM     22  S   UNL     1     112.995 129.475 138.520  0.00  0.00    +0.000 S 
ATOM     23  O   UNL     1     113.351 129.213 139.217  0.00  0.00    +0.000 OA
ATOM     24  O   UNL     1     112.267 129.190 138.784  0.00  0.00    +0.000 OA
ATOM     25  O   UNL     1     113.723 129.759 138.255  0.00  0.00    +0.000 OA
ENDBRANCH  21  22
ENDBRANCH  18  21
ENDBRANCH   6  15
BRANCH   5  26
ATOM     26  O   UNL     1     111.540 127.163 135.891  0.00  0.00    +0.000 OA
BRANCH  26  34
ATOM     27  O   UNL     1     110.695 126.966 137.027  0.00  0.00    +0.000 OA
ATOM     28  O   UNL     1     108.726 126.813 135.535  0.00  0.00    +0.000 OA
ATOM     29  O   UNL     1     110.228 127.060 134.897  0.00  0.00    +0.000 OA
ATOM     30  O   UNL     1     108.538 126.667 137.167  0.00  0.00    +0.000 OA
ATOM     31  C   UNL     1     109.383 126.864 136.032  0.00  0.00    +0.000 C 
ATOM     32  C   UNL     1     110.134 126.988 135.713  0.00  0.00    +0.000 C 
ATOM     33  C   UNL     1     109.289 126.791 136.848  0.00  0.00    +0.000 C 
ATOM     34  C   UNL     1     110.790 127.039 136.210  0.00  0.00    +0.000 C 
ATOM     35  C   UNL     1     109.945 126.842 137.346  0.00  0.00    +0.000 C 
BRANCH  35  38
ATOM     36  O   UNL     1     109.911 126.029 138.520  0.00  0.00    +0.000 OA
ATOM     37  O   UNL     1     109.695 127.438 138.620  0.00  0.00    +0.000 OA
ATOM     38  C   UNL     1     109.851 126.770 138.161  0.00  0.00    +0.000 C 
ENDBRANCH  35  38
ENDBRANCH  26  34
ENDBRANCH   5  26
TORSDOF 6
ENDMDL
MODEL 6
REMARK VINA RESULT:      -9.3      9.805     12.213
REMARK  Name = 44259321
REMARK  6 active torsions:
REMARK  status: ('A' for Active; 'I' for Inactive)
REMARK    1  A    between atoms: S_1  and  O_12
REMARK    2  A    between atoms: O_3  and  C_21
REMARK    3  A    between atoms: O_3  and  C_24
REMARK    4  A    between atoms: O_12  and  C_36
REMARK    5  A    between atoms: C_22  and  C_23
REMARK    6  A    between atoms: C_25  and  C_29
REMARK                            x       y       z     vdW  Elec       q    Type
REMARK                         _______ _______ _______ _____ _____    ______ ____
ROOT
ATOM      1  O   UNL     1     112.121 126.865 136.413  0.00  0.00    +0.000 OA
ATOM      2  O   UNL     1     111.091 127.858 138.434  0.00  0.00    +0.000 OA
ATOM      3  O   UNL     1     111.078 129.164 137.820  0.00  0.00    +0.000 OA
ATOM      4  O   UNL     1     112.128 129.470 135.111  0.00  0.00    +0.000 OA
ATOM      5  C   UNL     1     111.606 126.721 137.739  0.00  0.00    +0.000 A 
ATOM      6  C   UNL     1     111.949 126.389 137.065  0.00  0.00    +0.000 A 
ATOM      7  C   UNL     1     111.434 127.527 137.760  0.00  0.00    +0.000 A 
ATOM      8  C   UNL     1     111.605 128.003 137.108  0.00  0.00    +0.000 A 
ATOM      9  C   UNL     1     111.948 127.672 136.435  0.00  0.00    +0.000 A 
ATOM     10  C   UNL     1     111.422 128.842 137.142  0.00  0.00    +0.000 A 
ATOM     11  C   UNL     1     112.132 128.156 135.750  0.00  0.00    +0.000 A 
ATOM     12  C   UNL     1     111.598 129.341 136.466  0.00  0.00    +0.000 A 
ATOM     13  C   UNL     1     111.955 128.997 135.765  0.00  0.00    +0.000 A 
ENDROOT
BRANCH   6  15
ATOM     14  O   UNL     1     112.638 123.163 136.984  0.00  0.00    +0.000 OA
ATOM     15  C   UNL     1     112.121 125.583 137.045  0.00  0.00    +0.000 A 
ATOM     16  C   UNL     1     112.906 125.328 137.071  0.00  0.00    +0.000 A 
ATOM     17  C   UNL     1     111.509 125.031 136.999  0.00  0.00    +0.000 A 
ATOM     18  C   UNL     1     113.077 124.521 137.050  0.00  0.00    +0.000 A 
ATOM     19  C   UNL     1     111.682 124.225 136.978  0.00  0.00    +0.000 A 
ATOM     20  C   UNL     1     112.465 123.970 137.004  0.00  0.00    +0.000 A 
BRANCH  18  21
ATOM     21  O   UNL     1     113.862 124.266 137.076  0.00  0.00    +0.000 OA
BRANCH  21  22
ATOM     22  S   UNL     1     114.467 124.764 136.817  0.00  0.00    +0.000 S 
ATOM     23  O   UNL     1     115.071 125.262 136.558  0.00  0.00    +0.000 OA
ATOM     24  O   UNL     1     114.661 124.935 137.600  0.00  0.00    +0.000 OA
ATOM     25  O   UNL     1     114.272 124.593 136.033  0.00  0.00    +0.000 OA
ENDBRANCH  21  22
ENDBRANCH  18  21
ENDBRANCH   6  15
BRANCH   5  26
ATOM     26  O   UNL     1     111.434 126.245 138.391  0.00  0.00    +0.000 OA
BRANCH  26  34
ATOM     27  O   UNL     1     112.526 126.734 139.173  0.00  0.00    +0.000 OA
ATOM     28  O   UNL     1     111.234 126.311 141.242  0.00  0.00    +0.000 OA
ATOM     29  O   UNL     1     110.573 125.963 139.770  0.00  0.00    +0.000 OA
ATOM     30  O   UNL     1     112.756 126.941 141.333  0.00  0.00    +0.000 OA
ATOM     31  C   UNL     1     111.665 126.452 140.552  0.00  0.00    +0.000 C 
ATOM     32  C   UNL     1     111.334 126.278 139.816  0.00  0.00    +0.000 C 
ATOM     33  C   UNL     1     112.426 126.767 140.598  0.00  0.00    +0.000 C 
ATOM     34  C   UNL     1     111.765 126.419 139.126  0.00  0.00    +0.000 C 
ATOM     35  C   UNL     1     112.856 126.908 139.908  0.00  0.00    +0.000 C 
BRANCH  35  38
ATOM     36  O   UNL     1     113.725 128.041 139.971  0.00  0.00    +0.000 OA
ATOM     37  O   UNL     1     114.270 126.721 139.984  0.00  0.00    +0.000 OA
ATOM     38  C   UNL     1     113.617 127.223 139.954  0.00  0.00    +0.000 C 
ENDBRANCH  35  38
ENDBRANCH  26  34
ENDBRANCH   5  26
TORSDOF 6
ENDMDL
MODEL 7
REMARK VINA RESULT:      -9.3     10.741     12.950
REMARK  Name = 44259321
REMARK  6 active torsions:
REMARK  status: ('A' for Active; 'I' for Inactive)
REMARK    1  A    between atoms: S_1  and  O_12
REMARK    2  A    between atoms: O_3  and  C_21
REMARK    3  A    between atoms: O_3  and  C_24
REMARK    4  A    between atoms: O_12  and  C_36
REMARK    5  A    between atoms: C_22  and  C_23
REMARK    6  A    between atoms: C_25  and  C_29
REMARK                            x       y       z     vdW  Elec       q    Type
REMARK                         _______ _______ _______ _____ _____    ______ ____
ROOT
ATOM      1  O   UNL     1     112.889 128.436 138.263  0.00  0.00    +0.000 OA
ATOM      2  O   UNL     1     112.289 126.109 138.858  0.00  0.00    +0.000 OA
ATOM      3  O   UNL     1     112.787 126.293 140.200  0.00  0.00    +0.000 OA
ATOM      4  O   UNL     1     113.915 128.880 140.952  0.00  0.00    +0.000 OA
ATOM      5  C   UNL     1     112.338 127.167 137.900  0.00  0.00    +0.000 A 
ATOM      6  C   UNL     1     112.539 127.944 137.701  0.00  0.00    +0.000 A 
ATOM      7  C   UNL     1     112.489 126.885 138.660  0.00  0.00    +0.000 A 
ATOM      8  C   UNL     1     112.840 127.377 139.221  0.00  0.00    +0.000 A 
ATOM      9  C   UNL     1     113.039 128.152 139.023  0.00  0.00    +0.000 A 
ATOM     10  C   UNL     1     112.991 127.070 140.010  0.00  0.00    +0.000 A 
ATOM     11  C   UNL     1     113.405 128.675 139.599  0.00  0.00    +0.000 A 
ATOM     12  C   UNL     1     113.356 127.578 140.599  0.00  0.00    +0.000 A 
ATOM     13  C   UNL     1     113.564 128.386 140.392  0.00  0.00    +0.000 A 
ENDROOT
BRANCH   6  15
ATOM     14  O   UNL     1     111.939 129.074 134.659  0.00  0.00    +0.000 OA
ATOM     15  C   UNL     1     112.388 128.226 136.941  0.00  0.00    +0.000 A 
ATOM     16  C   UNL     1     113.016 128.382 136.427  0.00  0.00    +0.000 A 
ATOM     17  C   UNL     1     111.611 128.353 136.694  0.00  0.00    +0.000 A 
ATOM     18  C   UNL     1     112.865 128.664 135.667  0.00  0.00    +0.000 A 
ATOM     19  C   UNL     1     111.462 128.636 135.933  0.00  0.00    +0.000 A 
ATOM     20  C   UNL     1     112.088 128.791 135.420  0.00  0.00    +0.000 A 
BRANCH  18  21
ATOM     21  O   UNL     1     113.493 128.820 135.154  0.00  0.00    +0.000 OA
BRANCH  21  22
ATOM     22  S   UNL     1     114.182 129.171 135.439  0.00  0.00    +0.000 S 
ATOM     23  O   UNL     1     114.872 129.522 135.725  0.00  0.00    +0.000 OA
ATOM     24  O   UNL     1     114.557 128.436 135.438  0.00  0.00    +0.000 OA
ATOM     25  O   UNL     1     113.808 129.906 135.441  0.00  0.00    +0.000 OA
ENDBRANCH  21  22
ENDBRANCH  18  21
ENDBRANCH   6  15
BRANCH   5  26
ATOM     26  O   UNL     1     111.988 126.675 137.338  0.00  0.00    +0.000 OA
BRANCH  26  34
ATOM     27  O   UNL     1     113.175 125.917 137.095  0.00  0.00    +0.000 OA
ATOM     28  O   UNL     1     111.797 123.932 136.559  0.00  0.00    +0.000 OA
ATOM     29  O   UNL     1     111.070 125.352 136.981  0.00  0.00    +0.000 OA
ATOM     30  O   UNL     1     113.442 123.837 136.495  0.00  0.00    +0.000 OA
ATOM     31  C   UNL     1     112.256 124.594 136.738  0.00  0.00    +0.000 C 
ATOM     32  C   UNL     1     111.892 125.304 136.949  0.00  0.00    +0.000 C 
ATOM     33  C   UNL     1     113.079 124.547 136.705  0.00  0.00    +0.000 C 
ATOM     34  C   UNL     1     112.352 125.966 137.127  0.00  0.00    +0.000 C 
ATOM     35  C   UNL     1     113.538 125.208 136.884  0.00  0.00    +0.000 C 
BRANCH  35  38
ATOM     36  O   UNL     1     114.762 125.392 136.169  0.00  0.00    +0.000 OA
ATOM     37  O   UNL     1     114.783 124.880 137.503  0.00  0.00    +0.000 OA
ATOM     38  C   UNL     1     114.361 125.160 136.852  0.00  0.00    +0.000 C 
ENDBRANCH  35  38
ENDBRANCH  26  34
ENDBRANCH   5  26
TORSDOF 6
ENDMDL
MODEL 8
REMARK VINA RESULT:      -9.3      9.910     12.254
REMARK  Name = 44259321
REMARK  6 active torsions:
REMARK  status: ('A' for Active; 'I' for Inactive)
REMARK    1  A    between atoms: S_1  and  O_12
REMARK    2  A    between atoms: O_3  and  C_21
REMARK    3  A    between atoms: O_3  and  C_24
REMARK    4  A    between atoms: O_12  and  C_36
REMARK    5  A    between atoms: C_22  and  C_23
REMARK    6  A    between atoms: C_25  and  C_29
REMARK                            x       y       z     vdW  Elec       q    Type
REMARK                         _______ _______ _______ _____ _____    ______ ____
ROOT
ATOM      1  O   UNL     1     112.425 128.384 138.278  0.00  0.00    +0.000 OA
ATOM      2  O   UNL     1     111.963 127.005 136.275  0.00  0.00    +0.000 OA
ATOM      3  O   UNL     1     112.287 128.109 135.405  0.00  0.00    +0.000 OA
ATOM      4  O   UNL     1     113.093 130.657 136.584  0.00  0.00    +0.000 OA
ATOM      5  C   UNL     1     112.031 127.139 137.696  0.00  0.00    +0.000 A 
ATOM      6  C   UNL     1     112.185 127.599 138.364  0.00  0.00    +0.000 A 
ATOM      7  C   UNL     1     112.117 127.465 136.943  0.00  0.00    +0.000 A 
ATOM      8  C   UNL     1     112.357 128.249 136.857  0.00  0.00    +0.000 A 
ATOM      9  C   UNL     1     112.511 128.708 137.524  0.00  0.00    +0.000 A 
ATOM     10  C   UNL     1     112.443 128.576 136.067  0.00  0.00    +0.000 A 
ATOM     11  C   UNL     1     112.762 129.527 137.449  0.00  0.00    +0.000 A 
ATOM     12  C   UNL     1     112.693 129.393 135.972  0.00  0.00    +0.000 A 
ATOM     13  C   UNL     1     112.853 129.872 136.667  0.00  0.00    +0.000 A 
ENDROOT
BRANCH   6  15
ATOM     14  O   UNL     1     111.844 126.297 141.377  0.00  0.00    +0.000 OA
ATOM     15  C   UNL     1     112.099 127.274 139.117  0.00  0.00    +0.000 A 
ATOM     16  C   UNL     1     112.764 127.149 139.591  0.00  0.00    +0.000 A 
ATOM     17  C   UNL     1     111.350 127.073 139.397  0.00  0.00    +0.000 A 
ATOM     18  C   UNL     1     112.678 126.823 140.344  0.00  0.00    +0.000 A 
ATOM     19  C   UNL     1     111.265 126.747 140.150  0.00  0.00    +0.000 A 
ATOM     20  C   UNL     1     111.928 126.622 140.623  0.00  0.00    +0.000 A 
BRANCH  18  21
ATOM     21  O   UNL     1     113.343 126.699 140.817  0.00  0.00    +0.000 OA
BRANCH  21  22
ATOM     22  S   UNL     1     113.966 127.239 140.805  0.00  0.00    +0.000 S 
ATOM     23  O   UNL     1     114.589 127.780 140.792  0.00  0.00    +0.000 OA
ATOM     24  O   UNL     1     114.396 126.733 140.315  0.00  0.00    +0.000 OA
ATOM     25  O   UNL     1     113.536 127.746 141.294  0.00  0.00    +0.000 OA
ENDBRANCH  21  22
ENDBRANCH  18  21
ENDBRANCH   6  15
BRANCH   5  26
ATOM     26  O   UNL     1     111.791 126.354 137.782  0.00  0.00    +0.000 OA
BRANCH  26  34
ATOM     27  O   UNL     1     113.058 125.795 137.429  0.00  0.00    +0.000 OA
ATOM     28  O   UNL     1     111.917 123.834 136.441  0.00  0.00    +0.000 OA
ATOM     29  O   UNL     1     111.031 125.047 137.123  0.00  0.00    +0.000 OA
ATOM     30  O   UNL     1     113.563 123.929 136.418  0.00  0.00    +0.000 OA
ATOM     31  C   UNL     1     112.297 124.487 136.770  0.00  0.00    +0.000 C 
ATOM     32  C   UNL     1     111.854 125.095 137.112  0.00  0.00    +0.000 C 
ATOM     33  C   UNL     1     113.121 124.535 136.759  0.00  0.00    +0.000 C 
ATOM     34  C   UNL     1     112.234 125.748 137.441  0.00  0.00    +0.000 C 
ATOM     35  C   UNL     1     113.501 125.189 137.088  0.00  0.00    +0.000 C 
BRANCH  35  38
ATOM     36  O   UNL     1     114.711 125.541 136.414  0.00  0.00    +0.000 OA
ATOM     37  O   UNL     1     114.761 124.979 137.727  0.00  0.00    +0.000 OA
ATOM     38  C   UNL     1     114.324 125.237 137.076  0.00  0.00    +0.000 C 
ENDBRANCH  35  38
ENDBRANCH  26  34
ENDBRANCH   5  26
TORSDOF 6
ENDMDL
MODEL 9
REMARK VINA RESULT:      -9.2      9.202     11.243
REMARK  Name = 44259321
REMARK  6 active torsions:
REMARK  status: ('A' for Active; 'I' for Inactive)
REMARK    1  A    between atoms: S_1  and  O_12
REMARK    2  A    between atoms: O_3  and  C_21
REMARK    3  A    between atoms: O_3  and  C_24
REMARK    4  A    between atoms: O_12  and  C_36
REMARK    5  A    between atoms: C_22  and  C_23
REMARK    6  A    between atoms: C_25  and  C_29
REMARK                            x       y       z     vdW  Elec       q    Type
REMARK                         _______ _______ _______ _____ _____    ______ ____
ROOT
ATOM      1  O   UNL     1     112.345 125.578 138.330  0.00  0.00    +0.000 OA
ATOM      2  O   UNL     1     112.068 127.086 136.386  0.00  0.00    +0.000 OA
ATOM      3  O   UNL     1     111.720 125.973 135.536  0.00  0.00    +0.000 OA
ATOM      4  O   UNL     1     111.652 123.284 136.675  0.00  0.00    +0.000 OA
ATOM      5  C   UNL     1     112.377 126.892 137.768  0.00  0.00    +0.000 A 
ATOM      6  C   UNL     1     112.470 126.389 138.416  0.00  0.00    +0.000 A 
ATOM      7  C   UNL     1     112.160 126.583 137.034  0.00  0.00    +0.000 A 
ATOM      8  C   UNL     1     112.036 125.772 136.948  0.00  0.00    +0.000 A 
ATOM      9  C   UNL     1     112.128 125.270 137.596  0.00  0.00    +0.000 A 
ATOM     10  C   UNL     1     111.810 125.463 136.179  0.00  0.00    +0.000 A 
ATOM     11  C   UNL     1     112.002 124.424 137.520  0.00  0.00    +0.000 A 
ATOM     12  C   UNL     1     111.679 124.619 136.083  0.00  0.00    +0.000 A 
ATOM     13  C   UNL     1     111.775 124.096 136.758  0.00  0.00    +0.000 A 
ENDROOT
BRANCH   6  15
ATOM     14  O   UNL     1     113.335 127.625 141.351  0.00  0.00    +0.000 OA
ATOM     15  C   UNL     1     112.687 126.698 139.149  0.00  0.00    +0.000 A 
ATOM     16  C   UNL     1     112.130 126.746 139.757  0.00  0.00    +0.000 A 
ATOM     17  C   UNL     1     113.459 126.959 139.276  0.00  0.00    +0.000 A 
ATOM     18  C   UNL     1     112.347 127.055 140.491  0.00  0.00    +0.000 A 
ATOM     19  C   UNL     1     113.675 127.268 140.010  0.00  0.00    +0.000 A 
ATOM     20  C   UNL     1     113.119 127.316 140.617  0.00  0.00    +0.000 A 
BRANCH  18  21
ATOM     21  O   UNL     1     111.790 127.103 141.099  0.00  0.00    +0.000 OA
BRANCH  21  22
ATOM     22  S   UNL     1     111.195 126.535 141.159  0.00  0.00    +0.000 S 
ATOM     23  O   UNL     1     110.600 125.967 141.219  0.00  0.00    +0.000 OA
ATOM     24  O   UNL     1     110.651 127.073 140.850  0.00  0.00    +0.000 OA
ATOM     25  O   UNL     1     111.739 125.998 141.468  0.00  0.00    +0.000 OA
ENDBRANCH  21  22
ENDBRANCH  18  21
ENDBRANCH   6  15
BRANCH   5  26
ATOM     26  O   UNL     1     112.502 127.703 137.854  0.00  0.00    +0.000 OA
BRANCH  26  34
ATOM     27  O   UNL     1     111.115 128.047 137.825  0.00  0.00    +0.000 OA
ATOM     28  O   UNL     1     111.673 130.208 136.755  0.00  0.00    +0.000 OA
ATOM     29  O   UNL     1     112.874 129.144 137.141  0.00  0.00    +0.000 OA
ATOM     30  O   UNL     1     110.102 129.832 137.083  0.00  0.00    +0.000 OA
ATOM     31  C   UNL     1     111.487 129.488 137.112  0.00  0.00    +0.000 C 
ATOM     32  C   UNL     1     112.088 128.955 137.305  0.00  0.00    +0.000 C 
ATOM     33  C   UNL     1     110.701 129.299 137.276  0.00  0.00    +0.000 C 
ATOM     34  C   UNL     1     111.902 128.235 137.661  0.00  0.00    +0.000 C 
ATOM     35  C   UNL     1     110.515 128.579 137.632  0.00  0.00    +0.000 C 
BRANCH  35  38
ATOM     36  O   UNL     1     109.263 128.026 137.221  0.00  0.00    +0.000 OA
ATOM     37  O   UNL     1     109.408 128.568 138.535  0.00  0.00    +0.000 OA
ATOM     38  C   UNL     1     109.729 128.391 137.796  0.00  0.00    +0.000 C 
ENDBRANCH  35  38
ENDBRANCH  26  34
ENDBRANCH   5  26
TORSDOF 6
ENDMDL
MODEL 10
REMARK VINA RESULT:      -9.1     10.339     12.431
REMARK  Name = 44259321
REMARK  6 active torsions:
REMARK  status: ('A' for Active; 'I' for Inactive)
REMARK    1  A    between atoms: S_1  and  O_12
REMARK    2  A    between atoms: O_3  and  C_21
REMARK    3  A    between atoms: O_3  and  C_24
REMARK    4  A    between atoms: O_12  and  C_36
REMARK    5  A    between atoms: C_22  and  C_23
REMARK    6  A    between atoms: C_25  and  C_29
REMARK                            x       y       z     vdW  Elec       q    Type
REMARK                         _______ _______ _______ _____ _____    ______ ____
ROOT
ATOM      1  O   UNL     1     113.070 126.254 138.746  0.00  0.00    +0.000 OA
ATOM      2  O   UNL     1     112.971 128.625 138.043  0.00  0.00    +0.000 OA
ATOM      3  O   UNL     1     112.484 129.020 139.342  0.00  0.00    +0.000 OA
ATOM      4  O   UNL     1     112.089 126.976 141.391  0.00  0.00    +0.000 OA
ATOM      5  C   UNL     1     113.262 127.258 137.747  0.00  0.00    +0.000 A 
ATOM      6  C   UNL     1     113.295 126.467 137.982  0.00  0.00    +0.000 A 
ATOM      7  C   UNL     1     113.004 127.834 138.278  0.00  0.00    +0.000 A 
ATOM      8  C   UNL     1     112.780 127.621 139.042  0.00  0.00    +0.000 A 
ATOM      9  C   UNL     1     112.813 126.831 139.276  0.00  0.00    +0.000 A 
ATOM     10  C   UNL     1     112.514 128.232 139.586  0.00  0.00    +0.000 A 
ATOM     11  C   UNL     1     112.582 126.596 140.070  0.00  0.00    +0.000 A 
ATOM     12  C   UNL     1     112.279 128.015 140.383  0.00  0.00    +0.000 A 
ATOM     13  C   UNL     1     112.313 127.192 140.627  0.00  0.00    +0.000 A 
ENDROOT
BRANCH   6  15
ATOM     14  O   UNL     1     114.322 124.159 135.858  0.00  0.00    +0.000 OA
ATOM     15  C   UNL     1     113.552 125.890 137.451  0.00  0.00    +0.000 A 
ATOM     16  C   UNL     1     113.017 125.339 137.150  0.00  0.00    +0.000 A 
ATOM     17  C   UNL     1     114.344 125.865 137.221  0.00  0.00    +0.000 A 
ATOM     18  C   UNL     1     113.274 124.762 136.619  0.00  0.00    +0.000 A 
ATOM     19  C   UNL     1     114.600 125.288 136.689  0.00  0.00    +0.000 A 
ATOM     20  C   UNL     1     114.066 124.737 136.389  0.00  0.00    +0.000 A 
BRANCH  18  21
ATOM     21  O   UNL     1     112.739 124.210 136.318  0.00  0.00    +0.000 OA
BRANCH  21  22
ATOM     22  S   UNL     1     112.158 123.889 136.808  0.00  0.00    +0.000 S 
ATOM     23  O   UNL     1     111.577 123.568 137.298  0.00  0.00    +0.000 OA
ATOM     24  O   UNL     1     111.597 124.393 136.473  0.00  0.00    +0.000 OA
ATOM     25  O   UNL     1     112.719 123.386 137.144  0.00  0.00    +0.000 OA
ENDBRANCH  21  22
ENDBRANCH  18  21
ENDBRANCH   6  15
BRANCH   5  26
ATOM     26  O   UNL     1     113.486 127.471 136.982  0.00  0.00    +0.000 OA
BRANCH  26  34
ATOM     27  O   UNL     1     112.149 127.643 136.510  0.00  0.00    +0.000 OA
ATOM     28  O   UNL     1     112.928 129.391 134.940  0.00  0.00    +0.000 OA
ATOM     29  O   UNL     1     114.006 128.636 135.936  0.00  0.00    +0.000 OA
ATOM     30  O   UNL     1     111.332 128.980 134.991  0.00  0.00    +0.000 OA
ATOM     31  C   UNL     1     112.668 128.808 135.463  0.00  0.00    +0.000 C 
ATOM     32  C   UNL     1     113.208 128.430 135.961  0.00  0.00    +0.000 C 
ATOM     33  C   UNL     1     111.870 128.603 135.489  0.00  0.00    +0.000 C 
ATOM     34  C   UNL     1     112.948 127.848 136.485  0.00  0.00    +0.000 C 
ATOM     35  C   UNL     1     111.610 128.020 136.012  0.00  0.00    +0.000 C 
BRANCH  35  38
ATOM     36  O   UNL     1     110.532 127.188 135.581  0.00  0.00    +0.000 OA
ATOM     37  O   UNL     1     110.293 128.238 136.520  0.00  0.00    +0.000 OA
ATOM     38  C   UNL     1     110.812 127.815 136.038  0.00  0.00    +0.000 C 
ENDBRANCH  35  38
ENDBRANCH  26  34
ENDBRANCH   5  26
TORSDOF 6
ENDMDL
