MODEL 1
REMARK VINA RESULT:     -11.2      0.000      0.000
REMARK  Name = 13644660
REMARK  4 active torsions:
REMARK  status: ('A' for Active; 'I' for Inactive)
REMARK    1  A    between atoms: C_15  and  C_20
REMARK    2  A    between atoms: C_19  and  C_28
REMARK    3  A    between atoms: C_21  and  C_23
REMARK    4  A    between atoms: C_33  and  C_35
REMARK                            x       y       z     vdW  Elec       q    Type
REMARK                         _______ _______ _______ _____ _____    ______ ____
ROOT
ATOM      1  O   UNL     1     110.585 127.379 136.204  0.00  0.00    +0.000 OA
ATOM      2  O   UNL     1     110.470 130.250 135.987  0.00  0.00    +0.000 OA
ATOM      3  O   UNL     1     108.056 128.731 135.809  0.00  0.00    +0.000 OA
ATOM      4  O   UNL     1     108.071 127.291 135.913  0.00  0.00    +0.000 OA
ATOM      5  C   UNL     1     110.513 128.826 136.093  0.00  0.00    +0.000 A 
ATOM      6  C   UNL     1     109.263 129.490 135.898  0.00  0.00    +0.000 A 
ATOM      7  C   UNL     1     110.082 129.521 135.993  0.00  0.00    +0.000 A 
ATOM      8  C   UNL     1     110.125 128.097 136.099  0.00  0.00    +0.000 A 
ATOM      9  C   UNL     1     108.875 128.762 135.904  0.00  0.00    +0.000 A 
ATOM     10  C   UNL     1     109.306 128.066 136.004  0.00  0.00    +0.000 A 
ATOM     11  C   UNL     1     108.890 127.314 136.008  0.00  0.00    +0.000 A 
ATOM     12  C   UNL     1     110.186 126.618 136.211  0.00  0.00    +0.000 A 
ATOM     13  C   UNL     1     109.333 126.585 136.113  0.00  0.00    +0.000 A 
ENDROOT
BRANCH   5  18
ATOM     14  O   UNL     1     111.660 128.855 136.945  0.00  0.00    +0.000 OA
ATOM     15  O   UNL     1     111.494 128.893 134.768  0.00  0.00    +0.000 OA
ATOM     16  O   UNL     1     113.132 128.956 134.958  0.00  0.00    +0.000 OA
ATOM     17  O   UNL     1     113.788 128.952 136.472  0.00  0.00    +0.000 OA
ATOM     18  C   UNL     1     111.332 128.857 136.188  0.00  0.00    +0.000 C 
ATOM     19  C   UNL     1     111.823 128.891 135.526  0.00  0.00    +0.000 C 
ATOM     20  C   UNL     1     112.642 128.922 135.621  0.00  0.00    +0.000 C 
ATOM     21  C   UNL     1     112.969 128.920 136.377  0.00  0.00    +0.000 C 
ATOM     22  C   UNL     1     112.479 128.887 137.040  0.00  0.00    +0.000 C 
BRANCH  22  24
ATOM     23  O   UNL     1     112.321 128.985 138.456  0.00  0.00    +0.000 OA
ATOM     24  C   UNL     1     112.807 128.885 137.796  0.00  0.00    +0.000 C 
ENDBRANCH  22  24
ENDBRANCH   5  18
BRANCH   6  29
ATOM     25  O   UNL     1     108.728 130.501 135.042  0.00  0.00    +0.000 OA
ATOM     26  O   UNL     1     108.611 130.253 137.207  0.00  0.00    +0.000 OA
ATOM     27  O   UNL     1     107.749 131.646 137.006  0.00  0.00    +0.000 OA
ATOM     28  O   UNL     1     107.540 132.275 135.495  0.00  0.00    +0.000 OA
ATOM     29  C   UNL     1     108.832 130.187 135.797  0.00  0.00    +0.000 C 
ATOM     30  C   UNL     1     108.506 130.568 136.452  0.00  0.00    +0.000 C 
ATOM     31  C   UNL     1     108.075 131.264 136.351  0.00  0.00    +0.000 C 
ATOM     32  C   UNL     1     107.971 131.579 135.596  0.00  0.00    +0.000 C 
ATOM     33  C   UNL     1     108.297 131.197 134.942  0.00  0.00    +0.000 C 
ENDBRANCH   6  29
BRANCH  12  35
ATOM     34  O   UNL     1     111.919 123.839 136.616  0.00  0.00    +0.000 OA
ATOM     35  C   UNL     1     110.619 125.923 136.312  0.00  0.00    +0.000 A 
ATOM     36  C   UNL     1     110.862 125.488 135.654  0.00  0.00    +0.000 A 
ATOM     37  C   UNL     1     110.810 125.662 137.071  0.00  0.00    +0.000 A 
ATOM     38  C   UNL     1     111.295 124.793 135.755  0.00  0.00    +0.000 A 
ATOM     39  C   UNL     1     111.243 124.968 137.172  0.00  0.00    +0.000 A 
ATOM     40  C   UNL     1     111.486 124.533 136.514  0.00  0.00    +0.000 A 
ENDBRANCH  12  35
TORSDOF 4
ENDMDL
MODEL 2
REMARK VINA RESULT:     -10.9      2.659      5.099
REMARK  Name = 13644660
REMARK  4 active torsions:
REMARK  status: ('A' for Active; 'I' for Inactive)
REMARK    1  A    between atoms: C_15  and  C_20
REMARK    2  A    between atoms: C_19  and  C_28
REMARK    3  A    between atoms: C_21  and  C_23
REMARK    4  A    between atoms: C_33  and  C_35
REMARK                            x       y       z     vdW  Elec       q    Type
REMARK                         _______ _______ _______ _____ _____    ______ ____
ROOT
ATOM      1  O   UNL     1     113.295 127.335 138.351  0.00  0.00    +0.000 OA
ATOM      2  O   UNL     1     112.870 130.088 139.086  0.00  0.00    +0.000 OA
ATOM      3  O   UNL     1     113.868 128.253 141.036  0.00  0.00    +0.000 OA
ATOM      4  O   UNL     1     114.095 126.866 140.707  0.00  0.00    +0.000 OA
ATOM      5  C   UNL     1     113.085 128.720 138.735  0.00  0.00    +0.000 A 
ATOM      6  C   UNL     1     113.369 129.170 140.060  0.00  0.00    +0.000 A 
ATOM      7  C   UNL     1     113.108 129.326 139.293  0.00  0.00    +0.000 A 
ATOM      8  C   UNL     1     113.323 127.957 138.942  0.00  0.00    +0.000 A 
ATOM      9  C   UNL     1     113.607 128.409 140.269  0.00  0.00    +0.000 A 
ATOM     10  C   UNL     1     113.584 127.802 139.709  0.00  0.00    +0.000 A 
ATOM     11  C   UNL     1     113.835 127.013 139.938  0.00  0.00    +0.000 A 
ATOM     12  C   UNL     1     113.542 126.539 138.562  0.00  0.00    +0.000 A 
ATOM     13  C   UNL     1     113.814 126.377 139.360  0.00  0.00    +0.000 A 
ENDROOT
BRANCH   5  18
ATOM     14  O   UNL     1     113.371 129.028 137.368  0.00  0.00    +0.000 OA
ATOM     15  O   UNL     1     111.470 128.725 138.398  0.00  0.00    +0.000 OA
ATOM     16  O   UNL     1     110.948 129.037 136.864  0.00  0.00    +0.000 OA
ATOM     17  O   UNL     1     112.041 129.342 135.667  0.00  0.00    +0.000 OA
ATOM     18  C   UNL     1     112.824 128.875 137.968  0.00  0.00    +0.000 C 
ATOM     19  C   UNL     1     112.017 128.878 137.799  0.00  0.00    +0.000 C 
ATOM     20  C   UNL     1     111.756 129.034 137.032  0.00  0.00    +0.000 C 
ATOM     21  C   UNL     1     112.302 129.187 136.434  0.00  0.00    +0.000 C 
ATOM     22  C   UNL     1     113.110 129.184 136.601  0.00  0.00    +0.000 C 
BRANCH  22  24
ATOM     23  O   UNL     1     114.384 129.680 136.187  0.00  0.00    +0.000 OA
ATOM     24  C   UNL     1     113.656 129.337 136.003  0.00  0.00    +0.000 C 
ENDBRANCH  22  24
ENDBRANCH   5  18
BRANCH   6  29
ATOM     25  O   UNL     1     112.745 129.904 141.116  0.00  0.00    +0.000 OA
ATOM     26  O   UNL     1     114.707 130.128 140.185  0.00  0.00    +0.000 OA
ATOM     27  O   UNL     1     114.752 131.340 141.303  0.00  0.00    +0.000 OA
ATOM     28  O   UNL     1     113.460 131.595 142.296  0.00  0.00    +0.000 OA
ATOM     29  C   UNL     1     113.392 129.777 140.619  0.00  0.00    +0.000 C 
ATOM     30  C   UNL     1     114.061 130.256 140.682  0.00  0.00    +0.000 C 
ATOM     31  C   UNL     1     114.083 130.861 141.241  0.00  0.00    +0.000 C 
ATOM     32  C   UNL     1     113.438 130.989 141.737  0.00  0.00    +0.000 C 
ATOM     33  C   UNL     1     112.769 130.510 141.675  0.00  0.00    +0.000 C 
ENDBRANCH   6  29
BRANCH  12  35
ATOM     34  O   UNL     1     113.448 124.121 136.318  0.00  0.00    +0.000 OA
ATOM     35  C   UNL     1     113.518 125.934 138.001  0.00  0.00    +0.000 A 
ATOM     36  C   UNL     1     112.814 125.527 137.863  0.00  0.00    +0.000 A 
ATOM     37  C   UNL     1     114.198 125.737 137.578  0.00  0.00    +0.000 A 
ATOM     38  C   UNL     1     112.791 124.922 137.301  0.00  0.00    +0.000 A 
ATOM     39  C   UNL     1     114.175 125.133 137.017  0.00  0.00    +0.000 A 
ATOM     40  C   UNL     1     113.471 124.725 136.878  0.00  0.00    +0.000 A 
ENDBRANCH  12  35
TORSDOF 4
ENDMDL
MODEL 3
REMARK VINA RESULT:     -10.6      1.243      1.875
REMARK  Name = 13644660
REMARK  4 active torsions:
REMARK  status: ('A' for Active; 'I' for Inactive)
REMARK    1  A    between atoms: C_15  and  C_20
REMARK    2  A    between atoms: C_19  and  C_28
REMARK    3  A    between atoms: C_21  and  C_23
REMARK    4  A    between atoms: C_33  and  C_35
REMARK                            x       y       z     vdW  Elec       q    Type
REMARK                         _______ _______ _______ _____ _____    ______ ____
ROOT
ATOM      1  O   UNL     1     111.466 126.571 136.649  0.00  0.00    +0.000 OA
ATOM      2  O   UNL     1     110.677 129.324 136.965  0.00  0.00    +0.000 OA
ATOM      3  O   UNL     1     109.598 127.792 134.807  0.00  0.00    +0.000 OA
ATOM      4  O   UNL     1     109.968 126.410 134.614  0.00  0.00    +0.000 OA
ATOM      5  C   UNL     1     111.060 127.957 136.797  0.00  0.00    +0.000 A 
ATOM      6  C   UNL     1     110.138 128.557 135.886  0.00  0.00    +0.000 A 
ATOM      7  C   UNL     1     110.625 128.612 136.549  0.00  0.00    +0.000 A 
ATOM      8  C   UNL     1     111.008 127.246 136.381  0.00  0.00    +0.000 A 
ATOM      9  C   UNL     1     110.085 127.847 135.470  0.00  0.00    +0.000 A 
ATOM     10  C   UNL     1     110.521 127.191 135.718  0.00  0.00    +0.000 A 
ATOM     11  C   UNL     1     110.458 126.457 135.277  0.00  0.00    +0.000 A 
ATOM     12  C   UNL     1     111.416 125.827 136.220  0.00  0.00    +0.000 A 
ATOM     13  C   UNL     1     110.909 125.770 135.530  0.00  0.00    +0.000 A 
ENDROOT
BRANCH   5  18
ATOM     14  O   UNL     1     111.274 127.755 138.196  0.00  0.00    +0.000 OA
ATOM     15  O   UNL     1     112.581 128.581 136.654  0.00  0.00    +0.000 OA
ATOM     16  O   UNL     1     113.555 128.692 137.981  0.00  0.00    +0.000 OA
ATOM     17  O   UNL     1     113.009 128.177 139.450  0.00  0.00    +0.000 OA
ATOM     18  C   UNL     1     111.547 128.012 137.460  0.00  0.00    +0.000 C 
ATOM     19  C   UNL     1     112.308 128.324 137.389  0.00  0.00    +0.000 C 
ATOM     20  C   UNL     1     112.795 128.379 138.053  0.00  0.00    +0.000 C 
ATOM     21  C   UNL     1     112.522 128.122 138.787  0.00  0.00    +0.000 C 
ATOM     22  C   UNL     1     111.762 127.810 138.859  0.00  0.00    +0.000 C 
BRANCH  22  24
ATOM     23  O   UNL     1     110.680 127.561 139.759  0.00  0.00    +0.000 OA
ATOM     24  C   UNL     1     111.489 127.553 139.593  0.00  0.00    +0.000 C 
ENDBRANCH  22  24
ENDBRANCH   5  18
BRANCH   6  29
ATOM     25  O   UNL     1     110.022 129.734 135.084  0.00  0.00    +0.000 OA
ATOM     26  O   UNL     1     108.630 128.826 136.498  0.00  0.00    +0.000 OA
ATOM     27  O   UNL     1     107.759 130.137 136.002  0.00  0.00    +0.000 OA
ATOM     28  O   UNL     1     108.397 131.180 134.894  0.00  0.00    +0.000 OA
ATOM     29  C   UNL     1     109.702 129.213 135.638  0.00  0.00    +0.000 C 
ATOM     30  C   UNL     1     108.948 129.348 135.944  0.00  0.00    +0.000 C 
ATOM     31  C   UNL     1     108.513 130.003 135.696  0.00  0.00    +0.000 C 
ATOM     32  C   UNL     1     108.832 130.524 135.143  0.00  0.00    +0.000 C 
ATOM     33  C   UNL     1     109.586 130.390 134.836  0.00  0.00    +0.000 C 
ENDBRANCH   6  29
BRANCH  12  35
ATOM     34  O   UNL     1     113.162 123.212 137.219  0.00  0.00    +0.000 OA
ATOM     35  C   UNL     1     111.853 125.173 136.470  0.00  0.00    +0.000 A 
ATOM     36  C   UNL     1     111.501 124.602 136.951  0.00  0.00    +0.000 A 
ATOM     37  C   UNL     1     112.640 125.090 136.239  0.00  0.00    +0.000 A 
ATOM     38  C   UNL     1     111.939 123.948 137.201  0.00  0.00    +0.000 A 
ATOM     39  C   UNL     1     113.076 124.437 136.489  0.00  0.00    +0.000 A 
ATOM     40  C   UNL     1     112.726 123.865 136.970  0.00  0.00    +0.000 A 
ENDBRANCH  12  35
TORSDOF 4
ENDMDL
MODEL 4
REMARK VINA RESULT:     -10.5      2.743      5.903
REMARK  Name = 13644660
REMARK  4 active torsions:
REMARK  status: ('A' for Active; 'I' for Inactive)
REMARK    1  A    between atoms: C_15  and  C_20
REMARK    2  A    between atoms: C_19  and  C_28
REMARK    3  A    between atoms: C_21  and  C_23
REMARK    4  A    between atoms: C_33  and  C_35
REMARK                            x       y       z     vdW  Elec       q    Type
REMARK                         _______ _______ _______ _____ _____    ______ ____
ROOT
ATOM      1  O   UNL     1     113.408 128.872 139.322  0.00  0.00    +0.000 OA
ATOM      2  O   UNL     1     112.216 127.498 137.088  0.00  0.00    +0.000 OA
ATOM      3  O   UNL     1     113.190 125.986 139.309  0.00  0.00    +0.000 OA
ATOM      4  O   UNL     1     113.793 126.637 140.447  0.00  0.00    +0.000 OA
ATOM      5  C   UNL     1     112.809 128.167 138.202  0.00  0.00    +0.000 A 
ATOM      6  C   UNL     1     112.703 126.743 138.198  0.00  0.00    +0.000 A 
ATOM      7  C   UNL     1     112.576 127.470 137.830  0.00  0.00    +0.000 A 
ATOM      8  C   UNL     1     113.169 128.139 138.944  0.00  0.00    +0.000 A 
ATOM      9  C   UNL     1     113.063 126.713 138.940  0.00  0.00    +0.000 A 
ATOM     10  C   UNL     1     113.296 127.412 139.313  0.00  0.00    +0.000 A 
ATOM     11  C   UNL     1     113.670 127.368 140.085  0.00  0.00    +0.000 A 
ATOM     12  C   UNL     1     113.783 128.849 140.095  0.00  0.00    +0.000 A 
ATOM     13  C   UNL     1     113.915 128.092 140.479  0.00  0.00    +0.000 A 
ENDROOT
BRANCH   5  18
ATOM     14  O   UNL     1     113.286 129.244 137.391  0.00  0.00    +0.000 OA
ATOM     15  O   UNL     1     111.350 128.923 138.348  0.00  0.00    +0.000 OA
ATOM     16  O   UNL     1     111.096 130.377 137.610  0.00  0.00    +0.000 OA
ATOM     17  O   UNL     1     112.302 131.075 136.727  0.00  0.00    +0.000 OA
ATOM     18  C   UNL     1     112.683 128.894 137.833  0.00  0.00    +0.000 C 
ATOM     19  C   UNL     1     111.953 129.272 137.906  0.00  0.00    +0.000 C 
ATOM     20  C   UNL     1     111.826 129.999 137.537  0.00  0.00    +0.000 C 
ATOM     21  C   UNL     1     112.429 130.348 137.096  0.00  0.00    +0.000 C 
ATOM     22  C   UNL     1     113.159 129.971 137.023  0.00  0.00    +0.000 C 
BRANCH  22  24
ATOM     23  O   UNL     1     114.369 129.854 136.272  0.00  0.00    +0.000 OA
ATOM     24  C   UNL     1     113.762 130.319 136.581  0.00  0.00    +0.000 C 
ENDBRANCH  22  24
ENDBRANCH   5  18
BRANCH   6  29
ATOM     25  O   UNL     1     111.720 125.732 137.968  0.00  0.00    +0.000 OA
ATOM     26  O   UNL     1     113.736 125.973 137.168  0.00  0.00    +0.000 OA
ATOM     27  O   UNL     1     113.269 124.577 136.422  0.00  0.00    +0.000 OA
ATOM     28  O   UNL     1     111.770 123.950 136.708  0.00  0.00    +0.000 OA
ATOM     29  C   UNL     1     112.470 126.044 137.825  0.00  0.00    +0.000 C 
ATOM     30  C   UNL     1     112.986 125.659 137.310  0.00  0.00    +0.000 C 
ATOM     31  C   UNL     1     112.753 124.962 136.938  0.00  0.00    +0.000 C 
ATOM     32  C   UNL     1     112.004 124.649 137.080  0.00  0.00    +0.000 C 
ATOM     33  C   UNL     1     111.487 125.034 137.596  0.00  0.00    +0.000 C 
ENDBRANCH   6  29
BRANCH  12  35
ATOM     34  O   UNL     1     114.714 131.647 141.577  0.00  0.00    +0.000 OA
ATOM     35  C   UNL     1     114.016 129.549 140.466  0.00  0.00    +0.000 A 
ATOM     36  C   UNL     1     113.513 129.914 141.008  0.00  0.00    +0.000 A 
ATOM     37  C   UNL     1     114.750 129.882 140.294  0.00  0.00    +0.000 A 
ATOM     38  C   UNL     1     113.746 130.614 141.379  0.00  0.00    +0.000 A 
ATOM     39  C   UNL     1     114.983 130.581 140.664  0.00  0.00    +0.000 A 
ATOM     40  C   UNL     1     114.481 130.948 141.207  0.00  0.00    +0.000 A 
ENDBRANCH  12  35
TORSDOF 4
ENDMDL
MODEL 5
REMARK VINA RESULT:     -10.5      1.569      2.250
REMARK  Name = 13644660
REMARK  4 active torsions:
REMARK  status: ('A' for Active; 'I' for Inactive)
REMARK    1  A    between atoms: C_15  and  C_20
REMARK    2  A    between atoms: C_19  and  C_28
REMARK    3  A    between atoms: C_21  and  C_23
REMARK    4  A    between atoms: C_33  and  C_35
REMARK                            x       y       z     vdW  Elec       q    Type
REMARK                         _______ _______ _______ _____ _____    ______ ____
ROOT
ATOM      1  O   UNL     1     112.402 127.349 136.881  0.00  0.00    +0.000 OA
ATOM      2  O   UNL     1     110.952 129.830 137.094  0.00  0.00    +0.000 OA
ATOM      3  O   UNL     1     110.192 127.925 135.103  0.00  0.00    +0.000 OA
ATOM      4  O   UNL     1     110.893 126.671 134.965  0.00  0.00    +0.000 OA
ATOM      5  C   UNL     1     111.663 128.596 136.977  0.00  0.00    +0.000 A 
ATOM      6  C   UNL     1     110.573 128.877 136.099  0.00  0.00    +0.000 A 
ATOM      7  C   UNL     1     111.063 129.101 136.723  0.00  0.00    +0.000 A 
ATOM      8  C   UNL     1     111.774 127.866 136.607  0.00  0.00    +0.000 A 
ATOM      9  C   UNL     1     110.683 128.149 135.728  0.00  0.00    +0.000 A 
ATOM     10  C   UNL     1     111.284 127.643 135.983  0.00  0.00    +0.000 A 
ATOM     11  C   UNL     1     111.388 126.887 135.589  0.00  0.00    +0.000 A 
ATOM     12  C   UNL     1     112.522 126.588 136.500  0.00  0.00    +0.000 A 
ATOM     13  C   UNL     1     112.012 126.356 135.849  0.00  0.00    +0.000 A 
ENDROOT
BRANCH   5  18
ATOM     14  O   UNL     1     111.989 128.560 138.369  0.00  0.00    +0.000 OA
ATOM     15  O   UNL     1     112.971 129.560 136.695  0.00  0.00    +0.000 OA
ATOM     16  O   UNL     1     113.952 130.007 137.945  0.00  0.00    +0.000 OA
ATOM     17  O   UNL     1     113.624 129.489 139.477  0.00  0.00    +0.000 OA
ATOM     18  C   UNL     1     112.153 128.819 137.602  0.00  0.00    +0.000 C 
ATOM     19  C   UNL     1     112.807 129.301 137.462  0.00  0.00    +0.000 C 
ATOM     20  C   UNL     1     113.298 129.525 138.087  0.00  0.00    +0.000 C 
ATOM     21  C   UNL     1     113.134 129.266 138.852  0.00  0.00    +0.000 C 
ATOM     22  C   UNL     1     112.479 128.783 138.994  0.00  0.00    +0.000 C 
BRANCH  22  24
ATOM     23  O   UNL     1     111.577 128.203 139.936  0.00  0.00    +0.000 OA
ATOM     24  C   UNL     1     112.315 128.525 139.759  0.00  0.00    +0.000 C 
ENDBRANCH  22  24
ENDBRANCH   5  18
BRANCH   6  29
ATOM     25  O   UNL     1     110.125 129.941 135.256  0.00  0.00    +0.000 OA
ATOM     26  O   UNL     1     109.068 128.772 136.766  0.00  0.00    +0.000 OA
ATOM     27  O   UNL     1     107.867 129.783 136.257  0.00  0.00    +0.000 OA
ATOM     28  O   UNL     1     108.172 130.899 135.080  0.00  0.00    +0.000 OA
ATOM     29  C   UNL     1     109.972 129.383 135.844  0.00  0.00    +0.000 C 
ATOM     30  C   UNL     1     109.219 129.330 136.178  0.00  0.00    +0.000 C 
ATOM     31  C   UNL     1     108.620 129.836 135.923  0.00  0.00    +0.000 C 
ATOM     32  C   UNL     1     108.772 130.393 135.335  0.00  0.00    +0.000 C 
ATOM     33  C   UNL     1     109.524 130.446 135.002  0.00  0.00    +0.000 C 
ENDBRANCH   6  29
BRANCH  12  35
ATOM     34  O   UNL     1     114.927 124.575 137.524  0.00  0.00    +0.000 OA
ATOM     35  C   UNL     1     113.123 126.085 136.756  0.00  0.00    +0.000 A 
ATOM     36  C   UNL     1     112.969 125.521 137.338  0.00  0.00    +0.000 A 
ATOM     37  C   UNL     1     113.879 126.145 136.430  0.00  0.00    +0.000 A 
ATOM     38  C   UNL     1     113.571 125.018 137.594  0.00  0.00    +0.000 A 
ATOM     39  C   UNL     1     114.480 125.642 136.686  0.00  0.00    +0.000 A 
ATOM     40  C   UNL     1     114.327 125.078 137.268  0.00  0.00    +0.000 A 
ENDBRANCH  12  35
TORSDOF 4
ENDMDL
MODEL 6
REMARK VINA RESULT:     -10.5      2.723      4.925
REMARK  Name = 13644660
REMARK  4 active torsions:
REMARK  status: ('A' for Active; 'I' for Inactive)
REMARK    1  A    between atoms: C_15  and  C_20
REMARK    2  A    between atoms: C_19  and  C_28
REMARK    3  A    between atoms: C_21  and  C_23
REMARK    4  A    between atoms: C_33  and  C_35
REMARK                            x       y       z     vdW  Elec       q    Type
REMARK                         _______ _______ _______ _____ _____    ______ ____
ROOT
ATOM      1  O   UNL     1     112.065 127.303 137.186  0.00  0.00    +0.000 OA
ATOM      2  O   UNL     1     110.949 125.157 138.751  0.00  0.00    +0.000 OA
ATOM      3  O   UNL     1     110.121 127.845 139.261  0.00  0.00    +0.000 OA
ATOM      4  O   UNL     1     110.656 128.947 138.499  0.00  0.00    +0.000 OA
ATOM      5  C   UNL     1     111.495 126.231 137.982  0.00  0.00    +0.000 A 
ATOM      6  C   UNL     1     110.535 126.501 139.005  0.00  0.00    +0.000 A 
ATOM      7  C   UNL     1     110.993 125.963 138.579  0.00  0.00    +0.000 A 
ATOM      8  C   UNL     1     111.539 127.037 137.810  0.00  0.00    +0.000 A 
ATOM      9  C   UNL     1     110.579 127.307 138.834  0.00  0.00    +0.000 A 
ATOM     10  C   UNL     1     111.081 127.575 138.236  0.00  0.00    +0.000 A 
ATOM     11  C   UNL     1     111.118 128.416 138.068  0.00  0.00    +0.000 A 
ATOM     12  C   UNL     1     112.116 128.142 137.003  0.00  0.00    +0.000 A 
ATOM     13  C   UNL     1     111.639 128.702 137.446  0.00  0.00    +0.000 A 
ENDROOT
BRANCH   5  18
ATOM     14  O   UNL     1     112.738 125.557 137.772  0.00  0.00    +0.000 OA
ATOM     15  O   UNL     1     110.842 125.428 136.697  0.00  0.00    +0.000 OA
ATOM     16  O   UNL     1     111.758 124.352 135.844  0.00  0.00    +0.000 OA
ATOM     17  O   UNL     1     113.326 124.080 136.277  0.00  0.00    +0.000 OA
ATOM     18  C   UNL     1     111.953 125.693 137.556  0.00  0.00    +0.000 C 
ATOM     19  C   UNL     1     111.627 125.291 136.913  0.00  0.00    +0.000 C 
ATOM     20  C   UNL     1     112.085 124.754 136.487  0.00  0.00    +0.000 C 
ATOM     21  C   UNL     1     112.868 124.618 136.703  0.00  0.00    +0.000 C 
ATOM     22  C   UNL     1     113.196 125.019 137.346  0.00  0.00    +0.000 C 
BRANCH  22  24
ATOM     23  O   UNL     1     114.398 125.459 137.978  0.00  0.00    +0.000 OA
ATOM     24  C   UNL     1     113.979 124.883 137.562  0.00  0.00    +0.000 C 
ENDBRANCH  22  24
ENDBRANCH   5  18
BRANCH   6  29
ATOM     25  O   UNL     1     109.247 126.054 139.431  0.00  0.00    +0.000 OA
ATOM     26  O   UNL     1     111.105 126.324 140.544  0.00  0.00    +0.000 OA
ATOM     27  O   UNL     1     110.101 125.788 141.738  0.00  0.00    +0.000 OA
ATOM     28  O   UNL     1     108.527 125.429 141.395  0.00  0.00    +0.000 OA
ATOM     29  C   UNL     1     110.033 126.233 139.603  0.00  0.00    +0.000 C 
ATOM     30  C   UNL     1     110.318 126.144 140.372  0.00  0.00    +0.000 C 
ATOM     31  C   UNL     1     109.816 125.877 140.969  0.00  0.00    +0.000 C 
ATOM     32  C   UNL     1     109.030 125.697 140.798  0.00  0.00    +0.000 C 
ATOM     33  C   UNL     1     108.745 125.786 140.028  0.00  0.00    +0.000 C 
ENDBRANCH   6  29
BRANCH  12  35
ATOM     34  O   UNL     1     114.127 129.203 134.612  0.00  0.00    +0.000 OA
ATOM     35  C   UNL     1     112.618 128.407 136.405  0.00  0.00    +0.000 A 
ATOM     36  C   UNL     1     112.333 128.498 135.636  0.00  0.00    +0.000 A 
ATOM     37  C   UNL     1     113.406 128.582 136.576  0.00  0.00    +0.000 A 
ATOM     38  C   UNL     1     112.837 128.763 135.038  0.00  0.00    +0.000 A 
ATOM     39  C   UNL     1     113.909 128.847 135.979  0.00  0.00    +0.000 A 
ATOM     40  C   UNL     1     113.625 128.938 135.209  0.00  0.00    +0.000 A 
ENDBRANCH  12  35
TORSDOF 4
ENDMDL
MODEL 7
REMARK VINA RESULT:     -10.4      0.992      4.586
REMARK  Name = 13644660
REMARK  4 active torsions:
REMARK  status: ('A' for Active; 'I' for Inactive)
REMARK    1  A    between atoms: C_15  and  C_20
REMARK    2  A    between atoms: C_19  and  C_28
REMARK    3  A    between atoms: C_21  and  C_23
REMARK    4  A    between atoms: C_33  and  C_35
REMARK                            x       y       z     vdW  Elec       q    Type
REMARK                         _______ _______ _______ _____ _____    ______ ____
ROOT
ATOM      1  O   UNL     1     110.317 129.089 135.882  0.00  0.00    +0.000 OA
ATOM      2  O   UNL     1     112.306 127.106 136.523  0.00  0.00    +0.000 OA
ATOM      3  O   UNL     1     109.569 126.321 136.273  0.00  0.00    +0.000 OA
ATOM      4  O   UNL     1     108.543 127.284 135.954  0.00  0.00    +0.000 OA
ATOM      5  C   UNL     1     111.309 128.079 136.206  0.00  0.00    +0.000 A 
ATOM      6  C   UNL     1     110.937 126.714 136.398  0.00  0.00    +0.000 A 
ATOM      7  C   UNL     1     111.517 127.300 136.375  0.00  0.00    +0.000 A 
ATOM      8  C   UNL     1     110.521 128.274 136.058  0.00  0.00    +0.000 A 
ATOM      9  C   UNL     1     110.149 126.907 136.251  0.00  0.00    +0.000 A 
ATOM     10  C   UNL     1     109.941 127.688 136.081  0.00  0.00    +0.000 A 
ATOM     11  C   UNL     1     109.117 127.876 135.929  0.00  0.00    +0.000 A 
ATOM     12  C   UNL     1     109.497 129.298 135.727  0.00  0.00    +0.000 A 
ATOM     13  C   UNL     1     108.893 128.687 135.751  0.00  0.00    +0.000 A 
ENDROOT
BRANCH   5  18
ATOM     14  O   UNL     1     112.028 129.136 136.848  0.00  0.00    +0.000 OA
ATOM     15  O   UNL     1     112.193 128.313 134.832  0.00  0.00    +0.000 OA
ATOM     16  O   UNL     1     113.353 129.485 134.786  0.00  0.00    +0.000 OA
ATOM     17  O   UNL     1     113.629 130.424 136.115  0.00  0.00    +0.000 OA
ATOM     18  C   UNL     1     111.889 128.666 136.183  0.00  0.00    +0.000 C 
ATOM     19  C   UNL     1     112.331 128.783 135.496  0.00  0.00    +0.000 C 
ATOM     20  C   UNL     1     112.911 129.369 135.474  0.00  0.00    +0.000 C 
ATOM     21  C   UNL     1     113.049 129.838 136.138  0.00  0.00    +0.000 C 
ATOM     22  C   UNL     1     112.608 129.722 136.825  0.00  0.00    +0.000 C 
BRANCH  22  24
ATOM     23  O   UNL     1     112.409 129.988 138.214  0.00  0.00    +0.000 OA
ATOM     24  C   UNL     1     112.746 130.191 137.489  0.00  0.00    +0.000 C 
ENDBRANCH  22  24
ENDBRANCH   5  18
BRANCH   6  29
ATOM     25  O   UNL     1     111.337 125.415 135.956  0.00  0.00    +0.000 OA
ATOM     26  O   UNL     1     110.970 126.191 137.963  0.00  0.00    +0.000 OA
ATOM     27  O   UNL     1     111.386 124.631 138.303  0.00  0.00    +0.000 OA
ATOM     28  O   UNL     1     111.770 123.594 137.078  0.00  0.00    +0.000 OA
ATOM     29  C   UNL     1     111.146 125.933 136.568  0.00  0.00    +0.000 C 
ATOM     30  C   UNL     1     111.162 125.672 137.351  0.00  0.00    +0.000 C 
ATOM     31  C   UNL     1     111.370 124.892 137.520  0.00  0.00    +0.000 C 
ATOM     32  C   UNL     1     111.562 124.374 136.909  0.00  0.00    +0.000 C 
ATOM     33  C   UNL     1     111.545 124.635 136.126  0.00  0.00    +0.000 C 
ENDBRANCH   6  29
BRANCH  12  35
ATOM     34  O   UNL     1     108.676 132.420 135.047  0.00  0.00    +0.000 OA
ATOM     35  C   UNL     1     109.292 130.079 135.558  0.00  0.00    +0.000 A 
ATOM     36  C   UNL     1     109.043 130.581 136.163  0.00  0.00    +0.000 A 
ATOM     37  C   UNL     1     109.335 130.357 134.782  0.00  0.00    +0.000 A 
ATOM     38  C   UNL     1     108.838 131.362 135.992  0.00  0.00    +0.000 A 
ATOM     39  C   UNL     1     109.130 131.137 134.612  0.00  0.00    +0.000 A 
ATOM     40  C   UNL     1     108.881 131.640 135.217  0.00  0.00    +0.000 A 
ENDBRANCH  12  35
TORSDOF 4
ENDMDL
MODEL 8
REMARK VINA RESULT:     -10.3      1.762      5.135
REMARK  Name = 13644660
REMARK  4 active torsions:
REMARK  status: ('A' for Active; 'I' for Inactive)
REMARK    1  A    between atoms: C_15  and  C_20
REMARK    2  A    between atoms: C_19  and  C_28
REMARK    3  A    between atoms: C_21  and  C_23
REMARK    4  A    between atoms: C_33  and  C_35
REMARK                            x       y       z     vdW  Elec       q    Type
REMARK                         _______ _______ _______ _____ _____    ______ ____
ROOT
ATOM      1  O   UNL     1     111.051 128.742 136.286  0.00  0.00    +0.000 OA
ATOM      2  O   UNL     1     113.277 127.695 137.786  0.00  0.00    +0.000 OA
ATOM      3  O   UNL     1     112.021 126.056 135.810  0.00  0.00    +0.000 OA
ATOM      4  O   UNL     1     110.903 126.543 135.038  0.00  0.00    +0.000 OA
ATOM      5  C   UNL     1     112.172 128.202 137.035  0.00  0.00    +0.000 A 
ATOM      6  C   UNL     1     112.649 126.876 136.798  0.00  0.00    +0.000 A 
ATOM      7  C   UNL     1     112.699 127.591 137.206  0.00  0.00    +0.000 A 
ATOM      8  C   UNL     1     111.594 128.098 136.455  0.00  0.00    +0.000 A 
ATOM      9  C   UNL     1     112.071 126.771 136.218  0.00  0.00    +0.000 A 
ATOM     10  C   UNL     1     111.544 127.383 136.047  0.00  0.00    +0.000 A 
ATOM     11  C   UNL     1     110.947 127.262 135.441  0.00  0.00    +0.000 A 
ATOM     12  C   UNL     1     110.447 128.639 135.683  0.00  0.00    +0.000 A 
ATOM     13  C   UNL     1     110.394 127.895 135.258  0.00  0.00    +0.000 A 
ENDROOT
BRANCH   5  18
ATOM     14  O   UNL     1     112.637 129.551 137.115  0.00  0.00    +0.000 OA
ATOM     15  O   UNL     1     111.445 128.364 138.507  0.00  0.00    +0.000 OA
ATOM     16  O   UNL     1     111.546 129.795 139.323  0.00  0.00    +0.000 OA
ATOM     17  O   UNL     1     112.374 131.062 138.667  0.00  0.00    +0.000 OA
ATOM     18  C   UNL     1     112.222 128.917 137.443  0.00  0.00    +0.000 C 
ATOM     19  C   UNL     1     111.859 128.999 138.179  0.00  0.00    +0.000 C 
ATOM     20  C   UNL     1     111.910 129.714 138.587  0.00  0.00    +0.000 C 
ATOM     21  C   UNL     1     112.323 130.347 138.259  0.00  0.00    +0.000 C 
ATOM     22  C   UNL     1     112.687 130.266 137.523  0.00  0.00    +0.000 C 
BRANCH  22  24
ATOM     23  O   UNL     1     113.660 130.765 136.604  0.00  0.00    +0.000 OA
ATOM     24  C   UNL     1     113.101 130.900 137.195  0.00  0.00    +0.000 C 
ENDBRANCH  22  24
ENDBRANCH   5  18
BRANCH   6  29
ATOM     25  O   UNL     1     112.980 125.699 137.537  0.00  0.00    +0.000 OA
ATOM     26  O   UNL     1     114.094 126.787 136.007  0.00  0.00    +0.000 OA
ATOM     27  O   UNL     1     115.148 125.565 136.350  0.00  0.00    +0.000 OA
ATOM     28  O   UNL     1     114.757 124.432 137.484  0.00  0.00    +0.000 OA
ATOM     29  C   UNL     1     113.176 126.265 136.970  0.00  0.00    +0.000 C 
ATOM     30  C   UNL     1     113.899 126.220 136.574  0.00  0.00    +0.000 C 
ATOM     31  C   UNL     1     114.425 125.609 136.746  0.00  0.00    +0.000 C 
ATOM     32  C   UNL     1     114.230 125.043 137.312  0.00  0.00    +0.000 C 
ATOM     33  C   UNL     1     113.507 125.088 137.708  0.00  0.00    +0.000 C 
ENDBRANCH   6  29
BRANCH  12  35
ATOM     34  O   UNL     1     108.342 131.089 135.006  0.00  0.00    +0.000 OA
ATOM     35  C   UNL     1     109.921 129.252 135.513  0.00  0.00    +0.000 A 
ATOM     36  C   UNL     1     110.090 129.784 134.906  0.00  0.00    +0.000 A 
ATOM     37  C   UNL     1     109.226 129.332 135.951  0.00  0.00    +0.000 A 
ATOM     38  C   UNL     1     109.563 130.397 134.737  0.00  0.00    +0.000 A 
ATOM     39  C   UNL     1     108.700 129.943 135.782  0.00  0.00    +0.000 A 
ATOM     40  C   UNL     1     108.868 130.477 135.175  0.00  0.00    +0.000 A 
ENDBRANCH  12  35
TORSDOF 4
ENDMDL
MODEL 9
REMARK VINA RESULT:     -10.3      1.673      2.677
REMARK  Name = 13644660
REMARK  4 active torsions:
REMARK  status: ('A' for Active; 'I' for Inactive)
REMARK    1  A    between atoms: C_15  and  C_20
REMARK    2  A    between atoms: C_19  and  C_28
REMARK    3  A    between atoms: C_21  and  C_23
REMARK    4  A    between atoms: C_33  and  C_35
REMARK                            x       y       z     vdW  Elec       q    Type
REMARK                         _______ _______ _______ _____ _____    ______ ____
ROOT
ATOM      1  O   UNL     1     111.084 126.737 136.973  0.00  0.00    +0.000 OA
ATOM      2  O   UNL     1     109.538 128.999 137.866  0.00  0.00    +0.000 OA
ATOM      3  O   UNL     1     110.215 128.765 135.099  0.00  0.00    +0.000 OA
ATOM      4  O   UNL     1     110.988 127.647 134.612  0.00  0.00    +0.000 OA
ATOM      5  C   UNL     1     110.305 127.882 137.410  0.00  0.00    +0.000 A 
ATOM      6  C   UNL     1     109.877 128.881 136.483  0.00  0.00    +0.000 A 
ATOM      7  C   UNL     1     109.907 128.587 137.253  0.00  0.00    +0.000 A 
ATOM      8  C   UNL     1     110.673 127.470 136.797  0.00  0.00    +0.000 A 
ATOM      9  C   UNL     1     110.245 128.471 135.869  0.00  0.00    +0.000 A 
ATOM     10  C   UNL     1     110.643 127.765 136.027  0.00  0.00    +0.000 A 
ATOM     11  C   UNL     1     111.022 127.346 135.380  0.00  0.00    +0.000 A 
ATOM     12  C   UNL     1     111.470 126.304 136.339  0.00  0.00    +0.000 A 
ATOM     13  C   UNL     1     111.439 126.610 135.537  0.00  0.00    +0.000 A 
ENDROOT
BRANCH   5  18
ATOM     14  O   UNL     1     109.792 127.015 138.425  0.00  0.00    +0.000 OA
ATOM     15  O   UNL     1     111.448 128.437 138.461  0.00  0.00    +0.000 OA
ATOM     16  O   UNL     1     111.508 127.849 140.002  0.00  0.00    +0.000 OA
ATOM     17  O   UNL     1     110.424 126.705 140.490  0.00  0.00    +0.000 OA
ATOM     18  C   UNL     1     110.334 127.588 138.180  0.00  0.00    +0.000 C 
ATOM     19  C   UNL     1     110.906 127.865 138.706  0.00  0.00    +0.000 C 
ATOM     20  C   UNL     1     110.936 127.571 139.476  0.00  0.00    +0.000 C 
ATOM     21  C   UNL     1     110.394 126.999 139.720  0.00  0.00    +0.000 C 
ATOM     22  C   UNL     1     109.822 126.721 139.195  0.00  0.00    +0.000 C 
BRANCH  22  24
ATOM     23  O   UNL     1     108.524 126.130 139.108  0.00  0.00    +0.000 OA
ATOM     24  C   UNL     1     109.280 126.150 139.439  0.00  0.00    +0.000 C 
ENDBRANCH  22  24
ENDBRANCH   5  18
BRANCH   6  29
ATOM     25  O   UNL     1     109.879 130.306 136.379  0.00  0.00    +0.000 OA
ATOM     26  O   UNL     1     108.282 128.853 136.063  0.00  0.00    +0.000 OA
ATOM     27  O   UNL     1     107.486 130.264 135.749  0.00  0.00    +0.000 OA
ATOM     28  O   UNL     1     108.286 131.703 135.855  0.00  0.00    +0.000 OA
ATOM     29  C   UNL     1     109.479 129.587 136.326  0.00  0.00    +0.000 C 
ATOM     30  C   UNL     1     108.681 129.573 136.116  0.00  0.00    +0.000 C 
ATOM     31  C   UNL     1     108.284 130.278 135.959  0.00  0.00    +0.000 C 
ATOM     32  C   UNL     1     108.683 130.997 136.012  0.00  0.00    +0.000 C 
ATOM     33  C   UNL     1     109.481 131.011 136.222  0.00  0.00    +0.000 C 
ENDBRANCH   6  29
BRANCH  12  35
ATOM     34  O   UNL     1     113.057 123.483 136.977  0.00  0.00    +0.000 OA
ATOM     35  C   UNL     1     111.867 125.599 136.498  0.00  0.00    +0.000 A 
ATOM     36  C   UNL     1     112.669 125.612 136.691  0.00  0.00    +0.000 A 
ATOM     37  C   UNL     1     111.462 124.881 136.465  0.00  0.00    +0.000 A 
ATOM     38  C   UNL     1     113.066 124.905 136.851  0.00  0.00    +0.000 A 
ATOM     39  C   UNL     1     111.859 124.176 136.625  0.00  0.00    +0.000 A 
ATOM     40  C   UNL     1     112.661 124.187 136.818  0.00  0.00    +0.000 A 
ENDBRANCH  12  35
TORSDOF 4
ENDMDL
MODEL 10
REMARK VINA RESULT:     -10.2      2.259      3.481
REMARK  Name = 13644660
REMARK  4 active torsions:
REMARK  status: ('A' for Active; 'I' for Inactive)
REMARK    1  A    between atoms: C_15  and  C_20
REMARK    2  A    between atoms: C_19  and  C_28
REMARK    3  A    between atoms: C_21  and  C_23
REMARK    4  A    between atoms: C_33  and  C_35
REMARK                            x       y       z     vdW  Elec       q    Type
REMARK                         _______ _______ _______ _____ _____    ______ ____
ROOT
ATOM      1  O   UNL     1     112.074 126.632 137.515  0.00  0.00    +0.000 OA
ATOM      2  O   UNL     1     111.904 129.203 138.804  0.00  0.00    +0.000 OA
ATOM      3  O   UNL     1     111.728 129.047 135.956  0.00  0.00    +0.000 OA
ATOM      4  O   UNL     1     111.809 127.778 135.272  0.00  0.00    +0.000 OA
ATOM      5  C   UNL     1     111.987 127.935 138.152  0.00  0.00    +0.000 A 
ATOM      6  C   UNL     1     111.816 129.124 137.380  0.00  0.00    +0.000 A 
ATOM      7  C   UNL     1     111.902 128.754 138.112  0.00  0.00    +0.000 A 
ATOM      8  C   UNL     1     111.985 127.485 137.460  0.00  0.00    +0.000 A 
ATOM      9  C   UNL     1     111.815 128.676 136.688  0.00  0.00    +0.000 A 
ATOM     10  C   UNL     1     111.899 127.856 136.728  0.00  0.00    +0.000 A 
ATOM     11  C   UNL     1     111.896 127.399 136.000  0.00  0.00    +0.000 A 
ATOM     12  C   UNL     1     112.073 126.159 136.797  0.00  0.00    +0.000 A 
ATOM     13  C   UNL     1     111.984 126.545 136.035  0.00  0.00    +0.000 A 
ENDROOT
BRANCH   5  18
ATOM     14  O   UNL     1     112.827 127.404 139.179  0.00  0.00    +0.000 OA
ATOM     15  O   UNL     1     110.652 127.514 139.025  0.00  0.00    +0.000 OA
ATOM     16  O   UNL     1     110.824 126.772 140.489  0.00  0.00    +0.000 OA
ATOM     17  O   UNL     1     112.331 126.452 141.080  0.00  0.00    +0.000 OA
ATOM     18  C   UNL     1     112.073 127.564 138.884  0.00  0.00    +0.000 C 
ATOM     19  C   UNL     1     111.406 127.353 139.321  0.00  0.00    +0.000 C 
ATOM     20  C   UNL     1     111.492 126.983 140.053  0.00  0.00    +0.000 C 
ATOM     21  C   UNL     1     112.245 126.823 140.348  0.00  0.00    +0.000 C 
ATOM     22  C   UNL     1     112.913 127.033 139.911  0.00  0.00    +0.000 C 
BRANCH  22  24
ATOM     23  O   UNL     1     114.230 126.514 139.723  0.00  0.00    +0.000 OA
ATOM     24  C   UNL     1     113.666 126.873 140.206  0.00  0.00    +0.000 C 
ENDBRANCH  22  24
ENDBRANCH   5  18
BRANCH   6  29
ATOM     25  O   UNL     1     110.980 130.283 137.374  0.00  0.00    +0.000 OA
ATOM     26  O   UNL     1     113.149 130.085 137.231  0.00  0.00    +0.000 OA
ATOM     27  O   UNL     1     112.980 131.725 137.151  0.00  0.00    +0.000 OA
ATOM     28  O   UNL     1     111.477 132.403 137.220  0.00  0.00    +0.000 OA
ATOM     29  C   UNL     1     111.731 129.945 137.340  0.00  0.00    +0.000 C 
ATOM     30  C   UNL     1     112.398 130.425 137.265  0.00  0.00    +0.000 C 
ATOM     31  C   UNL     1     112.313 131.244 137.225  0.00  0.00    +0.000 C 
ATOM     32  C   UNL     1     111.563 131.583 137.260  0.00  0.00    +0.000 C 
ATOM     33  C   UNL     1     110.896 131.103 137.334  0.00  0.00    +0.000 C 
ENDBRANCH   6  29
BRANCH  12  35
ATOM     34  O   UNL     1     112.411 122.881 136.968  0.00  0.00    +0.000 OA
ATOM     35  C   UNL     1     112.158 125.339 136.840  0.00  0.00    +0.000 A 
ATOM     36  C   UNL     1     112.908 124.999 136.796  0.00  0.00    +0.000 A 
ATOM     37  C   UNL     1     111.492 124.860 136.926  0.00  0.00    +0.000 A 
ATOM     38  C   UNL     1     112.992 124.179 136.839  0.00  0.00    +0.000 A 
ATOM     39  C   UNL     1     111.576 124.041 136.969  0.00  0.00    +0.000 A 
ATOM     40  C   UNL     1     112.327 123.700 136.925  0.00  0.00    +0.000 A 
ENDBRANCH  12  35
TORSDOF 4
ENDMDL
