MODEL 1
REMARK VINA RESULT:     -11.2      0.000      0.000
REMARK  Name = 11285205
REMARK  6 active torsions:
REMARK  status: ('A' for Active; 'I' for Inactive)
REMARK    1  A    between atoms: O_2  and  C_22
REMARK    2  A    between atoms: O_2  and  C_26
REMARK    3  A    between atoms: O_4  and  C_23
REMARK    4  A    between atoms: O_4  and  C_29
REMARK    5  A    between atoms: C_17  and  C_26
REMARK    6  A    between atoms: C_31  and  C_36
REMARK                            x       y       z     vdW  Elec       q    Type
REMARK                         _______ _______ _______ _____ _____    ______ ____
ROOT
ATOM      1  O   UNL     1     113.505 126.048 138.674  0.00  0.00    +0.000 OA
ATOM      2  O   UNL     1     112.456 125.030 136.203  0.00  0.00    +0.000 OA
ATOM      3  O   UNL     1     115.297 124.698 136.817  0.00  0.00    +0.000 OA
ATOM      4  C   UNL     1     112.120 126.202 138.361  0.00  0.00    +0.000 A 
ATOM      5  C   UNL     1     112.239 125.811 137.643  0.00  0.00    +0.000 A 
ATOM      6  C   UNL     1     112.753 126.321 138.876  0.00  0.00    +0.000 A 
ATOM      7  C   UNL     1     112.991 125.539 137.443  0.00  0.00    +0.000 A 
ATOM      8  C   UNL     1     113.625 125.657 137.958  0.00  0.00    +0.000 A 
ATOM      9  C   UNL     1     111.611 125.694 137.133  0.00  0.00    +0.000 A 
ATOM     10  C   UNL     1     113.103 125.133 136.693  0.00  0.00    +0.000 A 
ATOM     11  C   UNL     1     111.719 125.307 136.420  0.00  0.00    +0.000 A 
ATOM     12  C   UNL     1     114.413 125.378 137.760  0.00  0.00    +0.000 A 
ATOM     13  C   UNL     1     113.884 124.846 136.479  0.00  0.00    +0.000 A 
ATOM     14  C   UNL     1     114.543 124.970 137.015  0.00  0.00    +0.000 A 
ATOM     15  C   UNL     1     111.075 125.197 135.915  0.00  0.00    +0.000 C 
ENDROOT
BRANCH   6  19
ATOM     16  O   UNL     1     111.626 126.386 141.502  0.00  0.00    +0.000 OA
ATOM     17  O   UNL     1     113.163 128.600 140.550  0.00  0.00    +0.000 OA
ATOM     18  O   UNL     1     112.275 127.884 141.743  0.00  0.00    +0.000 OA
ATOM     19  C   UNL     1     112.634 126.711 139.592  0.00  0.00    +0.000 A 
ATOM     20  C   UNL     1     112.958 127.460 139.713  0.00  0.00    +0.000 A 
ATOM     21  C   UNL     1     112.190 126.353 140.188  0.00  0.00    +0.000 A 
ATOM     22  C   UNL     1     112.070 126.744 140.906  0.00  0.00    +0.000 A 
ATOM     23  C   UNL     1     112.839 127.851 140.429  0.00  0.00    +0.000 A 
ATOM     24  C   UNL     1     112.395 127.493 141.025  0.00  0.00    +0.000 A 
ENDBRANCH   6  19
BRANCH   4  25
ATOM     25  O   UNL     1     111.368 126.474 138.561  0.00  0.00    +0.000 OA
BRANCH  25  34
ATOM     26  O   UNL     1     111.540 127.633 137.743  0.00  0.00    +0.000 OA
ATOM     27  O   UNL     1     110.094 129.097 137.015  0.00  0.00    +0.000 OA
ATOM     28  O   UNL     1     109.112 128.091 137.879  0.00  0.00    +0.000 OA
ATOM     29  O   UNL     1     109.749 126.780 138.652  0.00  0.00    +0.000 OA
ATOM     30  C   UNL     1     111.221 128.288 137.357  0.00  0.00    +0.000 C 
ATOM     31  C   UNL     1     110.412 128.441 137.402  0.00  0.00    +0.000 C 
ATOM     32  C   UNL     1     109.921 127.938 137.834  0.00  0.00    +0.000 C 
ATOM     33  C   UNL     1     110.239 127.282 138.220  0.00  0.00    +0.000 C 
ATOM     34  C   UNL     1     111.049 127.130 138.175  0.00  0.00    +0.000 C 
BRANCH  30  35
ATOM     35  C   UNL     1     111.713 128.792 136.925  0.00  0.00    +0.000 C 
BRANCH  35  36
ATOM     36  O   UNL     1     112.315 129.207 137.305  0.00  0.00    +0.000 OA
BRANCH  36  42
ATOM     37  O   UNL     1     113.335 128.936 136.341  0.00  0.00    +0.000 OA
ATOM     38  O   UNL     1     112.936 130.718 137.538  0.00  0.00    +0.000 OA
ATOM     39  O   UNL     1     114.267 131.202 136.691  0.00  0.00    +0.000 OA
ATOM     40  O   UNL     1     114.976 130.176 135.611  0.00  0.00    +0.000 OA
ATOM     41  C   UNL     1     113.291 130.204 136.998  0.00  0.00    +0.000 C 
ATOM     42  C   UNL     1     112.980 129.449 136.882  0.00  0.00    +0.000 C 
ATOM     43  C   UNL     1     113.956 130.447 136.574  0.00  0.00    +0.000 C 
ATOM     44  C   UNL     1     114.310 129.934 136.034  0.00  0.00    +0.000 C 
ATOM     45  C   UNL     1     114.000 129.178 135.918  0.00  0.00    +0.000 C 
ATOM     46  C   UNL     1     114.355 128.665 135.378  0.00  0.00    +0.000 C 
ENDBRANCH  36  42
ENDBRANCH  35  36
ENDBRANCH  30  35
ENDBRANCH  25  34
ENDBRANCH   4  25
TORSDOF 6
ENDMDL
MODEL 2
REMARK VINA RESULT:     -11.1      1.373      4.074
REMARK  Name = 11285205
REMARK  6 active torsions:
REMARK  status: ('A' for Active; 'I' for Inactive)
REMARK    1  A    between atoms: O_2  and  C_22
REMARK    2  A    between atoms: O_2  and  C_26
REMARK    3  A    between atoms: O_4  and  C_23
REMARK    4  A    between atoms: O_4  and  C_29
REMARK    5  A    between atoms: C_17  and  C_26
REMARK    6  A    between atoms: C_31  and  C_36
REMARK                            x       y       z     vdW  Elec       q    Type
REMARK                         _______ _______ _______ _____ _____    ______ ____
ROOT
ATOM      1  O   UNL     1     112.962 126.619 136.586  0.00  0.00    +0.000 OA
ATOM      2  O   UNL     1     110.744 125.059 135.641  0.00  0.00    +0.000 OA
ATOM      3  O   UNL     1     112.993 123.731 136.959  0.00  0.00    +0.000 OA
ATOM      4  C   UNL     1     111.857 127.253 135.940  0.00  0.00    +0.000 A 
ATOM      5  C   UNL     1     111.492 126.519 135.844  0.00  0.00    +0.000 A 
ATOM      6  C   UNL     1     112.592 127.304 136.311  0.00  0.00    +0.000 A 
ATOM      7  C   UNL     1     111.863 125.836 136.119  0.00  0.00    +0.000 A 
ATOM      8  C   UNL     1     112.598 125.886 136.490  0.00  0.00    +0.000 A 
ATOM      9  C   UNL     1     110.763 126.470 135.476  0.00  0.00    +0.000 A 
ATOM     10  C   UNL     1     111.474 125.077 136.013  0.00  0.00    +0.000 A 
ATOM     11  C   UNL     1     110.394 125.747 135.376  0.00  0.00    +0.000 A 
ATOM     12  C   UNL     1     112.995 125.180 136.780  0.00  0.00    +0.000 A 
ATOM     13  C   UNL     1     111.855 124.361 136.297  0.00  0.00    +0.000 A 
ATOM     14  C   UNL     1     112.620 124.414 136.683  0.00  0.00    +0.000 A 
ATOM     15  C   UNL     1     109.658 125.714 135.003  0.00  0.00    +0.000 C 
ENDROOT
BRANCH   6  19
ATOM     16  O   UNL     1     113.918 129.574 135.191  0.00  0.00    +0.000 OA
ATOM     17  O   UNL     1     113.451 129.438 138.007  0.00  0.00    +0.000 OA
ATOM     18  O   UNL     1     114.049 130.240 136.695  0.00  0.00    +0.000 OA
ATOM     19  C   UNL     1     112.956 128.037 136.407  0.00  0.00    +0.000 A 
ATOM     20  C   UNL     1     113.022 128.371 137.159  0.00  0.00    +0.000 A 
ATOM     21  C   UNL     1     113.255 128.438 135.751  0.00  0.00    +0.000 A 
ATOM     22  C   UNL     1     113.619 129.173 135.847  0.00  0.00    +0.000 A 
ATOM     23  C   UNL     1     113.385 129.104 137.255  0.00  0.00    +0.000 A 
ATOM     24  C   UNL     1     113.684 129.505 136.599  0.00  0.00    +0.000 A 
ENDBRANCH   6  19
BRANCH   4  25
ATOM     25  O   UNL     1     111.485 127.937 135.665  0.00  0.00    +0.000 OA
BRANCH  25  34
ATOM     26  O   UNL     1     110.727 128.056 136.869  0.00  0.00    +0.000 OA
ATOM     27  O   UNL     1     108.924 129.204 137.316  0.00  0.00    +0.000 OA
ATOM     28  O   UNL     1     109.162 129.599 135.731  0.00  0.00    +0.000 OA
ATOM     29  O   UNL     1     110.442 128.965 134.906  0.00  0.00    +0.000 OA
ATOM     30  C   UNL     1     110.086 128.373 137.282  0.00  0.00    +0.000 C 
ATOM     31  C   UNL     1     109.564 128.887 136.903  0.00  0.00    +0.000 C 
ATOM     32  C   UNL     1     109.683 129.085 136.110  0.00  0.00    +0.000 C 
ATOM     33  C   UNL     1     110.324 128.768 135.697  0.00  0.00    +0.000 C 
ATOM     34  C   UNL     1     110.845 128.254 136.078  0.00  0.00    +0.000 C 
BRANCH  30  35
ATOM     35  C   UNL     1     109.967 128.175 138.075  0.00  0.00    +0.000 C 
BRANCH  35  36
ATOM     36  O   UNL     1     109.700 127.421 138.276  0.00  0.00    +0.000 OA
BRANCH  36  42
ATOM     37  O   UNL     1     110.586 127.390 139.397  0.00  0.00    +0.000 OA
ATOM     38  O   UNL     1     108.938 126.071 138.841  0.00  0.00    +0.000 OA
ATOM     39  O   UNL     1     109.442 125.365 140.245  0.00  0.00    +0.000 OA
ATOM     40  O   UNL     1     110.709 126.009 141.083  0.00  0.00    +0.000 OA
ATOM     41  C   UNL     1     109.571 126.394 139.260  0.00  0.00    +0.000 C 
ATOM     42  C   UNL     1     109.952 127.069 138.978  0.00  0.00    +0.000 C 
ATOM     43  C   UNL     1     109.823 126.040 139.962  0.00  0.00    +0.000 C 
ATOM     44  C   UNL     1     110.457 126.363 140.381  0.00  0.00    +0.000 C 
ATOM     45  C   UNL     1     110.838 127.038 140.099  0.00  0.00    +0.000 C 
ATOM     46  C   UNL     1     111.471 127.359 140.519  0.00  0.00    +0.000 C 
ENDBRANCH  36  42
ENDBRANCH  35  36
ENDBRANCH  30  35
ENDBRANCH  25  34
ENDBRANCH   4  25
TORSDOF 6
ENDMDL
MODEL 3
REMARK VINA RESULT:     -11.1      1.343      4.222
REMARK  Name = 11285205
REMARK  6 active torsions:
REMARK  status: ('A' for Active; 'I' for Inactive)
REMARK    1  A    between atoms: O_2  and  C_22
REMARK    2  A    between atoms: O_2  and  C_26
REMARK    3  A    between atoms: O_4  and  C_23
REMARK    4  A    between atoms: O_4  and  C_29
REMARK    5  A    between atoms: C_17  and  C_26
REMARK    6  A    between atoms: C_31  and  C_36
REMARK                            x       y       z     vdW  Elec       q    Type
REMARK                         _______ _______ _______ _____ _____    ______ ____
ROOT
ATOM      1  O   UNL     1     113.255 127.309 136.190  0.00  0.00    +0.000 OA
ATOM      2  O   UNL     1     113.498 129.609 137.892  0.00  0.00    +0.000 OA
ATOM      3  O   UNL     1     113.957 129.879 135.016  0.00  0.00    +0.000 OA
ATOM      4  C   UNL     1     113.033 127.192 137.596  0.00  0.00    +0.000 A 
ATOM      5  C   UNL     1     113.189 127.998 137.687  0.00  0.00    +0.000 A 
ATOM      6  C   UNL     1     113.066 126.848 136.848  0.00  0.00    +0.000 A 
ATOM      7  C   UNL     1     113.378 128.458 137.029  0.00  0.00    +0.000 A 
ATOM      8  C   UNL     1     113.411 128.113 136.280  0.00  0.00    +0.000 A 
ATOM      9  C   UNL     1     113.156 128.339 138.430  0.00  0.00    +0.000 A 
ATOM     10  C   UNL     1     113.538 129.296 137.136  0.00  0.00    +0.000 A 
ATOM     11  C   UNL     1     113.309 129.136 138.531  0.00  0.00    +0.000 A 
ATOM     12  C   UNL     1     113.606 128.583 135.587  0.00  0.00    +0.000 A 
ATOM     13  C   UNL     1     113.735 129.780 136.455  0.00  0.00    +0.000 A 
ATOM     14  C   UNL     1     113.769 129.421 135.675  0.00  0.00    +0.000 A 
ATOM     15  C   UNL     1     113.272 129.466 139.286  0.00  0.00    +0.000 C 
ENDROOT
BRANCH   6  19
ATOM     16  O   UNL     1     113.853 124.121 137.187  0.00  0.00    +0.000 OA
ATOM     17  O   UNL     1     111.346 124.743 135.965  0.00  0.00    +0.000 OA
ATOM     18  O   UNL     1     112.444 123.627 136.486  0.00  0.00    +0.000 OA
ATOM     19  C   UNL     1     112.911 126.043 136.757  0.00  0.00    +0.000 A 
ATOM     20  C   UNL     1     112.206 125.795 136.406  0.00  0.00    +0.000 A 
ATOM     21  C   UNL     1     113.460 125.485 137.017  0.00  0.00    +0.000 A 
ATOM     22  C   UNL     1     113.304 124.679 136.927  0.00  0.00    +0.000 A 
ATOM     23  C   UNL     1     112.051 124.991 136.316  0.00  0.00    +0.000 A 
ATOM     24  C   UNL     1     112.600 124.433 136.576  0.00  0.00    +0.000 A 
ENDBRANCH   6  19
BRANCH   4  25
ATOM     25  O   UNL     1     112.845 126.733 138.255  0.00  0.00    +0.000 OA
BRANCH  25  34
ATOM     26  O   UNL     1     111.503 127.221 138.233  0.00  0.00    +0.000 OA
ATOM     27  O   UNL     1     109.892 127.042 139.696  0.00  0.00    +0.000 OA
ATOM     28  O   UNL     1     111.101 126.220 140.460  0.00  0.00    +0.000 OA
ATOM     29  O   UNL     1     112.578 126.065 139.740  0.00  0.00    +0.000 OA
ATOM     30  C   UNL     1     110.765 127.298 138.593  0.00  0.00    +0.000 C 
ATOM     31  C   UNL     1     110.630 126.965 139.335  0.00  0.00    +0.000 C 
ATOM     32  C   UNL     1     111.236 126.553 139.718  0.00  0.00    +0.000 C 
ATOM     33  C   UNL     1     111.974 126.476 139.358  0.00  0.00    +0.000 C 
ATOM     34  C   UNL     1     112.107 126.810 138.615  0.00  0.00    +0.000 C 
BRANCH  30  35
ATOM     35  C   UNL     1     110.160 127.710 138.211  0.00  0.00    +0.000 C 
BRANCH  35  36
ATOM     36  O   UNL     1     109.945 127.507 137.440  0.00  0.00    +0.000 OA
BRANCH  36  42
ATOM     37  O   UNL     1     109.929 128.830 136.902  0.00  0.00    +0.000 OA
ATOM     38  O   UNL     1     108.624 127.120 136.531  0.00  0.00    +0.000 OA
ATOM     39  O   UNL     1     107.947 128.250 135.538  0.00  0.00    +0.000 OA
ATOM     40  O   UNL     1     108.591 129.767 135.454  0.00  0.00    +0.000 OA
ATOM     41  C   UNL     1     108.946 127.878 136.489  0.00  0.00    +0.000 C 
ATOM     42  C   UNL     1     109.607 128.071 136.944  0.00  0.00    +0.000 C 
ATOM     43  C   UNL     1     108.607 128.444 135.992  0.00  0.00    +0.000 C 
ATOM     44  C   UNL     1     108.930 129.202 135.951  0.00  0.00    +0.000 C 
ATOM     45  C   UNL     1     109.590 129.395 136.406  0.00  0.00    +0.000 C 
ATOM     46  C   UNL     1     109.912 130.154 136.364  0.00  0.00    +0.000 C 
ENDBRANCH  36  42
ENDBRANCH  35  36
ENDBRANCH  30  35
ENDBRANCH  25  34
ENDBRANCH   4  25
TORSDOF 6
ENDMDL
MODEL 4
REMARK VINA RESULT:     -10.6      1.252      4.873
REMARK  Name = 11285205
REMARK  6 active torsions:
REMARK  status: ('A' for Active; 'I' for Inactive)
REMARK    1  A    between atoms: O_2  and  C_22
REMARK    2  A    between atoms: O_2  and  C_26
REMARK    3  A    between atoms: O_4  and  C_23
REMARK    4  A    between atoms: O_4  and  C_29
REMARK    5  A    between atoms: C_17  and  C_26
REMARK    6  A    between atoms: C_31  and  C_36
REMARK                            x       y       z     vdW  Elec       q    Type
REMARK                         _______ _______ _______ _____ _____    ______ ____
ROOT
ATOM      1  O   UNL     1     111.304 128.334 136.187  0.00  0.00    +0.000 OA
ATOM      2  O   UNL     1     110.350 125.627 136.077  0.00  0.00    +0.000 OA
ATOM      3  O   UNL     1     108.435 127.836 136.167  0.00  0.00    +0.000 OA
ATOM      4  C   UNL     1     112.227 127.245 136.143  0.00  0.00    +0.000 A 
ATOM      5  C   UNL     1     111.597 126.712 136.121  0.00  0.00    +0.000 A 
ATOM      6  C   UNL     1     112.081 128.056 136.175  0.00  0.00    +0.000 A 
ATOM      7  C   UNL     1     110.821 126.991 136.132  0.00  0.00    +0.000 A 
ATOM      8  C   UNL     1     110.674 127.802 136.165  0.00  0.00    +0.000 A 
ATOM      9  C   UNL     1     111.744 125.907 136.088  0.00  0.00    +0.000 A 
ATOM     10  C   UNL     1     110.173 126.426 136.109  0.00  0.00    +0.000 A 
ATOM     11  C   UNL     1     111.126 125.372 136.067  0.00  0.00    +0.000 A 
ATOM     12  C   UNL     1     109.870 128.104 136.177  0.00  0.00    +0.000 A 
ATOM     13  C   UNL     1     109.363 126.710 136.121  0.00  0.00    +0.000 A 
ATOM     14  C   UNL     1     109.210 127.555 136.155  0.00  0.00    +0.000 A 
ATOM     15  C   UNL     1     111.290 124.563 136.034  0.00  0.00    +0.000 C 
ENDROOT
BRANCH   6  19
ATOM     16  O   UNL     1     114.287 129.333 134.883  0.00  0.00    +0.000 OA
ATOM     17  O   UNL     1     113.653 129.974 137.596  0.00  0.00    +0.000 OA
ATOM     18  O   UNL     1     114.600 130.186 136.261  0.00  0.00    +0.000 OA
ATOM     19  C   UNL     1     112.710 128.588 136.197  0.00  0.00    +0.000 A 
ATOM     20  C   UNL     1     112.867 129.015 136.885  0.00  0.00    +0.000 A 
ATOM     21  C   UNL     1     113.183 128.694 135.530  0.00  0.00    +0.000 A 
ATOM     22  C   UNL     1     113.814 129.227 135.551  0.00  0.00    +0.000 A 
ATOM     23  C   UNL     1     113.496 129.547 136.907  0.00  0.00    +0.000 A 
ATOM     24  C   UNL     1     113.970 129.653 136.240  0.00  0.00    +0.000 A 
ENDBRANCH   6  19
BRANCH   4  25
ATOM     25  O   UNL     1     113.003 126.966 136.131  0.00  0.00    +0.000 OA
BRANCH  25  34
ATOM     26  O   UNL     1     113.002 126.767 137.546  0.00  0.00    +0.000 OA
ATOM     27  O   UNL     1     114.288 125.547 138.819  0.00  0.00    +0.000 OA
ATOM     28  O   UNL     1     114.933 125.234 137.333  0.00  0.00    +0.000 OA
ATOM     29  O   UNL     1     114.291 125.943 135.989  0.00  0.00    +0.000 OA
ATOM     30  C   UNL     1     113.324 126.413 138.218  0.00  0.00    +0.000 C 
ATOM     31  C   UNL     1     113.967 125.901 138.147  0.00  0.00    +0.000 C 
ATOM     32  C   UNL     1     114.290 125.745 137.403  0.00  0.00    +0.000 C 
ATOM     33  C   UNL     1     113.968 126.100 136.731  0.00  0.00    +0.000 C 
ATOM     34  C   UNL     1     113.325 126.611 136.803  0.00  0.00    +0.000 C 
BRANCH  30  35
ATOM     35  C   UNL     1     113.001 126.569 138.962  0.00  0.00    +0.000 C 
BRANCH  35  36
ATOM     36  O   UNL     1     112.207 126.403 139.110  0.00  0.00    +0.000 OA
BRANCH  36  42
ATOM     37  O   UNL     1     112.261 127.106 140.353  0.00  0.00    +0.000 OA
ATOM     38  O   UNL     1     110.791 125.693 139.573  0.00  0.00    +0.000 OA
ATOM     39  O   UNL     1     110.137 126.041 141.048  0.00  0.00    +0.000 OA
ATOM     40  O   UNL     1     110.899 127.099 142.059  0.00  0.00    +0.000 OA
ATOM     41  C   UNL     1     111.172 126.222 140.078  0.00  0.00    +0.000 C 
ATOM     42  C   UNL     1     111.880 126.577 139.847  0.00  0.00    +0.000 C 
ATOM     43  C   UNL     1     110.845 126.396 140.816  0.00  0.00    +0.000 C 
ATOM     44  C   UNL     1     111.227 126.925 141.321  0.00  0.00    +0.000 C 
ATOM     45  C   UNL     1     111.934 127.280 141.090  0.00  0.00    +0.000 C 
ATOM     46  C   UNL     1     112.315 127.809 141.596  0.00  0.00    +0.000 C 
ENDBRANCH  36  42
ENDBRANCH  35  36
ENDBRANCH  30  35
ENDBRANCH  25  34
ENDBRANCH   4  25
TORSDOF 6
ENDMDL
MODEL 5
REMARK VINA RESULT:     -10.6      1.438      3.638
REMARK  Name = 11285205
REMARK  6 active torsions:
REMARK  status: ('A' for Active; 'I' for Inactive)
REMARK    1  A    between atoms: O_2  and  C_22
REMARK    2  A    between atoms: O_2  and  C_26
REMARK    3  A    between atoms: O_4  and  C_23
REMARK    4  A    between atoms: O_4  and  C_29
REMARK    5  A    between atoms: C_17  and  C_26
REMARK    6  A    between atoms: C_31  and  C_36
REMARK                            x       y       z     vdW  Elec       q    Type
REMARK                         _______ _______ _______ _____ _____    ______ ____
ROOT
ATOM      1  O   UNL     1     113.494 127.316 136.131  0.00  0.00    +0.000 OA
ATOM      2  O   UNL     1     111.091 128.877 135.953  0.00  0.00    +0.000 OA
ATOM      3  O   UNL     1     113.559 129.874 134.742  0.00  0.00    +0.000 OA
ATOM      4  C   UNL     1     112.280 126.842 136.718  0.00  0.00    +0.000 A 
ATOM      5  C   UNL     1     111.890 127.522 136.460  0.00  0.00    +0.000 A 
ATOM      6  C   UNL     1     113.082 126.738 136.554  0.00  0.00    +0.000 A 
ATOM      7  C   UNL     1     112.303 128.099 136.038  0.00  0.00    +0.000 A 
ATOM      8  C   UNL     1     113.105 127.995 135.874  0.00  0.00    +0.000 A 
ATOM      9  C   UNL     1     111.095 127.624 136.624  0.00  0.00    +0.000 A 
ATOM     10  C   UNL     1     111.886 128.803 135.775  0.00  0.00    +0.000 A 
ATOM     11  C   UNL     1     110.700 128.295 136.373  0.00  0.00    +0.000 A 
ATOM     12  C   UNL     1     113.545 128.589 135.435  0.00  0.00    +0.000 A 
ATOM     13  C   UNL     1     112.310 129.407 135.335  0.00  0.00    +0.000 A 
ATOM     14  C   UNL     1     113.145 129.299 135.164  0.00  0.00    +0.000 A 
ATOM     15  C   UNL     1     109.898 128.383 136.545  0.00  0.00    +0.000 C 
ENDROOT
BRANCH   6  19
ATOM     16  O   UNL     1     113.540 123.924 136.358  0.00  0.00    +0.000 OA
ATOM     17  O   UNL     1     114.961 125.471 138.295  0.00  0.00    +0.000 OA
ATOM     18  O   UNL     1     114.639 124.018 137.584  0.00  0.00    +0.000 OA
ATOM     19  C   UNL     1     113.471 126.059 136.811  0.00  0.00    +0.000 A 
ATOM     20  C   UNL     1     114.021 126.105 137.424  0.00  0.00    +0.000 A 
ATOM     21  C   UNL     1     113.311 125.332 136.456  0.00  0.00    +0.000 A 
ATOM     22  C   UNL     1     113.700 124.651 136.713  0.00  0.00    +0.000 A 
ATOM     23  C   UNL     1     114.410 125.425 137.682  0.00  0.00    +0.000 A 
ATOM     24  C   UNL     1     114.250 124.698 137.326  0.00  0.00    +0.000 A 
ENDBRANCH   6  19
BRANCH   4  25
ATOM     25  O   UNL     1     111.868 126.266 137.140  0.00  0.00    +0.000 OA
BRANCH  25  34
ATOM     26  O   UNL     1     111.976 127.041 138.335  0.00  0.00    +0.000 OA
ATOM     27  O   UNL     1     111.013 126.813 140.280  0.00  0.00    +0.000 OA
ATOM     28  O   UNL     1     110.368 125.534 139.460  0.00  0.00    +0.000 OA
ATOM     29  O   UNL     1     110.795 125.261 137.890  0.00  0.00    +0.000 OA
ATOM     30  C   UNL     1     111.763 127.178 139.120  0.00  0.00    +0.000 C 
ATOM     31  C   UNL     1     111.227 126.676 139.495  0.00  0.00    +0.000 C 
ATOM     32  C   UNL     1     110.904 126.036 139.085  0.00  0.00    +0.000 C 
ATOM     33  C   UNL     1     111.118 125.899 138.300  0.00  0.00    +0.000 C 
ATOM     34  C   UNL     1     111.654 126.402 137.925  0.00  0.00    +0.000 C 
BRANCH  30  35
ATOM     35  C   UNL     1     112.085 127.818 139.530  0.00  0.00    +0.000 C 
BRANCH  35  36
ATOM     36  O   UNL     1     112.903 127.882 139.617  0.00  0.00    +0.000 OA
BRANCH  36  42
ATOM     37  O   UNL     1     113.021 129.242 139.197  0.00  0.00    +0.000 OA
ATOM     38  O   UNL     1     114.068 128.134 140.758  0.00  0.00    +0.000 OA
ATOM     39  O   UNL     1     114.768 129.621 140.908  0.00  0.00    +0.000 OA
ATOM     40  O   UNL     1     114.303 130.855 139.917  0.00  0.00    +0.000 OA
ATOM     41  C   UNL     1     113.835 128.751 140.263  0.00  0.00    +0.000 C 
ATOM     42  C   UNL     1     113.253 128.624 139.692  0.00  0.00    +0.000 C 
ATOM     43  C   UNL     1     114.185 129.495 140.338  0.00  0.00    +0.000 C 
ATOM     44  C   UNL     1     113.953 130.111 139.842  0.00  0.00    +0.000 C 
ATOM     45  C   UNL     1     113.370 129.985 139.271  0.00  0.00    +0.000 C 
ATOM     46  C   UNL     1     113.138 130.603 138.776  0.00  0.00    +0.000 C 
ENDBRANCH  36  42
ENDBRANCH  35  36
ENDBRANCH  30  35
ENDBRANCH  25  34
ENDBRANCH   4  25
TORSDOF 6
ENDMDL
MODEL 6
REMARK VINA RESULT:     -10.6      1.696      3.970
REMARK  Name = 11285205
REMARK  6 active torsions:
REMARK  status: ('A' for Active; 'I' for Inactive)
REMARK    1  A    between atoms: O_2  and  C_22
REMARK    2  A    between atoms: O_2  and  C_26
REMARK    3  A    between atoms: O_4  and  C_23
REMARK    4  A    between atoms: O_4  and  C_29
REMARK    5  A    between atoms: C_17  and  C_26
REMARK    6  A    between atoms: C_31  and  C_36
REMARK                            x       y       z     vdW  Elec       q    Type
REMARK                         _______ _______ _______ _____ _____    ______ ____
ROOT
ATOM      1  O   UNL     1     111.856 128.578 135.688  0.00  0.00    +0.000 OA
ATOM      2  O   UNL     1     114.318 127.204 136.233  0.00  0.00    +0.000 OA
ATOM      3  O   UNL     1     114.382 129.878 135.049  0.00  0.00    +0.000 OA
ATOM      4  C   UNL     1     111.841 127.271 136.266  0.00  0.00    +0.000 A 
ATOM      5  C   UNL     1     112.666 127.256 136.252  0.00  0.00    +0.000 A 
ATOM      6  C   UNL     1     111.436 127.932 135.984  0.00  0.00    +0.000 A 
ATOM      7  C   UNL     1     113.085 127.902 135.956  0.00  0.00    +0.000 A 
ATOM      8  C   UNL     1     112.680 128.562 135.674  0.00  0.00    +0.000 A 
ATOM      9  C   UNL     1     113.067 126.600 136.532  0.00  0.00    +0.000 A 
ATOM     10  C   UNL     1     113.944 127.874 135.947  0.00  0.00    +0.000 A 
ATOM     11  C   UNL     1     113.885 126.575 136.523  0.00  0.00    +0.000 A 
ATOM     12  C   UNL     1     113.106 129.241 135.363  0.00  0.00    +0.000 A 
ATOM     13  C   UNL     1     114.387 128.543 135.639  0.00  0.00    +0.000 A 
ATOM     14  C   UNL     1     113.965 129.231 135.345  0.00  0.00    +0.000 A 
ATOM     15  C   UNL     1     114.275 125.907 136.809  0.00  0.00    +0.000 C 
ENDROOT
BRANCH   6  19
ATOM     16  O   UNL     1     108.926 126.969 135.014  0.00  0.00    +0.000 OA
ATOM     17  O   UNL     1     108.997 128.986 137.038  0.00  0.00    +0.000 OA
ATOM     18  O   UNL     1     108.137 127.992 136.040  0.00  0.00    +0.000 OA
ATOM     19  C   UNL     1     110.612 127.947 135.998  0.00  0.00    +0.000 A 
ATOM     20  C   UNL     1     110.216 128.459 136.511  0.00  0.00    +0.000 A 
ATOM     21  C   UNL     1     110.181 127.451 135.499  0.00  0.00    +0.000 A 
ATOM     22  C   UNL     1     109.356 127.466 135.513  0.00  0.00    +0.000 A 
ATOM     23  C   UNL     1     109.392 128.474 136.525  0.00  0.00    +0.000 A 
ATOM     24  C   UNL     1     108.962 127.978 136.026  0.00  0.00    +0.000 A 
ENDBRANCH   6  19
BRANCH   4  25
ATOM     25  O   UNL     1     111.422 126.626 136.563  0.00  0.00    +0.000 OA
BRANCH  25  34
ATOM     26  O   UNL     1     111.656 127.060 137.903  0.00  0.00    +0.000 OA
ATOM     27  O   UNL     1     111.383 126.030 139.808  0.00  0.00    +0.000 OA
ATOM     28  O   UNL     1     110.894 124.863 138.749  0.00  0.00    +0.000 OA
ATOM     29  O   UNL     1     110.913 125.161 137.126  0.00  0.00    +0.000 OA
ATOM     30  C   UNL     1     111.646 126.911 138.714  0.00  0.00    +0.000 C 
ATOM     31  C   UNL     1     111.392 126.179 138.997  0.00  0.00    +0.000 C 
ATOM     32  C   UNL     1     111.148 125.595 138.467  0.00  0.00    +0.000 C 
ATOM     33  C   UNL     1     111.158 125.744 137.655  0.00  0.00    +0.000 C 
ATOM     34  C   UNL     1     111.412 126.477 137.374  0.00  0.00    +0.000 C 
BRANCH  30  35
ATOM     35  C   UNL     1     111.891 127.495 139.244  0.00  0.00    +0.000 C 
BRANCH  35  36
ATOM     36  O   UNL     1     111.514 128.229 139.253  0.00  0.00    +0.000 OA
BRANCH  36  42
ATOM     37  O   UNL     1     112.725 128.984 139.324  0.00  0.00    +0.000 OA
ATOM     38  O   UNL     1     110.730 129.404 140.106  0.00  0.00    +0.000 OA
ATOM     39  O   UNL     1     111.549 130.747 140.604  0.00  0.00    +0.000 OA
ATOM     40  O   UNL     1     113.152 130.915 140.249  0.00  0.00    +0.000 OA
ATOM     41  C   UNL     1     111.531 129.487 139.928  0.00  0.00    +0.000 C 
ATOM     42  C   UNL     1     111.923 128.900 139.502  0.00  0.00    +0.000 C 
ATOM     43  C   UNL     1     111.941 130.159 140.178  0.00  0.00    +0.000 C 
ATOM     44  C   UNL     1     112.742 130.243 140.000  0.00  0.00    +0.000 C 
ATOM     45  C   UNL     1     113.134 129.655 139.573  0.00  0.00    +0.000 C 
ATOM     46  C   UNL     1     113.935 129.740 139.396  0.00  0.00    +0.000 C 
ENDBRANCH  36  42
ENDBRANCH  35  36
ENDBRANCH  30  35
ENDBRANCH  25  34
ENDBRANCH   4  25
TORSDOF 6
ENDMDL
MODEL 7
REMARK VINA RESULT:     -10.6      1.917      4.418
REMARK  Name = 11285205
REMARK  6 active torsions:
REMARK  status: ('A' for Active; 'I' for Inactive)
REMARK    1  A    between atoms: O_2  and  C_22
REMARK    2  A    between atoms: O_2  and  C_26
REMARK    3  A    between atoms: O_4  and  C_23
REMARK    4  A    between atoms: O_4  and  C_29
REMARK    5  A    between atoms: C_17  and  C_26
REMARK    6  A    between atoms: C_31  and  C_36
REMARK                            x       y       z     vdW  Elec       q    Type
REMARK                         _______ _______ _______ _____ _____    ______ ____
ROOT
ATOM      1  O   UNL     1     112.509 128.087 135.541  0.00  0.00    +0.000 OA
ATOM      2  O   UNL     1     113.661 129.599 137.694  0.00  0.00    +0.000 OA
ATOM      3  O   UNL     1     114.460 130.163 134.937  0.00  0.00    +0.000 OA
ATOM      4  C   UNL     1     112.129 127.823 136.893  0.00  0.00    +0.000 A 
ATOM      5  C   UNL     1     112.641 128.416 137.153  0.00  0.00    +0.000 A 
ATOM      6  C   UNL     1     112.063 127.659 136.087  0.00  0.00    +0.000 A 
ATOM      7  C   UNL     1     113.087 128.844 136.606  0.00  0.00    +0.000 A 
ATOM      8  C   UNL     1     113.021 128.679 135.800  0.00  0.00    +0.000 A 
ATOM      9  C   UNL     1     112.706 128.578 137.952  0.00  0.00    +0.000 A 
ATOM     10  C   UNL     1     113.617 129.459 136.889  0.00  0.00    +0.000 A 
ATOM     11  C   UNL     1     113.210 129.164 138.219  0.00  0.00    +0.000 A 
ATOM     12  C   UNL     1     113.480 129.118 135.221  0.00  0.00    +0.000 A 
ATOM     13  C   UNL     1     114.084 129.908 136.325  0.00  0.00    +0.000 A 
ATOM     14  C   UNL     1     114.015 129.737 135.486  0.00  0.00    +0.000 A 
ATOM     15  C   UNL     1     113.265 129.316 139.028  0.00  0.00    +0.000 C 
ENDROOT
BRANCH   6  19
ATOM     16  O   UNL     1     109.680 126.871 134.719  0.00  0.00    +0.000 OA
ATOM     17  O   UNL     1     111.372 124.892 135.898  0.00  0.00    +0.000 OA
ATOM     18  O   UNL     1     110.014 125.289 135.049  0.00  0.00    +0.000 OA
ATOM     19  C   UNL     1     111.551 127.066 135.828  0.00  0.00    +0.000 A 
ATOM     20  C   UNL     1     111.717 126.275 135.992  0.00  0.00    +0.000 A 
ATOM     21  C   UNL     1     110.872 127.265 135.403  0.00  0.00    +0.000 A 
ATOM     22  C   UNL     1     110.359 126.672 135.143  0.00  0.00    +0.000 A 
ATOM     23  C   UNL     1     111.206 125.683 135.733  0.00  0.00    +0.000 A 
ATOM     24  C   UNL     1     110.527 125.882 135.309  0.00  0.00    +0.000 A 
ENDBRANCH   6  19
BRANCH   4  25
ATOM     25  O   UNL     1     111.683 127.395 137.439  0.00  0.00    +0.000 OA
BRANCH  25  34
ATOM     26  O   UNL     1     110.729 128.454 137.529  0.00  0.00    +0.000 OA
ATOM     27  O   UNL     1     109.139 128.827 138.978  0.00  0.00    +0.000 OA
ATOM     28  O   UNL     1     109.776 127.424 139.568  0.00  0.00    +0.000 OA
ATOM     29  O   UNL     1     111.048 126.708 138.798  0.00  0.00    +0.000 OA
ATOM     30  C   UNL     1     110.093 128.812 137.914  0.00  0.00    +0.000 C 
ATOM     31  C   UNL     1     109.775 128.469 138.593  0.00  0.00    +0.000 C 
ATOM     32  C   UNL     1     110.094 127.767 138.888  0.00  0.00    +0.000 C 
ATOM     33  C   UNL     1     110.730 127.409 138.504  0.00  0.00    +0.000 C 
ATOM     34  C   UNL     1     111.047 127.753 137.824  0.00  0.00    +0.000 C 
BRANCH  30  35
ATOM     35  C   UNL     1     109.774 129.515 137.619  0.00  0.00    +0.000 C 
BRANCH  35  36
ATOM     36  O   UNL     1     109.446 129.533 136.863  0.00  0.00    +0.000 OA
BRANCH  36  42
ATOM     37  O   UNL     1     109.786 130.907 136.667  0.00  0.00    +0.000 OA
ATOM     38  O   UNL     1     108.226 129.678 135.761  0.00  0.00    +0.000 OA
ATOM     39  O   UNL     1     107.955 131.124 135.015  0.00  0.00    +0.000 OA
ATOM     40  O   UNL     1     108.905 132.426 135.369  0.00  0.00    +0.000 OA
ATOM     41  C   UNL     1     108.701 130.328 135.939  0.00  0.00    +0.000 C 
ATOM     42  C   UNL     1     109.311 130.256 136.490  0.00  0.00    +0.000 C 
ATOM     43  C   UNL     1     108.565 131.052 135.565  0.00  0.00    +0.000 C 
ATOM     44  C   UNL     1     109.040 131.702 135.743  0.00  0.00    +0.000 C 
ATOM     45  C   UNL     1     109.651 131.630 136.294  0.00  0.00    +0.000 C 
ATOM     46  C   UNL     1     110.125 132.281 136.471  0.00  0.00    +0.000 C 
ENDBRANCH  36  42
ENDBRANCH  35  36
ENDBRANCH  30  35
ENDBRANCH  25  34
ENDBRANCH   4  25
TORSDOF 6
ENDMDL
MODEL 8
REMARK VINA RESULT:     -10.5      1.464      3.827
REMARK  Name = 11285205
REMARK  6 active torsions:
REMARK  status: ('A' for Active; 'I' for Inactive)
REMARK    1  A    between atoms: O_2  and  C_22
REMARK    2  A    between atoms: O_2  and  C_26
REMARK    3  A    between atoms: O_4  and  C_23
REMARK    4  A    between atoms: O_4  and  C_29
REMARK    5  A    between atoms: C_17  and  C_26
REMARK    6  A    between atoms: C_31  and  C_36
REMARK                            x       y       z     vdW  Elec       q    Type
REMARK                         _______ _______ _______ _____ _____    ______ ____
ROOT
ATOM      1  O   UNL     1     112.235 128.776 138.584  0.00  0.00    +0.000 OA
ATOM      2  O   UNL     1     113.910 128.963 136.259  0.00  0.00    +0.000 OA
ATOM      3  O   UNL     1     113.014 131.404 137.599  0.00  0.00    +0.000 OA
ATOM      4  C   UNL     1     112.681 127.593 137.919  0.00  0.00    +0.000 A 
ATOM      5  C   UNL     1     113.088 128.055 137.369  0.00  0.00    +0.000 A 
ATOM      6  C   UNL     1     112.254 127.953 138.526  0.00  0.00    +0.000 A 
ATOM      7  C   UNL     1     113.068 128.878 137.428  0.00  0.00    +0.000 A 
ATOM      8  C   UNL     1     112.642 129.238 138.036  0.00  0.00    +0.000 A 
ATOM      9  C   UNL     1     113.510 127.697 136.767  0.00  0.00    +0.000 A 
ATOM     10  C   UNL     1     113.496 129.349 136.850  0.00  0.00    +0.000 A 
ATOM     11  C   UNL     1     113.917 128.147 136.218  0.00  0.00    +0.000 A 
ATOM     12  C   UNL     1     112.614 130.095 138.107  0.00  0.00    +0.000 A 
ATOM     13  C   UNL     1     113.479 130.206 136.906  0.00  0.00    +0.000 A 
ATOM     14  C   UNL     1     113.035 130.581 137.538  0.00  0.00    +0.000 A 
ATOM     15  C   UNL     1     114.339 127.771 135.616  0.00  0.00    +0.000 C 
ENDROOT
BRANCH   6  19
ATOM     16  O   UNL     1     112.275 126.189 140.774  0.00  0.00    +0.000 OA
ATOM     17  O   UNL     1     109.794 126.942 139.572  0.00  0.00    +0.000 OA
ATOM     18  O   UNL     1     110.628 126.103 140.722  0.00  0.00    +0.000 OA
ATOM     19  C   UNL     1     111.848 127.491 139.074  0.00  0.00    +0.000 A 
ATOM     20  C   UNL     1     111.024 127.448 139.049  0.00  0.00    +0.000 A 
ATOM     21  C   UNL     1     112.265 127.071 139.650  0.00  0.00    +0.000 A 
ATOM     22  C   UNL     1     111.858 126.608 140.199  0.00  0.00    +0.000 A 
ATOM     23  C   UNL     1     110.618 126.986 139.597  0.00  0.00    +0.000 A 
ATOM     24  C   UNL     1     111.035 126.566 140.172  0.00  0.00    +0.000 A 
ENDBRANCH   6  19
BRANCH   4  25
ATOM     25  O   UNL     1     112.701 126.770 137.860  0.00  0.00    +0.000 OA
BRANCH  25  34
ATOM     26  O   UNL     1     111.725 126.805 136.817  0.00  0.00    +0.000 OA
ATOM     27  O   UNL     1     111.029 125.245 135.458  0.00  0.00    +0.000 OA
ATOM     28  O   UNL     1     112.144 124.412 136.344  0.00  0.00    +0.000 OA
ATOM     29  O   UNL     1     112.980 125.175 137.544  0.00  0.00    +0.000 OA
ATOM     30  C   UNL     1     111.307 126.424 136.216  0.00  0.00    +0.000 C 
ATOM     31  C   UNL     1     111.447 125.627 136.058  0.00  0.00    +0.000 C 
ATOM     32  C   UNL     1     112.005 125.210 136.502  0.00  0.00    +0.000 C 
ATOM     33  C   UNL     1     112.423 125.591 137.102  0.00  0.00    +0.000 C 
ATOM     34  C   UNL     1     112.283 126.389 137.259  0.00  0.00    +0.000 C 
BRANCH  30  35
ATOM     35  C   UNL     1     110.749 126.841 135.773  0.00  0.00    +0.000 C 
BRANCH  35  36
ATOM     36  O   UNL     1     110.092 127.173 136.144  0.00  0.00    +0.000 OA
BRANCH  36  42
ATOM     37  O   UNL     1     110.257 128.414 135.457  0.00  0.00    +0.000 OA
ATOM     38  O   UNL     1     108.505 127.535 136.417  0.00  0.00    +0.000 OA
ATOM     39  O   UNL     1     107.878 128.959 135.867  0.00  0.00    +0.000 OA
ATOM     40  O   UNL     1     108.836 130.019 135.042  0.00  0.00    +0.000 OA
ATOM     41  C   UNL     1     108.985 128.065 136.005  0.00  0.00    +0.000 C 
ATOM     42  C   UNL     1     109.778 127.884 135.869  0.00  0.00    +0.000 C 
ATOM     43  C   UNL     1     108.671 128.777 135.730  0.00  0.00    +0.000 C 
ATOM     44  C   UNL     1     109.151 129.307 135.318  0.00  0.00    +0.000 C 
ATOM     45  C   UNL     1     109.944 129.125 135.181  0.00  0.00    +0.000 C 
ATOM     46  C   UNL     1     110.423 129.656 134.769  0.00  0.00    +0.000 C 
ENDBRANCH  36  42
ENDBRANCH  35  36
ENDBRANCH  30  35
ENDBRANCH  25  34
ENDBRANCH   4  25
TORSDOF 6
ENDMDL
MODEL 9
REMARK VINA RESULT:     -10.5      1.389      4.706
REMARK  Name = 11285205
REMARK  6 active torsions:
REMARK  status: ('A' for Active; 'I' for Inactive)
REMARK    1  A    between atoms: O_2  and  C_22
REMARK    2  A    between atoms: O_2  and  C_26
REMARK    3  A    between atoms: O_4  and  C_23
REMARK    4  A    between atoms: O_4  and  C_29
REMARK    5  A    between atoms: C_17  and  C_26
REMARK    6  A    between atoms: C_31  and  C_36
REMARK                            x       y       z     vdW  Elec       q    Type
REMARK                         _______ _______ _______ _____ _____    ______ ____
ROOT
ATOM      1  O   UNL     1     111.859 129.070 135.637  0.00  0.00    +0.000 OA
ATOM      2  O   UNL     1     113.929 129.911 137.441  0.00  0.00    +0.000 OA
ATOM      3  O   UNL     1     114.566 129.429 134.627  0.00  0.00    +0.000 OA
ATOM      4  C   UNL     1     111.563 129.309 137.015  0.00  0.00    +0.000 A 
ATOM      5  C   UNL     1     112.352 129.508 137.150  0.00  0.00    +0.000 A 
ATOM      6  C   UNL     1     111.316 129.090 136.259  0.00  0.00    +0.000 A 
ATOM      7  C   UNL     1     112.894 129.488 136.528  0.00  0.00    +0.000 A 
ATOM      8  C   UNL     1     112.647 129.269 135.772  0.00  0.00    +0.000 A 
ATOM      9  C   UNL     1     112.596 129.726 137.900  0.00  0.00    +0.000 A 
ATOM     10  C   UNL     1     113.714 129.698 136.681  0.00  0.00    +0.000 A 
ATOM     11  C   UNL     1     113.376 129.925 138.043  0.00  0.00    +0.000 A 
ATOM     12  C   UNL     1     113.203 129.244 135.116  0.00  0.00    +0.000 A 
ATOM     13  C   UNL     1     114.283 129.678 136.038  0.00  0.00    +0.000 A 
ATOM     14  C   UNL     1     114.026 129.450 135.251  0.00  0.00    +0.000 A 
ATOM     15  C   UNL     1     113.607 130.142 138.805  0.00  0.00    +0.000 C 
ENDROOT
BRANCH   6  19
ATOM     16  O   UNL     1     108.573 129.861 136.030  0.00  0.00    +0.000 OA
ATOM     17  O   UNL     1     109.322 127.125 135.679  0.00  0.00    +0.000 OA
ATOM     18  O   UNL     1     108.158 128.294 135.720  0.00  0.00    +0.000 OA
ATOM     19  C   UNL     1     110.527 128.891 136.124  0.00  0.00    +0.000 A 
ATOM     20  C   UNL     1     110.319 128.108 135.969  0.00  0.00    +0.000 A 
ATOM     21  C   UNL     1     109.945 129.475 136.145  0.00  0.00    +0.000 A 
ATOM     22  C   UNL     1     109.155 129.277 136.010  0.00  0.00    +0.000 A 
ATOM     23  C   UNL     1     109.530 127.909 135.835  0.00  0.00    +0.000 A 
ATOM     24  C   UNL     1     108.948 128.493 135.855  0.00  0.00    +0.000 A 
ENDBRANCH   6  19
BRANCH   4  25
ATOM     25  O   UNL     1     111.021 129.330 137.636  0.00  0.00    +0.000 OA
BRANCH  25  34
ATOM     26  O   UNL     1     111.454 128.047 138.093  0.00  0.00    +0.000 OA
ATOM     27  O   UNL     1     111.114 127.014 139.986  0.00  0.00    +0.000 OA
ATOM     28  O   UNL     1     110.294 128.422 140.247  0.00  0.00    +0.000 OA
ATOM     29  O   UNL     1     110.247 129.580 139.072  0.00  0.00    +0.000 OA
ATOM     30  C   UNL     1     111.477 127.469 138.680  0.00  0.00    +0.000 C 
ATOM     31  C   UNL     1     111.091 127.593 139.398  0.00  0.00    +0.000 C 
ATOM     32  C   UNL     1     110.680 128.298 139.529  0.00  0.00    +0.000 C 
ATOM     33  C   UNL     1     110.657 128.876 138.941  0.00  0.00    +0.000 C 
ATOM     34  C   UNL     1     111.044 128.751 138.224  0.00  0.00    +0.000 C 
BRANCH  30  35
ATOM     35  C   UNL     1     111.887 126.764 138.550  0.00  0.00    +0.000 C 
BRANCH  35  36
ATOM     36  O   UNL     1     111.606 126.218 137.999  0.00  0.00    +0.000 OA
BRANCH  36  42
ATOM     37  O   UNL     1     112.890 125.982 137.418  0.00  0.00    +0.000 OA
ATOM     38  O   UNL     1     111.144 124.685 137.602  0.00  0.00    +0.000 OA
ATOM     39  O   UNL     1     112.196 123.682 136.823  0.00  0.00    +0.000 OA
ATOM     40  O   UNL     1     113.711 124.212 136.440  0.00  0.00    +0.000 OA
ATOM     41  C   UNL     1     111.901 124.951 137.411  0.00  0.00    +0.000 C 
ATOM     42  C   UNL     1     112.132 125.717 137.610  0.00  0.00    +0.000 C 
ATOM     43  C   UNL     1     112.427 124.448 137.021  0.00  0.00    +0.000 C 
ATOM     44  C   UNL     1     113.185 124.714 136.830  0.00  0.00    +0.000 C 
ATOM     45  C   UNL     1     113.416 125.481 137.028  0.00  0.00    +0.000 C 
ATOM     46  C   UNL     1     114.174 125.745 136.837  0.00  0.00    +0.000 C 
ENDBRANCH  36  42
ENDBRANCH  35  36
ENDBRANCH  30  35
ENDBRANCH  25  34
ENDBRANCH   4  25
TORSDOF 6
ENDMDL
MODEL 10
REMARK VINA RESULT:     -10.5      1.396      4.359
REMARK  Name = 11285205
REMARK  6 active torsions:
REMARK  status: ('A' for Active; 'I' for Inactive)
REMARK    1  A    between atoms: O_2  and  C_22
REMARK    2  A    between atoms: O_2  and  C_26
REMARK    3  A    between atoms: O_4  and  C_23
REMARK    4  A    between atoms: O_4  and  C_29
REMARK    5  A    between atoms: C_17  and  C_26
REMARK    6  A    between atoms: C_31  and  C_36
REMARK                            x       y       z     vdW  Elec       q    Type
REMARK                         _______ _______ _______ _____ _____    ______ ____
ROOT
ATOM      1  O   UNL     1     111.052 125.420 136.572  0.00  0.00    +0.000 OA
ATOM      2  O   UNL     1     113.873 124.895 136.688  0.00  0.00    +0.000 OA
ATOM      3  O   UNL     1     111.973 122.739 137.237  0.00  0.00    +0.000 OA
ATOM      4  C   UNL     1     111.992 126.463 136.306  0.00  0.00    +0.000 A 
ATOM      5  C   UNL     1     112.613 125.935 136.435  0.00  0.00    +0.000 A 
ATOM      6  C   UNL     1     111.211 126.206 136.375  0.00  0.00    +0.000 A 
ATOM      7  C   UNL     1     112.453 125.151 136.632  0.00  0.00    +0.000 A 
ATOM      8  C   UNL     1     111.672 124.893 136.700  0.00  0.00    +0.000 A 
ATOM      9  C   UNL     1     113.387 126.192 136.367  0.00  0.00    +0.000 A 
ATOM     10  C   UNL     1     113.109 124.610 136.763  0.00  0.00    +0.000 A 
ATOM     11  C   UNL     1     114.010 125.676 136.492  0.00  0.00    +0.000 A 
ATOM     12  C   UNL     1     111.493 124.077 136.905  0.00  0.00    +0.000 A 
ATOM     13  C   UNL     1     112.949 123.792 136.969  0.00  0.00    +0.000 A 
ATOM     14  C   UNL     1     112.136 123.524 137.040  0.00  0.00    +0.000 A 
ATOM     15  C   UNL     1     114.785 125.950 136.420  0.00  0.00    +0.000 C 
ENDROOT
BRANCH   6  19
ATOM     16  O   UNL     1     109.719 127.890 134.612  0.00  0.00    +0.000 OA
ATOM     17  O   UNL     1     108.977 127.688 137.364  0.00  0.00    +0.000 OA
ATOM     18  O   UNL     1     108.727 128.316 135.859  0.00  0.00    +0.000 OA
ATOM     19  C   UNL     1     110.590 126.733 136.246  0.00  0.00    +0.000 A 
ATOM     20  C   UNL     1     110.094 126.947 136.870  0.00  0.00    +0.000 A 
ATOM     21  C   UNL     1     110.466 127.047 135.494  0.00  0.00    +0.000 A 
ATOM     22  C   UNL     1     109.844 127.575 135.365  0.00  0.00    +0.000 A 
ATOM     23  C   UNL     1     109.473 127.474 136.741  0.00  0.00    +0.000 A 
ATOM     24  C   UNL     1     109.348 127.788 135.989  0.00  0.00    +0.000 A 
ENDBRANCH   6  19
BRANCH   4  25
ATOM     25  O   UNL     1     112.152 127.248 136.109  0.00  0.00    +0.000 OA
BRANCH  25  34
ATOM     26  O   UNL     1     112.361 127.595 137.479  0.00  0.00    +0.000 OA
ATOM     27  O   UNL     1     113.370 129.306 138.383  0.00  0.00    +0.000 OA
ATOM     28  O   UNL     1     113.561 129.643 136.779  0.00  0.00    +0.000 OA
ATOM     29  O   UNL     1     112.952 128.613 135.642  0.00  0.00    +0.000 OA
ATOM     30  C   UNL     1     112.665 128.109 138.047  0.00  0.00    +0.000 C 
ATOM     31  C   UNL     1     113.066 128.792 137.814  0.00  0.00    +0.000 C 
ATOM     32  C   UNL     1     113.161 128.960 137.012  0.00  0.00    +0.000 C 
ATOM     33  C   UNL     1     112.856 128.445 136.443  0.00  0.00    +0.000 C 
ATOM     34  C   UNL     1     112.456 127.763 136.678  0.00  0.00    +0.000 C 
BRANCH  30  35
ATOM     35  C   UNL     1     112.570 127.941 138.850  0.00  0.00    +0.000 C 
BRANCH  35  36
ATOM     36  O   UNL     1     111.904 127.528 139.109  0.00  0.00    +0.000 OA
BRANCH  36  42
ATOM     37  O   UNL     1     111.618 128.226 140.322  0.00  0.00    +0.000 OA
ATOM     38  O   UNL     1     111.706 126.089 139.891  0.00  0.00    +0.000 OA
ATOM     39  O   UNL     1     111.321 126.067 141.495  0.00  0.00    +0.000 OA
ATOM     40  O   UNL     1     111.134 127.485 142.317  0.00  0.00    +0.000 OA
ATOM     41  C   UNL     1     111.613 126.798 140.301  0.00  0.00    +0.000 C 
ATOM     42  C   UNL     1     111.712 127.518 139.910  0.00  0.00    +0.000 C 
ATOM     43  C   UNL     1     111.420 126.787 141.104  0.00  0.00    +0.000 C 
ATOM     44  C   UNL     1     111.326 127.496 141.515  0.00  0.00    +0.000 C 
ATOM     45  C   UNL     1     111.426 128.216 141.124  0.00  0.00    +0.000 C 
ATOM     46  C   UNL     1     111.332 128.925 141.536  0.00  0.00    +0.000 C 
ENDBRANCH  36  42
ENDBRANCH  35  36
ENDBRANCH  30  35
ENDBRANCH  25  34
ENDBRANCH   4  25
TORSDOF 6
ENDMDL
