MODEL 1
REMARK VINA RESULT:     -10.5      0.000      0.000
REMARK  Name = 44257874
REMARK  6 active torsions:
REMARK  status: ('A' for Active; 'I' for Inactive)
REMARK    1  A    between atoms: O_1  and  C_15
REMARK    2  A    between atoms: O_1  and  C_20
REMARK    3  A    between atoms: O_14  and  C_41
REMARK    4  A    between atoms: C_17  and  C_25
REMARK    5  A    between atoms: C_19  and  C_26
REMARK    6  A    between atoms: C_35  and  C_36
REMARK                            x       y       z     vdW  Elec       q    Type
REMARK                         _______ _______ _______ _____ _____    ______ ____
ROOT
ATOM      1  O   UNL     1     107.507 125.344 147.137  0.00  0.00    +0.000 OA
ATOM      2  O   UNL     1     105.900 124.465 148.800  0.00  0.00    +0.000 OA
ATOM      3  O   UNL     1     107.519 124.423 149.115  0.00  0.00    +0.000 OA
ATOM      4  C   UNL     1     106.161 125.072 147.534  0.00  0.00    +0.000 C 
ATOM      5  C   UNL     1     106.436 124.758 148.246  0.00  0.00    +0.000 C 
ATOM      6  C   UNL     1     106.697 125.365 146.979  0.00  0.00    +0.000 C 
ATOM      7  C   UNL     1     107.245 124.737 148.403  0.00  0.00    +0.000 C 
ATOM      8  C   UNL     1     107.781 125.031 147.848  0.00  0.00    +0.000 C 
ENDROOT
BRANCH   6  13
ATOM      9  O   UNL     1     106.639 127.001 146.767  0.00  0.00    +0.000 OA
ATOM     10  O   UNL     1     106.207 124.358 145.768  0.00  0.00    +0.000 OA
ATOM     11  O   UNL     1     105.587 126.623 144.097  0.00  0.00    +0.000 OA
ATOM     12  O   UNL     1     106.341 128.161 145.962  0.00  0.00    +0.000 OA
ATOM     13  C   UNL     1     106.423 125.679 146.267  0.00  0.00    +0.000 A 
ATOM     14  C   UNL     1     106.394 126.497 146.162  0.00  0.00    +0.000 A 
ATOM     15  C   UNL     1     106.178 125.176 145.661  0.00  0.00    +0.000 A 
ATOM     16  C   UNL     1     106.120 126.811 145.449  0.00  0.00    +0.000 A 
ATOM     17  C   UNL     1     105.904 125.490 144.950  0.00  0.00    +0.000 A 
ATOM     18  C   UNL     1     105.875 126.308 144.843  0.00  0.00    +0.000 A 
ATOM     19  C   UNL     1     106.094 127.664 145.351  0.00  0.00    +0.000 A 
ATOM     20  C   UNL     1     105.810 127.999 144.612  0.00  0.00    +0.000 A 
ATOM     21  C   UNL     1     105.555 127.474 143.981  0.00  0.00    +0.000 A 
BRANCH  21  22
ATOM     22  C   UNL     1     105.280 127.785 143.268  0.00  0.00    +0.000 A 
ATOM     23  C   UNL     1     105.479 127.421 142.555  0.00  0.00    +0.000 A 
ATOM     24  C   UNL     1     104.806 128.461 143.268  0.00  0.00    +0.000 A 
ATOM     25  C   UNL     1     105.205 127.732 141.842  0.00  0.00    +0.000 A 
ATOM     26  C   UNL     1     104.532 128.772 142.554  0.00  0.00    +0.000 A 
ATOM     27  C   UNL     1     104.732 128.407 141.842  0.00  0.00    +0.000 A 
BRANCH  27  28
ATOM     28  O   UNL     1     104.457 128.719 141.129  0.00  0.00    +0.000 OA
ATOM     29  C   UNL     1     103.646 128.773 140.987  0.00  0.00    +0.000 C 
ENDBRANCH  27  28
ENDBRANCH  21  22
ENDBRANCH   6  13
BRANCH   8  31
ATOM     30  O   UNL     1     109.132 124.988 147.382  0.00  0.00    +0.000 OA
ATOM     31  C   UNL     1     108.590 125.010 148.005  0.00  0.00    +0.000 C 
ENDBRANCH   8  31
BRANCH   4  32
ATOM     32  O   UNL     1     105.352 125.093 147.376  0.00  0.00    +0.000 OA
BRANCH  32  37
ATOM     33  O   UNL     1     105.057 126.092 148.354  0.00  0.00    +0.000 OA
ATOM     34  O   UNL     1     103.868 124.415 147.621  0.00  0.00    +0.000 OA
ATOM     35  O   UNL     1     102.830 125.075 148.721  0.00  0.00    +0.000 OA
ATOM     36  O   UNL     1     103.277 126.413 149.577  0.00  0.00    +0.000 OA
ATOM     37  C   UNL     1     104.834 125.423 147.927  0.00  0.00    +0.000 C 
ATOM     38  C   UNL     1     104.091 125.084 148.049  0.00  0.00    +0.000 C 
ATOM     39  C   UNL     1     103.572 125.414 148.599  0.00  0.00    +0.000 C 
ATOM     40  C   UNL     1     103.796 126.083 149.026  0.00  0.00    +0.000 C 
ATOM     41  C   UNL     1     104.539 126.422 148.904  0.00  0.00    +0.000 C 
ATOM     42  C   UNL     1     104.761 127.091 149.332  0.00  0.00    +0.000 C 
ENDBRANCH  32  37
ENDBRANCH   4  32
TORSDOF 6
ENDMDL
MODEL 2
REMARK VINA RESULT:     -10.5      7.740     10.399
REMARK  Name = 44257874
REMARK  6 active torsions:
REMARK  status: ('A' for Active; 'I' for Inactive)
REMARK    1  A    between atoms: O_1  and  C_15
REMARK    2  A    between atoms: O_1  and  C_20
REMARK    3  A    between atoms: O_14  and  C_41
REMARK    4  A    between atoms: C_17  and  C_25
REMARK    5  A    between atoms: C_19  and  C_26
REMARK    6  A    between atoms: C_35  and  C_36
REMARK                            x       y       z     vdW  Elec       q    Type
REMARK                         _______ _______ _______ _____ _____    ______ ____
ROOT
ATOM      1  O   UNL     1     110.302 130.847 141.709  0.00  0.00    +0.000 OA
ATOM      2  O   UNL     1     112.100 130.581 140.030  0.00  0.00    +0.000 OA
ATOM      3  O   UNL     1     110.519 130.501 139.565  0.00  0.00    +0.000 OA
ATOM      4  C   UNL     1     111.692 130.798 141.382  0.00  0.00    +0.000 C 
ATOM      5  C   UNL     1     111.500 130.669 140.589  0.00  0.00    +0.000 C 
ATOM      6  C   UNL     1     111.092 130.887 141.941  0.00  0.00    +0.000 C 
ATOM      7  C   UNL     1     110.710 130.630 140.357  0.00  0.00    +0.000 C 
ATOM      8  C   UNL     1     110.111 130.719 140.918  0.00  0.00    +0.000 C 
ENDROOT
BRANCH   6  13
ATOM      9  O   UNL     1     111.525 132.395 142.451  0.00  0.00    +0.000 OA
ATOM     10  O   UNL     1     111.042 129.636 143.016  0.00  0.00    +0.000 OA
ATOM     11  O   UNL     1     111.864 131.394 145.146  0.00  0.00    +0.000 OA
ATOM     12  O   UNL     1     111.938 133.308 143.490  0.00  0.00    +0.000 OA
ATOM     13  C   UNL     1     111.284 131.015 142.734  0.00  0.00    +0.000 A 
ATOM     14  C   UNL     1     111.500 131.770 142.988  0.00  0.00    +0.000 A 
ATOM     15  C   UNL     1     111.259 130.390 143.272  0.00  0.00    +0.000 A 
ATOM     16  C   UNL     1     111.692 131.898 143.781  0.00  0.00    +0.000 A 
ATOM     17  C   UNL     1     111.450 130.518 144.063  0.00  0.00    +0.000 A 
ATOM     18  C   UNL     1     111.667 131.273 144.319  0.00  0.00    +0.000 A 
ATOM     19  C   UNL     1     111.915 132.688 144.034  0.00  0.00    +0.000 A 
ATOM     20  C   UNL     1     112.116 132.829 144.858  0.00  0.00    +0.000 A 
ATOM     21  C   UNL     1     112.090 132.177 145.418  0.00  0.00    +0.000 A 
BRANCH  21  22
ATOM     22  C   UNL     1     112.281 132.303 146.210  0.00  0.00    +0.000 A 
ATOM     23  C   UNL     1     112.998 132.027 146.511  0.00  0.00    +0.000 A 
ATOM     24  C   UNL     1     111.755 132.706 146.702  0.00  0.00    +0.000 A 
ATOM     25  C   UNL     1     113.189 132.152 147.303  0.00  0.00    +0.000 A 
ATOM     26  C   UNL     1     111.947 132.831 147.495  0.00  0.00    +0.000 A 
ATOM     27  C   UNL     1     112.664 132.554 147.795  0.00  0.00    +0.000 A 
BRANCH  27  28
ATOM     28  O   UNL     1     112.855 132.680 148.588  0.00  0.00    +0.000 OA
ATOM     29  C   UNL     1     112.283 132.965 149.110  0.00  0.00    +0.000 C 
ENDBRANCH  27  28
ENDBRANCH  21  22
ENDBRANCH   6  13
BRANCH   8  31
ATOM     30  O   UNL     1     108.771 131.210 140.997  0.00  0.00    +0.000 OA
ATOM     31  C   UNL     1     109.320 130.679 140.685  0.00  0.00    +0.000 C 
ENDBRANCH   8  31
BRANCH   4  32
ATOM     32  O   UNL     1     112.483 130.838 141.614  0.00  0.00    +0.000 OA
BRANCH  32  37
ATOM     33  O   UNL     1     112.778 129.463 141.358  0.00  0.00    +0.000 OA
ATOM     34  O   UNL     1     114.014 131.252 141.161  0.00  0.00    +0.000 OA
ATOM     35  O   UNL     1     115.075 130.084 140.678  0.00  0.00    +0.000 OA
ATOM     36  O   UNL     1     114.605 128.503 140.648  0.00  0.00    +0.000 OA
ATOM     37  C   UNL     1     113.013 130.253 141.373  0.00  0.00    +0.000 C 
ATOM     38  C   UNL     1     113.779 130.460 141.146  0.00  0.00    +0.000 C 
ATOM     39  C   UNL     1     114.310 129.877 140.904  0.00  0.00    +0.000 C 
ATOM     40  C   UNL     1     114.074 129.087 140.890  0.00  0.00    +0.000 C 
ATOM     41  C   UNL     1     113.308 128.880 141.116  0.00  0.00    +0.000 C 
ATOM     42  C   UNL     1     113.074 128.089 141.101  0.00  0.00    +0.000 C 
ENDBRANCH  32  37
ENDBRANCH   4  32
TORSDOF 6
ENDMDL
MODEL 3
REMARK VINA RESULT:     -10.1      1.860      6.605
REMARK  Name = 44257874
REMARK  6 active torsions:
REMARK  status: ('A' for Active; 'I' for Inactive)
REMARK    1  A    between atoms: O_1  and  C_15
REMARK    2  A    between atoms: O_1  and  C_20
REMARK    3  A    between atoms: O_14  and  C_41
REMARK    4  A    between atoms: C_17  and  C_25
REMARK    5  A    between atoms: C_19  and  C_26
REMARK    6  A    between atoms: C_35  and  C_36
REMARK                            x       y       z     vdW  Elec       q    Type
REMARK                         _______ _______ _______ _____ _____    ______ ____
ROOT
ATOM      1  O   UNL     1     105.089 128.283 143.274  0.00  0.00    +0.000 OA
ATOM      2  O   UNL     1     106.757 128.346 141.447  0.00  0.00    +0.000 OA
ATOM      3  O   UNL     1     105.247 128.967 141.208  0.00  0.00    +0.000 OA
ATOM      4  C   UNL     1     106.400 127.993 142.785  0.00  0.00    +0.000 C 
ATOM      5  C   UNL     1     106.201 128.325 142.055  0.00  0.00    +0.000 C 
ATOM      6  C   UNL     1     105.844 127.972 143.394  0.00  0.00    +0.000 C 
ATOM      7  C   UNL     1     105.446 128.636 141.936  0.00  0.00    +0.000 C 
ATOM      8  C   UNL     1     104.890 128.614 142.546  0.00  0.00    +0.000 C 
ENDROOT
BRANCH   6  13
ATOM      9  O   UNL     1     105.341 126.447 143.770  0.00  0.00    +0.000 OA
ATOM     10  O   UNL     1     106.745 128.834 144.474  0.00  0.00    +0.000 OA
ATOM     11  O   UNL     1     106.656 126.643 146.342  0.00  0.00    +0.000 OA
ATOM     12  O   UNL     1     105.273 125.327 144.678  0.00  0.00    +0.000 OA
ATOM     13  C   UNL     1     106.043 127.640 144.123  0.00  0.00    +0.000 A 
ATOM     14  C   UNL     1     105.791 126.878 144.311  0.00  0.00    +0.000 A 
ATOM     15  C   UNL     1     106.494 128.071 144.663  0.00  0.00    +0.000 A 
ATOM     16  C   UNL     1     105.991 126.546 145.040  0.00  0.00    +0.000 A 
ATOM     17  C   UNL     1     106.693 127.740 145.391  0.00  0.00    +0.000 A 
ATOM     18  C   UNL     1     106.442 126.977 145.580  0.00  0.00    +0.000 A 
ATOM     19  C   UNL     1     105.723 125.751 145.224  0.00  0.00    +0.000 A 
ATOM     20  C   UNL     1     105.927 125.399 145.981  0.00  0.00    +0.000 A 
ATOM     21  C   UNL     1     106.397 125.848 146.544  0.00  0.00    +0.000 A 
BRANCH  21  22
ATOM     22  C   UNL     1     106.597 125.519 147.274  0.00  0.00    +0.000 A 
ATOM     23  C   UNL     1     107.370 125.267 147.414  0.00  0.00    +0.000 A 
ATOM     24  C   UNL     1     106.025 125.441 147.862  0.00  0.00    +0.000 A 
ATOM     25  C   UNL     1     107.571 124.938 148.142  0.00  0.00    +0.000 A 
ATOM     26  C   UNL     1     106.226 125.111 148.592  0.00  0.00    +0.000 A 
ATOM     27  C   UNL     1     107.000 124.860 148.731  0.00  0.00    +0.000 A 
BRANCH  27  28
ATOM     28  O   UNL     1     107.200 124.531 149.461  0.00  0.00    +0.000 OA
ATOM     29  C   UNL     1     107.956 124.221 149.579  0.00  0.00    +0.000 C 
ENDBRANCH  27  28
ENDBRANCH  21  22
ENDBRANCH   6  13
BRANCH   8  31
ATOM     30  O   UNL     1     103.829 129.481 142.954  0.00  0.00    +0.000 OA
ATOM     31  C   UNL     1     104.135 128.925 142.426  0.00  0.00    +0.000 C 
ENDBRANCH   8  31
BRANCH   4  32
ATOM     32  O   UNL     1     107.155 127.683 142.904  0.00  0.00    +0.000 OA
BRANCH  32  37
ATOM     33  O   UNL     1     107.000 126.577 142.012  0.00  0.00    +0.000 OA
ATOM     34  O   UNL     1     108.750 127.790 142.494  0.00  0.00    +0.000 OA
ATOM     35  O   UNL     1     109.392 126.738 141.397  0.00  0.00    +0.000 OA
ATOM     36  O   UNL     1     108.439 125.578 140.710  0.00  0.00    +0.000 OA
ATOM     37  C   UNL     1     107.475 127.156 142.356  0.00  0.00    +0.000 C 
ATOM     38  C   UNL     1     108.273 127.210 142.150  0.00  0.00    +0.000 C 
ATOM     39  C   UNL     1     108.594 126.684 141.602  0.00  0.00    +0.000 C 
ATOM     40  C   UNL     1     108.118 126.105 141.259  0.00  0.00    +0.000 C 
ATOM     41  C   UNL     1     107.320 126.051 141.464  0.00  0.00    +0.000 C 
ATOM     42  C   UNL     1     106.845 125.471 141.121  0.00  0.00    +0.000 C 
ENDBRANCH  32  37
ENDBRANCH   4  32
TORSDOF 6
ENDMDL
MODEL 4
REMARK VINA RESULT:     -10.1      9.436     11.230
REMARK  Name = 44257874
REMARK  6 active torsions:
REMARK  status: ('A' for Active; 'I' for Inactive)
REMARK    1  A    between atoms: O_1  and  C_15
REMARK    2  A    between atoms: O_1  and  C_20
REMARK    3  A    between atoms: O_14  and  C_41
REMARK    4  A    between atoms: C_17  and  C_25
REMARK    5  A    between atoms: C_19  and  C_26
REMARK    6  A    between atoms: C_35  and  C_36
REMARK                            x       y       z     vdW  Elec       q    Type
REMARK                         _______ _______ _______ _____ _____    ______ ____
ROOT
ATOM      1  O   UNL     1     112.602 125.153 137.516  0.00  0.00    +0.000 OA
ATOM      2  O   UNL     1     110.508 124.989 136.208  0.00  0.00    +0.000 OA
ATOM      3  O   UNL     1     111.739 123.925 135.933  0.00  0.00    +0.000 OA
ATOM      4  C   UNL     1     111.289 125.631 137.218  0.00  0.00    +0.000 C 
ATOM      5  C   UNL     1     111.206 125.043 136.644  0.00  0.00    +0.000 C 
ATOM      6  C   UNL     1     111.987 125.685 137.653  0.00  0.00    +0.000 C 
ATOM      7  C   UNL     1     111.821 124.511 136.506  0.00  0.00    +0.000 C 
ATOM      8  C   UNL     1     112.520 124.567 136.943  0.00  0.00    +0.000 C 
ENDROOT
BRANCH   6  13
ATOM      9  O   UNL     1     112.855 127.049 137.319  0.00  0.00    +0.000 OA
ATOM     10  O   UNL     1     111.285 125.497 139.135  0.00  0.00    +0.000 OA
ATOM     11  O   UNL     1     112.314 128.052 139.980  0.00  0.00    +0.000 OA
ATOM     12  O   UNL     1     113.388 128.333 137.704  0.00  0.00    +0.000 OA
ATOM     13  C   UNL     1     112.070 126.273 138.227  0.00  0.00    +0.000 A 
ATOM     14  C   UNL     1     112.503 126.954 138.060  0.00  0.00    +0.000 A 
ATOM     15  C   UNL     1     111.719 126.179 138.968  0.00  0.00    +0.000 A 
ATOM     16  C   UNL     1     112.586 127.542 138.634  0.00  0.00    +0.000 A 
ATOM     17  C   UNL     1     111.801 126.766 139.541  0.00  0.00    +0.000 A 
ATOM     18  C   UNL     1     112.235 127.448 139.374  0.00  0.00    +0.000 A 
ATOM     19  C   UNL     1     113.040 128.247 138.448  0.00  0.00    +0.000 A 
ATOM     20  C   UNL     1     113.130 128.863 139.040  0.00  0.00    +0.000 A 
ATOM     21  C   UNL     1     112.764 128.764 139.812  0.00  0.00    +0.000 A 
BRANCH  21  22
ATOM     22  C   UNL     1     112.845 129.350 140.387  0.00  0.00    +0.000 A 
ATOM     23  C   UNL     1     112.210 129.846 140.564  0.00  0.00    +0.000 A 
ATOM     24  C   UNL     1     113.562 129.440 140.786  0.00  0.00    +0.000 A 
ATOM     25  C   UNL     1     112.290 130.431 141.138  0.00  0.00    +0.000 A 
ATOM     26  C   UNL     1     113.642 130.026 141.362  0.00  0.00    +0.000 A 
ATOM     27  C   UNL     1     113.006 130.522 141.538  0.00  0.00    +0.000 A 
BRANCH  27  28
ATOM     28  O   UNL     1     113.087 131.107 142.113  0.00  0.00    +0.000 OA
ATOM     29  C   UNL     1     112.474 131.249 142.646  0.00  0.00    +0.000 C 
ENDBRANCH  27  28
ENDBRANCH  21  22
ENDBRANCH   6  13
BRANCH   8  31
ATOM     30  O   UNL     1     113.836 124.094 137.237  0.00  0.00    +0.000 OA
ATOM     31  C   UNL     1     113.135 124.035 136.805  0.00  0.00    +0.000 C 
ENDBRANCH   8  31
BRANCH   4  32
ATOM     32  O   UNL     1     110.673 126.163 137.355  0.00  0.00    +0.000 OA
BRANCH  32  37
ATOM     33  O   UNL     1     110.808 126.811 136.089  0.00  0.00    +0.000 OA
ATOM     34  O   UNL     1     109.064 126.526 137.370  0.00  0.00    +0.000 OA
ATOM     35  O   UNL     1     108.394 127.355 136.111  0.00  0.00    +0.000 OA
ATOM     36  O   UNL     1     109.333 127.821 134.837  0.00  0.00    +0.000 OA
ATOM     37  C   UNL     1     110.339 126.578 136.725  0.00  0.00    +0.000 C 
ATOM     38  C   UNL     1     109.534 126.759 136.732  0.00  0.00    +0.000 C 
ATOM     39  C   UNL     1     109.198 127.174 136.103  0.00  0.00    +0.000 C 
ATOM     40  C   UNL     1     109.668 127.406 135.467  0.00  0.00    +0.000 C 
ATOM     41  C   UNL     1     110.473 127.225 135.459  0.00  0.00    +0.000 C 
ATOM     42  C   UNL     1     110.942 127.458 134.822  0.00  0.00    +0.000 C 
ENDBRANCH  32  37
ENDBRANCH   4  32
TORSDOF 6
ENDMDL
MODEL 5
REMARK VINA RESULT:     -10.1      1.314      2.119
REMARK  Name = 44257874
REMARK  6 active torsions:
REMARK  status: ('A' for Active; 'I' for Inactive)
REMARK    1  A    between atoms: O_1  and  C_15
REMARK    2  A    between atoms: O_1  and  C_20
REMARK    3  A    between atoms: O_14  and  C_41
REMARK    4  A    between atoms: C_17  and  C_25
REMARK    5  A    between atoms: C_19  and  C_26
REMARK    6  A    between atoms: C_35  and  C_36
REMARK                            x       y       z     vdW  Elec       q    Type
REMARK                         _______ _______ _______ _____ _____    ______ ____
ROOT
ATOM      1  O   UNL     1     106.835 125.649 146.962  0.00  0.00    +0.000 OA
ATOM      2  O   UNL     1     105.054 124.278 147.998  0.00  0.00    +0.000 OA
ATOM      3  O   UNL     1     106.625 124.076 148.460  0.00  0.00    +0.000 OA
ATOM      4  C   UNL     1     105.456 125.293 147.076  0.00  0.00    +0.000 C 
ATOM      5  C   UNL     1     105.648 124.735 147.653  0.00  0.00    +0.000 C 
ATOM      6  C   UNL     1     106.050 125.750 146.731  0.00  0.00    +0.000 C 
ATOM      7  C   UNL     1     106.433 124.634 147.884  0.00  0.00    +0.000 C 
ATOM      8  C   UNL     1     107.027 125.091 147.538  0.00  0.00    +0.000 C 
ENDROOT
BRANCH   6  13
ATOM      9  O   UNL     1     106.335 125.423 145.139  0.00  0.00    +0.000 OA
ATOM     10  O   UNL     1     105.381 127.193 147.170  0.00  0.00    +0.000 OA
ATOM     11  O   UNL     1     105.270 128.014 144.410  0.00  0.00    +0.000 OA
ATOM     12  O   UNL     1     106.296 125.797 143.746  0.00  0.00    +0.000 OA
ATOM     13  C   UNL     1     105.858 126.309 146.154  0.00  0.00    +0.000 A 
ATOM     14  C   UNL     1     106.000 126.144 145.359  0.00  0.00    +0.000 A 
ATOM     15  C   UNL     1     105.523 127.030 146.374  0.00  0.00    +0.000 A 
ATOM     16  C   UNL     1     105.808 126.703 144.782  0.00  0.00    +0.000 A 
ATOM     17  C   UNL     1     105.332 127.588 145.797  0.00  0.00    +0.000 A 
ATOM     18  C   UNL     1     105.474 127.425 145.001  0.00  0.00    +0.000 A 
ATOM     19  C   UNL     1     105.962 126.521 143.956  0.00  0.00    +0.000 A 
ATOM     20  C   UNL     1     105.764 127.097 143.350  0.00  0.00    +0.000 A 
ATOM     21  C   UNL     1     105.416 127.849 143.579  0.00  0.00    +0.000 A 
BRANCH  21  22
ATOM     22  C   UNL     1     105.223 128.409 143.005  0.00  0.00    +0.000 A 
ATOM     23  C   UNL     1     104.499 128.363 142.611  0.00  0.00    +0.000 A 
ATOM     24  C   UNL     1     105.753 129.015 142.824  0.00  0.00    +0.000 A 
ATOM     25  C   UNL     1     104.306 128.922 142.037  0.00  0.00    +0.000 A 
ATOM     26  C   UNL     1     105.559 129.574 142.249  0.00  0.00    +0.000 A 
ATOM     27  C   UNL     1     104.836 129.528 141.856  0.00  0.00    +0.000 A 
BRANCH  27  28
ATOM     28  O   UNL     1     104.643 130.088 141.281  0.00  0.00    +0.000 OA
ATOM     29  C   UNL     1     104.057 130.649 141.432  0.00  0.00    +0.000 C 
ENDBRANCH  27  28
ENDBRANCH  21  22
ENDBRANCH   6  13
BRANCH   8  31
ATOM     30  O   UNL     1     108.415 125.388 147.369  0.00  0.00    +0.000 OA
ATOM     31  C   UNL     1     107.812 124.990 147.769  0.00  0.00    +0.000 C 
ENDBRANCH   8  31
BRANCH   4  32
ATOM     32  O   UNL     1     104.670 125.395 146.845  0.00  0.00    +0.000 OA
BRANCH  32  37
ATOM     33  O   UNL     1     104.533 124.145 146.166  0.00  0.00    +0.000 OA
ATOM     34  O   UNL     1     103.115 125.273 147.383  0.00  0.00    +0.000 OA
ATOM     35  O   UNL     1     102.201 123.962 146.973  0.00  0.00    +0.000 OA
ATOM     36  O   UNL     1     102.841 122.773 146.025  0.00  0.00    +0.000 OA
ATOM     37  C   UNL     1     104.213 124.739 146.640  0.00  0.00    +0.000 C 
ATOM     38  C   UNL     1     103.436 124.678 146.909  0.00  0.00    +0.000 C 
ATOM     39  C   UNL     1     102.978 124.023 146.704  0.00  0.00    +0.000 C 
ATOM     40  C   UNL     1     103.299 123.429 146.230  0.00  0.00    +0.000 C 
ATOM     41  C   UNL     1     104.077 123.490 145.961  0.00  0.00    +0.000 C 
ATOM     42  C   UNL     1     104.396 122.895 145.487  0.00  0.00    +0.000 C 
ENDBRANCH  32  37
ENDBRANCH   4  32
TORSDOF 6
ENDMDL
MODEL 6
REMARK VINA RESULT:     -10.0      8.456     10.340
REMARK  Name = 44257874
REMARK  6 active torsions:
REMARK  status: ('A' for Active; 'I' for Inactive)
REMARK    1  A    between atoms: O_1  and  C_15
REMARK    2  A    between atoms: O_1  and  C_20
REMARK    3  A    between atoms: O_14  and  C_41
REMARK    4  A    between atoms: C_17  and  C_25
REMARK    5  A    between atoms: C_19  and  C_26
REMARK    6  A    between atoms: C_35  and  C_36
REMARK                            x       y       z     vdW  Elec       q    Type
REMARK                         _______ _______ _______ _____ _____    ______ ____
ROOT
ATOM      1  O   UNL     1     112.577 130.849 141.857  0.00  0.00    +0.000 OA
ATOM      2  O   UNL     1     111.869 128.720 142.900  0.00  0.00    +0.000 OA
ATOM      3  O   UNL     1     111.679 130.141 143.715  0.00  0.00    +0.000 OA
ATOM      4  C   UNL     1     112.437 129.428 141.797  0.00  0.00    +0.000 C 
ATOM      5  C   UNL     1     112.105 129.430 142.553  0.00  0.00    +0.000 C 
ATOM      6  C   UNL     1     112.672 130.138 141.449  0.00  0.00    +0.000 C 
ATOM      7  C   UNL     1     112.010 130.140 142.960  0.00  0.00    +0.000 C 
ATOM      8  C   UNL     1     112.246 130.850 142.612  0.00  0.00    +0.000 C 
ENDROOT
BRANCH   6  13
ATOM      9  O   UNL     1     111.768 130.607 140.151  0.00  0.00    +0.000 OA
ATOM     10  O   UNL     1     114.239 129.667 141.236  0.00  0.00    +0.000 OA
ATOM     11  O   UNL     1     114.023 130.129 138.400  0.00  0.00    +0.000 OA
ATOM     12  O   UNL     1     111.619 130.851 138.737  0.00  0.00    +0.000 OA
ATOM     13  C   UNL     1     113.004 130.137 140.693  0.00  0.00    +0.000 A 
ATOM     14  C   UNL     1     112.551 130.371 140.045  0.00  0.00    +0.000 A 
ATOM     15  C   UNL     1     113.787 129.901 140.586  0.00  0.00    +0.000 A 
ATOM     16  C   UNL     1     112.883 130.370 139.288  0.00  0.00    +0.000 A 
ATOM     17  C   UNL     1     114.118 129.900 139.831  0.00  0.00    +0.000 A 
ATOM     18  C   UNL     1     113.666 130.135 139.182  0.00  0.00    +0.000 A 
ATOM     19  C   UNL     1     112.402 130.616 138.621  0.00  0.00    +0.000 A 
ATOM     20  C   UNL     1     112.740 130.618 137.831  0.00  0.00    +0.000 A 
ATOM     21  C   UNL     1     113.557 130.372 137.720  0.00  0.00    +0.000 A 
BRANCH  21  22
ATOM     22  C   UNL     1     113.890 130.370 136.965  0.00  0.00    +0.000 A 
ATOM     23  C   UNL     1     114.235 131.056 136.665  0.00  0.00    +0.000 A 
ATOM     24  C   UNL     1     113.879 129.681 136.511  0.00  0.00    +0.000 A 
ATOM     25  C   UNL     1     114.568 131.055 135.911  0.00  0.00    +0.000 A 
ATOM     26  C   UNL     1     114.213 129.680 135.756  0.00  0.00    +0.000 A 
ATOM     27  C   UNL     1     114.558 130.367 135.457  0.00  0.00    +0.000 A 
BRANCH  27  28
ATOM     28  O   UNL     1     114.891 130.365 134.702  0.00  0.00    +0.000 OA
ATOM     29  C   UNL     1     115.708 130.443 134.612  0.00  0.00    +0.000 C 
ENDBRANCH  27  28
ENDBRANCH  21  22
ENDBRANCH   6  13
BRANCH   8  31
ATOM     30  O   UNL     1     112.699 132.171 142.920  0.00  0.00    +0.000 OA
ATOM     31  C   UNL     1     112.151 131.561 143.019  0.00  0.00    +0.000 C 
ENDBRANCH   8  31
BRANCH   4  32
ATOM     32  O   UNL     1     112.532 128.717 141.389  0.00  0.00    +0.000 OA
BRANCH  32  37
ATOM     33  O   UNL     1     111.133 128.479 141.221  0.00  0.00    +0.000 OA
ATOM     34  O   UNL     1     112.800 127.091 141.464  0.00  0.00    +0.000 OA
ATOM     35  O   UNL     1     111.536 126.039 141.333  0.00  0.00    +0.000 OA
ATOM     36  O   UNL     1     110.003 126.614 141.128  0.00  0.00    +0.000 OA
ATOM     37  C   UNL     1     111.899 128.192 141.324  0.00  0.00    +0.000 C 
ATOM     38  C   UNL     1     112.033 127.379 141.361  0.00  0.00    +0.000 C 
ATOM     39  C   UNL     1     111.402 126.852 141.296  0.00  0.00    +0.000 C 
ATOM     40  C   UNL     1     110.635 127.140 141.193  0.00  0.00    +0.000 C 
ATOM     41  C   UNL     1     110.501 127.953 141.156  0.00  0.00    +0.000 C 
ATOM     42  C   UNL     1     109.734 128.240 141.053  0.00  0.00    +0.000 C 
ENDBRANCH  32  37
ENDBRANCH   4  32
TORSDOF 6
ENDMDL
MODEL 7
REMARK VINA RESULT:      -9.9      8.296     10.211
REMARK  Name = 44257874
REMARK  6 active torsions:
REMARK  status: ('A' for Active; 'I' for Inactive)
REMARK    1  A    between atoms: O_1  and  C_15
REMARK    2  A    between atoms: O_1  and  C_20
REMARK    3  A    between atoms: O_14  and  C_41
REMARK    4  A    between atoms: C_17  and  C_25
REMARK    5  A    between atoms: C_19  and  C_26
REMARK    6  A    between atoms: C_35  and  C_36
REMARK                            x       y       z     vdW  Elec       q    Type
REMARK                         _______ _______ _______ _____ _____    ______ ____
ROOT
ATOM      1  O   UNL     1     114.230 129.722 140.351  0.00  0.00    +0.000 OA
ATOM      2  O   UNL     1     112.733 130.365 142.213  0.00  0.00    +0.000 OA
ATOM      3  O   UNL     1     113.967 131.364 141.764  0.00  0.00    +0.000 OA
ATOM      4  C   UNL     1     113.114 129.437 141.196  0.00  0.00    +0.000 C 
ATOM      5  C   UNL     1     113.232 130.151 141.593  0.00  0.00    +0.000 C 
ATOM      6  C   UNL     1     113.613 129.223 140.576  0.00  0.00    +0.000 C 
ATOM      7  C   UNL     1     113.849 130.651 141.368  0.00  0.00    +0.000 C 
ATOM      8  C   UNL     1     114.348 130.435 140.747  0.00  0.00    +0.000 C 
ENDROOT
BRANCH   6  13
ATOM      9  O   UNL     1     112.884 129.211 139.095  0.00  0.00    +0.000 OA
ATOM     10  O   UNL     1     114.106 127.806 141.263  0.00  0.00    +0.000 OA
ATOM     11  O   UNL     1     113.141 126.330 138.984  0.00  0.00    +0.000 OA
ATOM     12  O   UNL     1     112.388 128.509 137.936  0.00  0.00    +0.000 OA
ATOM     13  C   UNL     1     113.495 128.508 140.179  0.00  0.00    +0.000 A 
ATOM     14  C   UNL     1     113.131 128.503 139.439  0.00  0.00    +0.000 A 
ATOM     15  C   UNL     1     113.741 127.800 140.523  0.00  0.00    +0.000 A 
ATOM     16  C   UNL     1     113.012 127.789 139.043  0.00  0.00    +0.000 A 
ATOM     17  C   UNL     1     113.623 127.086 140.127  0.00  0.00    +0.000 A 
ATOM     18  C   UNL     1     113.259 127.080 139.387  0.00  0.00    +0.000 A 
ATOM     19  C   UNL     1     112.632 127.796 138.273  0.00  0.00    +0.000 A 
ATOM     20  C   UNL     1     112.505 127.056 137.854  0.00  0.00    +0.000 A 
ATOM     21  C   UNL     1     112.762 126.318 138.213  0.00  0.00    +0.000 A 
BRANCH  21  22
ATOM     22  C   UNL     1     112.645 125.603 137.819  0.00  0.00    +0.000 A 
ATOM     23  C   UNL     1     113.269 125.250 137.410  0.00  0.00    +0.000 A 
ATOM     24  C   UNL     1     111.904 125.240 137.833  0.00  0.00    +0.000 A 
ATOM     25  C   UNL     1     113.153 124.535 137.016  0.00  0.00    +0.000 A 
ATOM     26  C   UNL     1     111.788 124.524 137.439  0.00  0.00    +0.000 A 
ATOM     27  C   UNL     1     112.412 124.172 137.031  0.00  0.00    +0.000 A 
BRANCH  27  28
ATOM     28  O   UNL     1     112.295 123.457 136.636  0.00  0.00    +0.000 OA
ATOM     29  C   UNL     1     111.895 122.840 137.011  0.00  0.00    +0.000 C 
ENDBRANCH  27  28
ENDBRANCH  21  22
ENDBRANCH   6  13
BRANCH   8  31
ATOM     30  O   UNL     1     115.710 130.621 140.353  0.00  0.00    +0.000 OA
ATOM     31  C   UNL     1     114.965 130.935 140.522  0.00  0.00    +0.000 C 
ENDBRANCH   8  31
BRANCH   4  32
ATOM     32  O   UNL     1     112.497 128.937 141.421  0.00  0.00    +0.000 OA
BRANCH  32  37
ATOM     33  O   UNL     1     111.455 129.810 140.980  0.00  0.00    +0.000 OA
ATOM     34  O   UNL     1     111.525 128.393 142.639  0.00  0.00    +0.000 OA
ATOM     35  O   UNL     1     109.998 128.994 142.806  0.00  0.00    +0.000 OA
ATOM     36  O   UNL     1     109.441 130.138 141.756  0.00  0.00    +0.000 OA
ATOM     37  C   UNL     1     111.733 129.238 141.504  0.00  0.00    +0.000 C 
ATOM     38  C   UNL     1     111.247 128.966 142.113  0.00  0.00    +0.000 C 
ATOM     39  C   UNL     1     110.483 129.266 142.197  0.00  0.00    +0.000 C 
ATOM     40  C   UNL     1     110.206 129.838 141.672  0.00  0.00    +0.000 C 
ATOM     41  C   UNL     1     110.692 130.110 141.063  0.00  0.00    +0.000 C 
ATOM     42  C   UNL     1     110.413 130.682 140.538  0.00  0.00    +0.000 C 
ENDBRANCH  32  37
ENDBRANCH   4  32
TORSDOF 6
ENDMDL
MODEL 8
REMARK VINA RESULT:      -9.8      9.059     11.303
REMARK  Name = 44257874
REMARK  6 active torsions:
REMARK  status: ('A' for Active; 'I' for Inactive)
REMARK    1  A    between atoms: O_1  and  C_15
REMARK    2  A    between atoms: O_1  and  C_20
REMARK    3  A    between atoms: O_14  and  C_41
REMARK    4  A    between atoms: C_17  and  C_25
REMARK    5  A    between atoms: C_19  and  C_26
REMARK    6  A    between atoms: C_35  and  C_36
REMARK                            x       y       z     vdW  Elec       q    Type
REMARK                         _______ _______ _______ _____ _____    ______ ____
ROOT
ATOM      1  O   UNL     1     113.706 126.265 136.455  0.00  0.00    +0.000 OA
ATOM      2  O   UNL     1     113.663 125.341 138.750  0.00  0.00    +0.000 OA
ATOM      3  O   UNL     1     114.912 124.974 137.736  0.00  0.00    +0.000 OA
ATOM      4  C   UNL     1     113.067 126.141 137.727  0.00  0.00    +0.000 C 
ATOM      5  C   UNL     1     113.678 125.649 137.985  0.00  0.00    +0.000 C 
ATOM      6  C   UNL     1     113.081 126.448 136.962  0.00  0.00    +0.000 C 
ATOM      7  C   UNL     1     114.302 125.465 137.478  0.00  0.00    +0.000 C 
ATOM      8  C   UNL     1     114.315 125.774 136.713  0.00  0.00    +0.000 C 
ENDROOT
BRANCH   6  13
ATOM      9  O   UNL     1     113.282 128.086 136.971  0.00  0.00    +0.000 OA
ATOM     10  O   UNL     1     111.660 125.794 136.438  0.00  0.00    +0.000 OA
ATOM     11  O   UNL     1     110.607 128.424 135.918  0.00  0.00    +0.000 OA
ATOM     12  O   UNL     1     112.791 129.420 136.724  0.00  0.00    +0.000 OA
ATOM     13  C   UNL     1     112.470 126.940 136.704  0.00  0.00    +0.000 A 
ATOM     14  C   UNL     1     112.571 127.759 136.709  0.00  0.00    +0.000 A 
ATOM     15  C   UNL     1     111.760 126.613 136.442  0.00  0.00    +0.000 A 
ATOM     16  C   UNL     1     111.960 128.251 136.451  0.00  0.00    +0.000 A 
ATOM     17  C   UNL     1     111.150 127.104 136.184  0.00  0.00    +0.000 A 
ATOM     18  C   UNL     1     111.250 127.923 136.188  0.00  0.00    +0.000 A 
ATOM     19  C   UNL     1     112.077 129.101 136.460  0.00  0.00    +0.000 A 
ATOM     20  C   UNL     1     111.446 129.620 136.193  0.00  0.00    +0.000 A 
ATOM     21  C   UNL     1     110.705 129.279 135.920  0.00  0.00    +0.000 A 
BRANCH  21  22
ATOM     22  C   UNL     1     110.093 129.768 135.661  0.00  0.00    +0.000 A 
ATOM     23  C   UNL     1     109.520 130.027 136.195  0.00  0.00    +0.000 A 
ATOM     24  C   UNL     1     110.055 129.998 134.870  0.00  0.00    +0.000 A 
ATOM     25  C   UNL     1     108.908 130.516 135.937  0.00  0.00    +0.000 A 
ATOM     26  C   UNL     1     109.442 130.487 134.612  0.00  0.00    +0.000 A 
ATOM     27  C   UNL     1     108.869 130.746 135.146  0.00  0.00    +0.000 A 
BRANCH  27  28
ATOM     28  O   UNL     1     108.257 131.236 134.888  0.00  0.00    +0.000 OA
ATOM     29  C   UNL     1     108.313 132.053 134.986  0.00  0.00    +0.000 C 
ENDBRANCH  27  28
ENDBRANCH  21  22
ENDBRANCH   6  13
BRANCH   8  31
ATOM     30  O   UNL     1     115.236 126.164 135.691  0.00  0.00    +0.000 OA
ATOM     31  C   UNL     1     114.940 125.590 136.205  0.00  0.00    +0.000 C 
ENDBRANCH   8  31
BRANCH   4  32
ATOM     32  O   UNL     1     112.443 126.324 138.234  0.00  0.00    +0.000 OA
BRANCH  32  37
ATOM     33  O   UNL     1     113.236 127.063 139.165  0.00  0.00    +0.000 OA
ATOM     34  O   UNL     1     111.474 125.811 139.468  0.00  0.00    +0.000 OA
ATOM     35  O   UNL     1     111.783 126.294 141.015  0.00  0.00    +0.000 OA
ATOM     36  O   UNL     1     113.061 127.289 141.329  0.00  0.00    +0.000 OA
ATOM     37  C   UNL     1     112.598 126.566 139.008  0.00  0.00    +0.000 C 
ATOM     38  C   UNL     1     112.113 126.309 139.625  0.00  0.00    +0.000 C 
ATOM     39  C   UNL     1     112.268 126.550 140.398  0.00  0.00    +0.000 C 
ATOM     40  C   UNL     1     112.907 127.047 140.555  0.00  0.00    +0.000 C 
ATOM     41  C   UNL     1     113.391 127.304 139.938  0.00  0.00    +0.000 C 
ATOM     42  C   UNL     1     114.030 127.801 140.096  0.00  0.00    +0.000 C 
ENDBRANCH  32  37
ENDBRANCH   4  32
TORSDOF 6
ENDMDL
MODEL 9
REMARK VINA RESULT:      -9.8      7.995     11.052
REMARK  Name = 44257874
REMARK  6 active torsions:
REMARK  status: ('A' for Active; 'I' for Inactive)
REMARK    1  A    between atoms: O_1  and  C_15
REMARK    2  A    between atoms: O_1  and  C_20
REMARK    3  A    between atoms: O_14  and  C_41
REMARK    4  A    between atoms: C_17  and  C_25
REMARK    5  A    between atoms: C_19  and  C_26
REMARK    6  A    between atoms: C_35  and  C_36
REMARK                            x       y       z     vdW  Elec       q    Type
REMARK                         _______ _______ _______ _____ _____    ______ ____
ROOT
ATOM      1  O   UNL     1     109.017 130.358 136.663  0.00  0.00    +0.000 OA
ATOM      2  O   UNL     1     109.057 131.988 138.525  0.00  0.00    +0.000 OA
ATOM      3  O   UNL     1     107.920 132.119 137.337  0.00  0.00    +0.000 OA
ATOM      4  C   UNL     1     109.600 130.835 137.878  0.00  0.00    +0.000 C 
ATOM      5  C   UNL     1     109.043 131.445 137.904  0.00  0.00    +0.000 C 
ATOM      6  C   UNL     1     109.586 130.292 137.257  0.00  0.00    +0.000 C 
ATOM      7  C   UNL     1     108.475 131.511 137.310  0.00  0.00    +0.000 C 
ATOM      8  C   UNL     1     108.462 130.967 136.690  0.00  0.00    +0.000 C 
ENDROOT
BRANCH   6  13
ATOM      9  O   UNL     1     109.169 128.774 137.750  0.00  0.00    +0.000 OA
ATOM     10  O   UNL     1     111.114 130.592 136.711  0.00  0.00    +0.000 OA
ATOM     11  O   UNL     1     111.841 127.838 137.145  0.00  0.00    +0.000 OA
ATOM     12  O   UNL     1     109.494 127.387 137.982  0.00  0.00    +0.000 OA
ATOM     13  C   UNL     1     110.142 129.682 137.231  0.00  0.00    +0.000 A 
ATOM     14  C   UNL     1     109.933 128.924 137.477  0.00  0.00    +0.000 A 
ATOM     15  C   UNL     1     110.906 129.832 136.958  0.00  0.00    +0.000 A 
ATOM     16  C   UNL     1     110.490 128.314 137.451  0.00  0.00    +0.000 A 
ATOM     17  C   UNL     1     111.461 129.224 136.931  0.00  0.00    +0.000 A 
ATOM     18  C   UNL     1     111.254 128.464 137.178  0.00  0.00    +0.000 A 
ATOM     19  C   UNL     1     110.260 127.528 137.710  0.00  0.00    +0.000 A 
ATOM     20  C   UNL     1     110.834 126.888 137.685  0.00  0.00    +0.000 A 
ATOM     21  C   UNL     1     111.630 127.045 137.401  0.00  0.00    +0.000 A 
BRANCH  21  22
ATOM     22  C   UNL     1     112.188 126.437 137.373  0.00  0.00    +0.000 A 
ATOM     23  C   UNL     1     112.671 126.291 138.026  0.00  0.00    +0.000 A 
ATOM     24  C   UNL     1     112.263 125.977 136.693  0.00  0.00    +0.000 A 
ATOM     25  C   UNL     1     113.228 125.684 137.999  0.00  0.00    +0.000 A 
ATOM     26  C   UNL     1     112.821 125.369 136.666  0.00  0.00    +0.000 A 
ATOM     27  C   UNL     1     113.303 125.223 137.320  0.00  0.00    +0.000 A 
BRANCH  27  28
ATOM     28  O   UNL     1     113.861 124.616 137.292  0.00  0.00    +0.000 OA
ATOM     29  C   UNL     1     114.665 124.791 137.355  0.00  0.00    +0.000 C 
ENDBRANCH  27  28
ENDBRANCH  21  22
ENDBRANCH   6  13
BRANCH   8  31
ATOM     30  O   UNL     1     107.506 130.358 135.818  0.00  0.00    +0.000 OA
ATOM     31  C   UNL     1     107.893 131.033 136.096  0.00  0.00    +0.000 C 
ENDBRANCH   8  31
BRANCH   4  32
ATOM     32  O   UNL     1     110.168 130.769 138.472  0.00  0.00    +0.000 OA
BRANCH  32  37
ATOM     33  O   UNL     1     109.243 130.446 139.511  0.00  0.00    +0.000 OA
ATOM     34  O   UNL     1     111.118 131.562 139.564  0.00  0.00    +0.000 OA
ATOM     35  O   UNL     1     110.667 131.635 141.150  0.00  0.00    +0.000 OA
ATOM     36  O   UNL     1     109.266 130.916 141.643  0.00  0.00    +0.000 OA
ATOM     37  C   UNL     1     109.942 130.806 139.265  0.00  0.00    +0.000 C 
ATOM     38  C   UNL     1     110.417 131.202 139.811  0.00  0.00    +0.000 C 
ATOM     39  C   UNL     1     110.192 131.239 140.604  0.00  0.00    +0.000 C 
ATOM     40  C   UNL     1     109.492 130.879 140.849  0.00  0.00    +0.000 C 
ATOM     41  C   UNL     1     109.017 130.483 140.303  0.00  0.00    +0.000 C 
ATOM     42  C   UNL     1     108.317 130.124 140.551  0.00  0.00    +0.000 C 
ENDBRANCH  32  37
ENDBRANCH   4  32
TORSDOF 6
ENDMDL
MODEL 10
REMARK VINA RESULT:      -9.8      8.491     10.830
REMARK  Name = 44257874
REMARK  6 active torsions:
REMARK  status: ('A' for Active; 'I' for Inactive)
REMARK    1  A    between atoms: O_1  and  C_15
REMARK    2  A    between atoms: O_1  and  C_20
REMARK    3  A    between atoms: O_14  and  C_41
REMARK    4  A    between atoms: C_17  and  C_25
REMARK    5  A    between atoms: C_19  and  C_26
REMARK    6  A    between atoms: C_35  and  C_36
REMARK                            x       y       z     vdW  Elec       q    Type
REMARK                         _______ _______ _______ _____ _____    ______ ____
ROOT
ATOM      1  O   UNL     1     113.856 130.659 139.846  0.00  0.00    +0.000 OA
ATOM      2  O   UNL     1     114.151 128.243 140.294  0.00  0.00    +0.000 OA
ATOM      3  O   UNL     1     114.977 129.355 141.190  0.00  0.00    +0.000 OA
ATOM      4  C   UNL     1     113.541 129.298 139.547  0.00  0.00    +0.000 C 
ATOM      5  C   UNL     1     114.053 129.048 140.145  0.00  0.00    +0.000 C 
ATOM      6  C   UNL     1     113.443 130.103 139.398  0.00  0.00    +0.000 C 
ATOM      7  C   UNL     1     114.466 129.604 140.593  0.00  0.00    +0.000 C 
ATOM      8  C   UNL     1     114.367 130.410 140.443  0.00  0.00    +0.000 C 
ENDROOT
BRANCH   6  13
ATOM      9  O   UNL     1     111.945 130.678 139.782  0.00  0.00    +0.000 OA
ATOM     10  O   UNL     1     113.917 130.026 137.820  0.00  0.00    +0.000 OA
ATOM     11  O   UNL     1     111.384 131.107 136.975  0.00  0.00    +0.000 OA
ATOM     12  O   UNL     1     110.663 131.221 139.400  0.00  0.00    +0.000 OA
ATOM     13  C   UNL     1     112.931 130.352 138.801  0.00  0.00    +0.000 A 
ATOM     14  C   UNL     1     112.182 130.640 138.993  0.00  0.00    +0.000 A 
ATOM     15  C   UNL     1     113.168 130.314 138.011  0.00  0.00    +0.000 A 
ATOM     16  C   UNL     1     111.670 130.889 138.395  0.00  0.00    +0.000 A 
ATOM     17  C   UNL     1     112.656 130.563 137.415  0.00  0.00    +0.000 A 
ATOM     18  C   UNL     1     111.907 130.850 137.606  0.00  0.00    +0.000 A 
ATOM     19  C   UNL     1     110.893 131.186 138.608  0.00  0.00    +0.000 A 
ATOM     20  C   UNL     1     110.354 131.448 137.991  0.00  0.00    +0.000 A 
ATOM     21  C   UNL     1     110.602 131.407 137.169  0.00  0.00    +0.000 A 
BRANCH  21  22
ATOM     22  C   UNL     1     110.092 131.656 136.570  0.00  0.00    +0.000 A 
ATOM     23  C   UNL     1     110.020 132.459 136.396  0.00  0.00    +0.000 A 
ATOM     24  C   UNL     1     109.655 131.101 136.144  0.00  0.00    +0.000 A 
ATOM     25  C   UNL     1     109.511 132.708 135.798  0.00  0.00    +0.000 A 
ATOM     26  C   UNL     1     109.145 131.350 135.544  0.00  0.00    +0.000 A 
ATOM     27  C   UNL     1     109.073 132.154 135.372  0.00  0.00    +0.000 A 
BRANCH  27  28
ATOM     28  O   UNL     1     108.563 132.403 134.773  0.00  0.00    +0.000 OA
ATOM     29  C   UNL     1     107.770 132.177 134.786  0.00  0.00    +0.000 C 
ENDBRANCH  27  28
ENDBRANCH  21  22
ENDBRANCH   6  13
BRANCH   8  31
ATOM     30  O   UNL     1     115.021 131.677 140.547  0.00  0.00    +0.000 OA
ATOM     31  C   UNL     1     114.780 130.966 140.891  0.00  0.00    +0.000 C 
ENDBRANCH   8  31
BRANCH   4  32
ATOM     32  O   UNL     1     113.128 128.741 139.099  0.00  0.00    +0.000 OA
BRANCH  32  37
ATOM     33  O   UNL     1     112.298 128.281 140.168  0.00  0.00    +0.000 OA
ATOM     34  O   UNL     1     113.153 127.219 138.463  0.00  0.00    +0.000 OA
ATOM     35  O   UNL     1     112.336 125.998 139.214  0.00  0.00    +0.000 OA
ATOM     36  O   UNL     1     111.494 126.298 140.601  0.00  0.00    +0.000 OA
ATOM     37  C   UNL     1     112.719 128.131 139.475  0.00  0.00    +0.000 C 
ATOM     38  C   UNL     1     112.732 127.370 139.157  0.00  0.00    +0.000 C 
ATOM     39  C   UNL     1     112.324 126.759 139.532  0.00  0.00    +0.000 C 
ATOM     40  C   UNL     1     111.903 126.910 140.225  0.00  0.00    +0.000 C 
ATOM     41  C   UNL     1     111.890 127.671 140.543  0.00  0.00    +0.000 C 
ATOM     42  C   UNL     1     111.469 127.821 141.237  0.00  0.00    +0.000 C 
ENDBRANCH  32  37
ENDBRANCH   4  32
TORSDOF 6
ENDMDL
