MODEL 1
REMARK VINA RESULT:      -9.5      0.000      0.000
REMARK  Name = 131752755
REMARK  15 active torsions:
REMARK  status: ('A' for Active; 'I' for Inactive)
REMARK    1  A    between atoms: O_1  and  C_24
REMARK    2  A    between atoms: O_1  and  C_26
REMARK    3  A    between atoms: O_4  and  C_27
REMARK    4  A    between atoms: O_4  and  C_37
REMARK    5  A    between atoms: O_6  and  C_30
REMARK    6  A    between atoms: O_6  and  C_36
REMARK    7  A    between atoms: O_18  and  C_54
REMARK    8  A    between atoms: O_19  and  C_55
REMARK    9  A    between atoms: O_20  and  C_57
REMARK   10  A    between atoms: O_21  and  C_58
REMARK   11  A    between atoms: C_32  and  C_34
REMARK   12  A    between atoms: C_33  and  C_35
REMARK   13  A    between atoms: C_37  and  C_40
REMARK   14  A    between atoms: C_44  and  C_48
REMARK   15  A    between atoms: C_46  and  C_49
REMARK                            x       y       z     vdW  Elec       q    Type
REMARK                         _______ _______ _______ _____ _____    ______ ____
ROOT
ATOM      1  O   UNL     1     110.567 129.549 141.724  0.00  0.00    +0.000 OA
ATOM      2  O   UNL     1     111.009 127.154 142.164  0.00  0.00    +0.000 OA
ATOM      3  O   UNL     1     111.652 128.307 143.152  0.00  0.00    +0.000 OA
ATOM      4  C   UNL     1     110.393 128.174 141.375  0.00  0.00    +0.000 C 
ATOM      5  C   UNL     1     110.862 127.952 142.017  0.00  0.00    +0.000 C 
ATOM      6  C   UNL     1     111.184 128.528 142.511  0.00  0.00    +0.000 C 
ATOM      7  C   UNL     1     110.246 128.972 141.229  0.00  0.00    +0.000 C 
ATOM      8  C   UNL     1     111.036 129.327 142.365  0.00  0.00    +0.000 C 
ENDROOT
BRANCH   8  11
ATOM      9  O   UNL     1     112.128 130.173 142.732  0.00  0.00    +0.000 OA
ATOM     10  O   UNL     1     110.910 130.211 143.480  0.00  0.00    +0.000 OA
ATOM     11  C   UNL     1     111.358 129.904 142.859  0.00  0.00    +0.000 C 
ENDBRANCH   8  11
BRANCH   4  12
ATOM     12  O   UNL     1     110.071 127.598 140.881  0.00  0.00    +0.000 OA
BRANCH  12  16
ATOM     13  O   UNL     1     108.891 127.488 141.679  0.00  0.00    +0.000 OA
ATOM     14  O   UNL     1     108.468 125.236 140.743  0.00  0.00    +0.000 OA
ATOM     15  O   UNL     1     107.429 125.877 141.853  0.00  0.00    +0.000 OA
ATOM     16  C   UNL     1     109.411 127.168 141.124  0.00  0.00    +0.000 C 
ATOM     17  C   UNL     1     109.269 126.417 140.812  0.00  0.00    +0.000 C 
ATOM     18  C   UNL     1     108.609 125.986 141.055  0.00  0.00    +0.000 C 
ATOM     19  C   UNL     1     108.089 126.307 141.610  0.00  0.00    +0.000 C 
ATOM     20  C   UNL     1     108.230 127.057 141.922  0.00  0.00    +0.000 C 
BRANCH  20  23
ATOM     21  O   UNL     1     107.094 127.867 142.231  0.00  0.00    +0.000 OA
ATOM     22  O   UNL     1     107.810 127.211 143.279  0.00  0.00    +0.000 OA
ATOM     23  C   UNL     1     107.711 127.379 142.477  0.00  0.00    +0.000 C 
ENDBRANCH  20  23
BRANCH  17  24
ATOM     24  O   UNL     1     109.789 126.097 140.257  0.00  0.00    +0.000 OA
BRANCH  24  26
ATOM     25  O   UNL     1     108.833 126.316 139.217  0.00  0.00    +0.000 OA
ATOM     26  C   UNL     1     109.597 126.114 139.454  0.00  0.00    +0.000 C 
BRANCH  26  27
ATOM     27  C   UNL     1     110.169 125.930 138.889  0.00  0.00    +0.000 C 
ATOM     28  C   UNL     1     110.214 126.365 138.190  0.00  0.00    +0.000 C 
BRANCH  28  30
ATOM     29  O   UNL     1     112.504 125.623 135.932  0.00  0.00    +0.000 OA
ATOM     30  C   UNL     1     110.787 126.179 137.625  0.00  0.00    +0.000 A 
ATOM     31  C   UNL     1     111.583 126.326 137.782  0.00  0.00    +0.000 A 
ATOM     32  C   UNL     1     110.563 125.847 136.904  0.00  0.00    +0.000 A 
ATOM     33  C   UNL     1     111.135 125.662 136.340  0.00  0.00    +0.000 A 
ATOM     34  C   UNL     1     112.156 126.140 137.218  0.00  0.00    +0.000 A 
ATOM     35  C   UNL     1     111.932 125.809 136.497  0.00  0.00    +0.000 A 
BRANCH  33  36
ATOM     36  O   UNL     1     110.911 125.330 135.618  0.00  0.00    +0.000 OA
ATOM     37  C   UNL     1     110.217 125.579 135.248  0.00  0.00    +0.000 C 
ENDBRANCH  33  36
BRANCH  34  38
ATOM     38  O   UNL     1     112.952 126.287 137.375  0.00  0.00    +0.000 OA
ATOM     39  C   UNL     1     113.183 126.565 138.116  0.00  0.00    +0.000 C 
ENDBRANCH  34  38
ENDBRANCH  28  30
ENDBRANCH  26  27
ENDBRANCH  24  26
ENDBRANCH  17  24
ENDBRANCH  12  16
ENDBRANCH   4  12
BRANCH   7  40
ATOM     40  O   UNL     1     109.777 129.195 140.587  0.00  0.00    +0.000 OA
BRANCH  40  44
ATOM     41  O   UNL     1     111.268 129.733 138.145  0.00  0.00    +0.000 OA
ATOM     42  O   UNL     1     110.071 131.925 139.596  0.00  0.00    +0.000 OA
ATOM     43  O   UNL     1     110.817 132.155 138.383  0.00  0.00    +0.000 OA
ATOM     44  C   UNL     1     110.067 129.728 140.029  0.00  0.00    +0.000 A 
ATOM     45  C   UNL     1     110.528 129.446 139.361  0.00  0.00    +0.000 A 
ATOM     46  C   UNL     1     109.910 130.568 140.112  0.00  0.00    +0.000 A 
ATOM     47  C   UNL     1     110.826 130.009 138.784  0.00  0.00    +0.000 A 
ATOM     48  C   UNL     1     110.217 131.117 139.525  0.00  0.00    +0.000 A 
ATOM     49  C   UNL     1     110.676 130.817 138.863  0.00  0.00    +0.000 A 
ATOM     50  C   UNL     1     110.967 131.348 138.303  0.00  0.00    +0.000 A 
ATOM     51  C   UNL     1     111.559 130.264 137.585  0.00  0.00    +0.000 A 
ATOM     52  C   UNL     1     111.409 131.072 137.664  0.00  0.00    +0.000 A 
BRANCH  51  54
ATOM     53  O   UNL     1     113.326 129.160 135.026  0.00  0.00    +0.000 OA
ATOM     54  C   UNL     1     112.001 129.988 136.945  0.00  0.00    +0.000 A 
ATOM     55  C   UNL     1     112.825 130.030 136.964  0.00  0.00    +0.000 A 
ATOM     56  C   UNL     1     111.620 129.670 136.286  0.00  0.00    +0.000 A 
ATOM     57  C   UNL     1     112.061 129.394 135.647  0.00  0.00    +0.000 A 
ATOM     58  C   UNL     1     113.267 129.754 136.324  0.00  0.00    +0.000 A 
ATOM     59  C   UNL     1     112.885 129.436 135.665  0.00  0.00    +0.000 A 
BRANCH  57  60
ATOM     60  O   UNL     1     111.679 129.076 134.988  0.00  0.00    +0.000 OA
ATOM     61  C   UNL     1     110.873 129.209 134.874  0.00  0.00    +0.000 C 
ENDBRANCH  57  60
BRANCH  58  62
ATOM     62  O   UNL     1     114.091 129.795 136.342  0.00  0.00    +0.000 OA
ATOM     63  C   UNL     1     114.463 130.499 136.560  0.00  0.00    +0.000 C 
ENDBRANCH  58  62
ENDBRANCH  51  54
ENDBRANCH  40  44
ENDBRANCH   7  40
TORSDOF 15
ENDMDL
MODEL 2
REMARK VINA RESULT:      -9.0      1.279      2.060
REMARK  Name = 131752755
REMARK  15 active torsions:
REMARK  status: ('A' for Active; 'I' for Inactive)
REMARK    1  A    between atoms: O_1  and  C_24
REMARK    2  A    between atoms: O_1  and  C_26
REMARK    3  A    between atoms: O_4  and  C_27
REMARK    4  A    between atoms: O_4  and  C_37
REMARK    5  A    between atoms: O_6  and  C_30
REMARK    6  A    between atoms: O_6  and  C_36
REMARK    7  A    between atoms: O_18  and  C_54
REMARK    8  A    between atoms: O_19  and  C_55
REMARK    9  A    between atoms: O_20  and  C_57
REMARK   10  A    between atoms: O_21  and  C_58
REMARK   11  A    between atoms: C_32  and  C_34
REMARK   12  A    between atoms: C_33  and  C_35
REMARK   13  A    between atoms: C_37  and  C_40
REMARK   14  A    between atoms: C_44  and  C_48
REMARK   15  A    between atoms: C_46  and  C_49
REMARK                            x       y       z     vdW  Elec       q    Type
REMARK                         _______ _______ _______ _____ _____    ______ ____
ROOT
ATOM      1  O   UNL     1     108.814 130.086 141.689  0.00  0.00    +0.000 OA
ATOM      2  O   UNL     1     109.431 128.024 142.911  0.00  0.00    +0.000 OA
ATOM      3  O   UNL     1     109.499 129.486 143.672  0.00  0.00    +0.000 OA
ATOM      4  C   UNL     1     108.986 128.667 141.715  0.00  0.00    +0.000 C 
ATOM      5  C   UNL     1     109.225 128.711 142.503  0.00  0.00    +0.000 C 
ATOM      6  C   UNL     1     109.259 129.442 142.884  0.00  0.00    +0.000 C 
ATOM      7  C   UNL     1     108.780 129.354 141.308  0.00  0.00    +0.000 C 
ATOM      8  C   UNL     1     109.053 130.129 142.477  0.00  0.00    +0.000 C 
ENDROOT
BRANCH   8  11
ATOM      9  O   UNL     1     108.400 131.194 143.170  0.00  0.00    +0.000 OA
ATOM     10  O   UNL     1     109.807 131.258 142.924  0.00  0.00    +0.000 OA
ATOM     11  C   UNL     1     109.087 130.860 142.857  0.00  0.00    +0.000 C 
ENDBRANCH   8  11
BRANCH   4  12
ATOM     12  O   UNL     1     108.952 127.937 141.334  0.00  0.00    +0.000 OA
BRANCH  12  16
ATOM     13  O   UNL     1     107.589 127.737 141.716  0.00  0.00    +0.000 OA
ATOM     14  O   UNL     1     107.849 125.300 141.375  0.00  0.00    +0.000 OA
ATOM     15  O   UNL     1     106.399 125.914 141.870  0.00  0.00    +0.000 OA
ATOM     16  C   UNL     1     108.313 127.431 141.468  0.00  0.00    +0.000 C 
ATOM     17  C   UNL     1     108.400 126.618 141.355  0.00  0.00    +0.000 C 
ATOM     18  C   UNL     1     107.762 126.112 141.489  0.00  0.00    +0.000 C 
ATOM     19  C   UNL     1     107.037 126.420 141.736  0.00  0.00    +0.000 C 
ATOM     20  C   UNL     1     106.951 127.232 141.850  0.00  0.00    +0.000 C 
BRANCH  20  23
ATOM     21  O   UNL     1     106.050 127.585 142.902  0.00  0.00    +0.000 OA
ATOM     22  O   UNL     1     105.678 127.802 141.540  0.00  0.00    +0.000 OA
ATOM     23  C   UNL     1     106.226 127.540 142.098  0.00  0.00    +0.000 C 
ENDBRANCH  20  23
BRANCH  17  24
ATOM     24  O   UNL     1     109.125 126.311 141.107  0.00  0.00    +0.000 OA
BRANCH  24  26
ATOM     25  O   UNL     1     108.602 126.074 139.798  0.00  0.00    +0.000 OA
ATOM     26  C   UNL     1     109.246 126.132 140.310  0.00  0.00    +0.000 C 
BRANCH  26  27
ATOM     27  C   UNL     1     110.011 126.009 140.027  0.00  0.00    +0.000 C 
ATOM     28  C   UNL     1     110.199 126.205 139.248  0.00  0.00    +0.000 C 
BRANCH  28  30
ATOM     29  O   UNL     1     113.262 125.714 138.123  0.00  0.00    +0.000 OA
ATOM     30  C   UNL     1     110.965 126.081 138.967  0.00  0.00    +0.000 A 
ATOM     31  C   UNL     1     111.091 125.599 138.310  0.00  0.00    +0.000 A 
ATOM     32  C   UNL     1     111.605 126.442 139.342  0.00  0.00    +0.000 A 
ATOM     33  C   UNL     1     112.371 126.319 139.061  0.00  0.00    +0.000 A 
ATOM     34  C   UNL     1     111.856 125.476 138.028  0.00  0.00    +0.000 A 
ATOM     35  C   UNL     1     112.497 125.836 138.404  0.00  0.00    +0.000 A 
BRANCH  33  36
ATOM     36  O   UNL     1     113.011 126.680 139.437  0.00  0.00    +0.000 OA
ATOM     37  C   UNL     1     112.893 127.109 140.132  0.00  0.00    +0.000 C 
ENDBRANCH  33  36
BRANCH  34  38
ATOM     38  O   UNL     1     111.982 124.993 137.372  0.00  0.00    +0.000 OA
ATOM     39  C   UNL     1     111.353 124.799 136.875  0.00  0.00    +0.000 C 
ENDBRANCH  34  38
ENDBRANCH  28  30
ENDBRANCH  26  27
ENDBRANCH  24  26
ENDBRANCH  17  24
ENDBRANCH  12  16
ENDBRANCH   4  12
BRANCH   7  40
ATOM     40  O   UNL     1     108.540 129.311 140.520  0.00  0.00    +0.000 OA
BRANCH  40  44
ATOM     41  O   UNL     1     110.712 129.672 138.613  0.00  0.00    +0.000 OA
ATOM     42  O   UNL     1     108.714 131.738 138.906  0.00  0.00    +0.000 OA
ATOM     43  O   UNL     1     109.803 131.883 137.971  0.00  0.00    +0.000 OA
ATOM     44  C   UNL     1     108.921 129.766 139.946  0.00  0.00    +0.000 A 
ATOM     45  C   UNL     1     109.636 129.475 139.569  0.00  0.00    +0.000 A 
ATOM     46  C   UNL     1     108.606 130.533 139.724  0.00  0.00    +0.000 A 
ATOM     47  C   UNL     1     110.026 129.957 138.972  0.00  0.00    +0.000 A 
ATOM     48  C   UNL     1     109.010 131.000 139.126  0.00  0.00    +0.000 A 
ATOM     49  C   UNL     1     109.723 130.694 138.759  0.00  0.00    +0.000 A 
ATOM     50  C   UNL     1     110.106 131.146 138.185  0.00  0.00    +0.000 A 
ATOM     51  C   UNL     1     111.095 130.125 138.040  0.00  0.00    +0.000 A 
ATOM     52  C   UNL     1     110.792 130.862 137.826  0.00  0.00    +0.000 A 
BRANCH  51  54
ATOM     53  O   UNL     1     113.839 128.989 136.602  0.00  0.00    +0.000 OA
ATOM     54  C   UNL     1     111.781 129.841 137.680  0.00  0.00    +0.000 A 
ATOM     55  C   UNL     1     111.727 129.346 137.022  0.00  0.00    +0.000 A 
ATOM     56  C   UNL     1     112.521 130.052 137.978  0.00  0.00    +0.000 A 
ATOM     57  C   UNL     1     113.207 129.768 137.620  0.00  0.00    +0.000 A 
ATOM     58  C   UNL     1     112.414 129.062 136.663  0.00  0.00    +0.000 A 
ATOM     59  C   UNL     1     113.153 129.273 136.961  0.00  0.00    +0.000 A 
BRANCH  57  60
ATOM     60  O   UNL     1     113.947 129.979 137.918  0.00  0.00    +0.000 OA
ATOM     61  C   UNL     1     114.006 130.560 138.501  0.00  0.00    +0.000 C 
ENDBRANCH  57  60
BRANCH  58  62
ATOM     62  O   UNL     1     112.361 128.567 136.005  0.00  0.00    +0.000 OA
ATOM     63  C   UNL     1     111.621 128.357 135.706  0.00  0.00    +0.000 C 
ENDBRANCH  58  62
ENDBRANCH  51  54
ENDBRANCH  40  44
ENDBRANCH   7  40
TORSDOF 15
ENDMDL
MODEL 3
REMARK VINA RESULT:      -8.8      1.887      4.421
REMARK  Name = 131752755
REMARK  15 active torsions:
REMARK  status: ('A' for Active; 'I' for Inactive)
REMARK    1  A    between atoms: O_1  and  C_24
REMARK    2  A    between atoms: O_1  and  C_26
REMARK    3  A    between atoms: O_4  and  C_27
REMARK    4  A    between atoms: O_4  and  C_37
REMARK    5  A    between atoms: O_6  and  C_30
REMARK    6  A    between atoms: O_6  and  C_36
REMARK    7  A    between atoms: O_18  and  C_54
REMARK    8  A    between atoms: O_19  and  C_55
REMARK    9  A    between atoms: O_20  and  C_57
REMARK   10  A    between atoms: O_21  and  C_58
REMARK   11  A    between atoms: C_32  and  C_34
REMARK   12  A    between atoms: C_33  and  C_35
REMARK   13  A    between atoms: C_37  and  C_40
REMARK   14  A    between atoms: C_44  and  C_48
REMARK   15  A    between atoms: C_46  and  C_49
REMARK                            x       y       z     vdW  Elec       q    Type
REMARK                         _______ _______ _______ _____ _____    ______ ____
ROOT
ATOM      1  O   UNL     1     112.707 129.416 140.128  0.00  0.00    +0.000 OA
ATOM      2  O   UNL     1     111.802 131.174 141.616  0.00  0.00    +0.000 OA
ATOM      3  O   UNL     1     113.361 130.667 141.792  0.00  0.00    +0.000 OA
ATOM      4  C   UNL     1     111.625 130.256 140.536  0.00  0.00    +0.000 C 
ATOM      5  C   UNL     1     112.104 130.588 141.120  0.00  0.00    +0.000 C 
ATOM      6  C   UNL     1     112.883 130.335 141.208  0.00  0.00    +0.000 C 
ATOM      7  C   UNL     1     111.926 129.670 140.040  0.00  0.00    +0.000 C 
ATOM      8  C   UNL     1     113.185 129.749 140.712  0.00  0.00    +0.000 C 
ENDROOT
BRANCH   8  11
ATOM      9  O   UNL     1     114.583 129.950 140.496  0.00  0.00    +0.000 OA
ATOM     10  O   UNL     1     114.127 128.787 141.190  0.00  0.00    +0.000 OA
ATOM     11  C   UNL     1     113.965 129.495 140.799  0.00  0.00    +0.000 C 
ENDBRANCH   8  11
BRANCH   4  12
ATOM     12  O   UNL     1     110.845 130.509 140.448  0.00  0.00    +0.000 OA
BRANCH  12  16
ATOM     13  O   UNL     1     110.412 129.553 141.417  0.00  0.00    +0.000 OA
ATOM     14  O   UNL     1     108.170 130.601 141.450  0.00  0.00    +0.000 OA
ATOM     15  O   UNL     1     108.485 129.295 142.408  0.00  0.00    +0.000 OA
ATOM     16  C   UNL     1     110.255 130.206 140.938  0.00  0.00    +0.000 C 
ATOM     17  C   UNL     1     109.507 130.555 140.949  0.00  0.00    +0.000 C 
ATOM     18  C   UNL     1     108.917 130.252 141.439  0.00  0.00    +0.000 C 
ATOM     19  C   UNL     1     109.075 129.598 141.918  0.00  0.00    +0.000 C 
ATOM     20  C   UNL     1     109.821 129.249 141.907  0.00  0.00    +0.000 C 
BRANCH  20  23
ATOM     21  O   UNL     1     109.884 127.833 142.088  0.00  0.00    +0.000 OA
ATOM     22  O   UNL     1     110.233 128.706 143.163  0.00  0.00    +0.000 OA
ATOM     23  C   UNL     1     109.979 128.596 142.386  0.00  0.00    +0.000 C 
ENDBRANCH  20  23
BRANCH  17  24
ATOM     24  O   UNL     1     109.351 131.208 140.470  0.00  0.00    +0.000 OA
BRANCH  24  26
ATOM     25  O   UNL     1     108.000 131.109 140.013  0.00  0.00    +0.000 OA
ATOM     26  C   UNL     1     108.808 131.145 139.851  0.00  0.00    +0.000 C 
BRANCH  26  27
ATOM     27  C   UNL     1     109.074 131.117 139.071  0.00  0.00    +0.000 C 
ATOM     28  C   UNL     1     108.657 131.511 138.478  0.00  0.00    +0.000 C 
BRANCH  28  30
ATOM     29  O   UNL     1     109.728 131.399 135.358  0.00  0.00    +0.000 OA
ATOM     30  C   UNL     1     108.925 131.483 137.698  0.00  0.00    +0.000 A 
ATOM     31  C   UNL     1     108.732 130.840 137.218  0.00  0.00    +0.000 A 
ATOM     32  C   UNL     1     109.385 132.098 137.397  0.00  0.00    +0.000 A 
ATOM     33  C   UNL     1     109.653 132.070 136.618  0.00  0.00    +0.000 A 
ATOM     34  C   UNL     1     109.000 130.811 136.438  0.00  0.00    +0.000 A 
ATOM     35  C   UNL     1     109.460 131.427 136.138  0.00  0.00    +0.000 A 
BRANCH  33  36
ATOM     36  O   UNL     1     110.114 132.685 136.317  0.00  0.00    +0.000 OA
ATOM     37  C   UNL     1     110.471 133.223 136.833  0.00  0.00    +0.000 C 
ENDBRANCH  33  36
BRANCH  34  38
ATOM     38  O   UNL     1     108.808 130.169 135.959  0.00  0.00    +0.000 OA
ATOM     39  C   UNL     1     108.891 129.400 136.246  0.00  0.00    +0.000 C 
ENDBRANCH  34  38
ENDBRANCH  28  30
ENDBRANCH  26  27
ENDBRANCH  24  26
ENDBRANCH  17  24
ENDBRANCH  12  16
ENDBRANCH   4  12
BRANCH   7  40
ATOM     40  O   UNL     1     111.449 129.337 139.455  0.00  0.00    +0.000 OA
BRANCH  40  44
ATOM     41  O   UNL     1     112.281 127.155 137.716  0.00  0.00    +0.000 OA
ATOM     42  O   UNL     1     112.669 129.888 136.861  0.00  0.00    +0.000 OA
ATOM     43  O   UNL     1     113.069 128.782 136.025  0.00  0.00    +0.000 OA
ATOM     44  C   UNL     1     111.783 129.073 138.749  0.00  0.00    +0.000 A 
ATOM     45  C   UNL     1     111.860 128.231 138.596  0.00  0.00    +0.000 A 
ATOM     46  C   UNL     1     112.056 129.637 138.163  0.00  0.00    +0.000 A 
ATOM     47  C   UNL     1     112.210 127.965 137.857  0.00  0.00    +0.000 A 
ATOM     48  C   UNL     1     112.404 129.352 137.429  0.00  0.00    +0.000 A 
ATOM     49  C   UNL     1     112.473 128.507 137.294  0.00  0.00    +0.000 A 
ATOM     50  C   UNL     1     112.807 128.240 136.588  0.00  0.00    +0.000 A 
ATOM     51  C   UNL     1     112.616 126.888 137.010  0.00  0.00    +0.000 A 
ATOM     52  C   UNL     1     112.879 127.430 136.446  0.00  0.00    +0.000 A 
BRANCH  51  54
ATOM     53  O   UNL     1     112.901 123.650 136.442  0.00  0.00    +0.000 OA
ATOM     54  C   UNL     1     112.687 126.079 136.868  0.00  0.00    +0.000 A 
ATOM     55  C   UNL     1     113.369 125.678 137.101  0.00  0.00    +0.000 A 
ATOM     56  C   UNL     1     112.076 125.670 136.493  0.00  0.00    +0.000 A 
ATOM     57  C   UNL     1     112.147 124.861 136.351  0.00  0.00    +0.000 A 
ATOM     58  C   UNL     1     113.441 124.868 136.959  0.00  0.00    +0.000 A 
ATOM     59  C   UNL     1     112.830 124.459 136.584  0.00  0.00    +0.000 A 
BRANCH  57  60
ATOM     60  O   UNL     1     111.536 124.452 135.976  0.00  0.00    +0.000 OA
ATOM     61  C   UNL     1     110.884 124.864 135.682  0.00  0.00    +0.000 C 
ENDBRANCH  57  60
BRANCH  58  62
ATOM     62  O   UNL     1     114.123 124.466 137.192  0.00  0.00    +0.000 OA
ATOM     63  C   UNL     1     114.821 124.884 137.327  0.00  0.00    +0.000 C 
ENDBRANCH  58  62
ENDBRANCH  51  54
ENDBRANCH  40  44
ENDBRANCH   7  40
TORSDOF 15
ENDMDL
MODEL 4
REMARK VINA RESULT:      -8.8      1.613      4.705
REMARK  Name = 131752755
REMARK  15 active torsions:
REMARK  status: ('A' for Active; 'I' for Inactive)
REMARK    1  A    between atoms: O_1  and  C_24
REMARK    2  A    between atoms: O_1  and  C_26
REMARK    3  A    between atoms: O_4  and  C_27
REMARK    4  A    between atoms: O_4  and  C_37
REMARK    5  A    between atoms: O_6  and  C_30
REMARK    6  A    between atoms: O_6  and  C_36
REMARK    7  A    between atoms: O_18  and  C_54
REMARK    8  A    between atoms: O_19  and  C_55
REMARK    9  A    between atoms: O_20  and  C_57
REMARK   10  A    between atoms: O_21  and  C_58
REMARK   11  A    between atoms: C_32  and  C_34
REMARK   12  A    between atoms: C_33  and  C_35
REMARK   13  A    between atoms: C_37  and  C_40
REMARK   14  A    between atoms: C_44  and  C_48
REMARK   15  A    between atoms: C_46  and  C_49
REMARK                            x       y       z     vdW  Elec       q    Type
REMARK                         _______ _______ _______ _____ _____    ______ ____
ROOT
ATOM      1  O   UNL     1     110.805 127.881 140.621  0.00  0.00    +0.000 OA
ATOM      2  O   UNL     1     108.787 128.844 139.560  0.00  0.00    +0.000 OA
ATOM      3  O   UNL     1     108.635 127.667 140.705  0.00  0.00    +0.000 OA
ATOM      4  C   UNL     1     110.209 128.791 139.694  0.00  0.00    +0.000 C 
ATOM      5  C   UNL     1     109.460 128.523 139.913  0.00  0.00    +0.000 C 
ATOM      6  C   UNL     1     109.384 127.935 140.486  0.00  0.00    +0.000 C 
ATOM      7  C   UNL     1     110.881 128.471 140.047  0.00  0.00    +0.000 C 
ATOM      8  C   UNL     1     110.056 127.614 140.840  0.00  0.00    +0.000 C 
ENDROOT
BRANCH   8  11
ATOM      9  O   UNL     1     109.940 126.233 141.186  0.00  0.00    +0.000 OA
ATOM     10  O   UNL     1     109.946 127.229 142.211  0.00  0.00    +0.000 OA
ATOM     11  C   UNL     1     109.981 127.026 141.413  0.00  0.00    +0.000 C 
ENDBRANCH   8  11
BRANCH   4  12
ATOM     12  O   UNL     1     110.285 129.380 139.121  0.00  0.00    +0.000 OA
BRANCH  12  16
ATOM     13  O   UNL     1     110.331 130.396 140.125  0.00  0.00    +0.000 OA
ATOM     14  O   UNL     1     109.873 132.116 138.405  0.00  0.00    +0.000 OA
ATOM     15  O   UNL     1     110.071 132.558 139.983  0.00  0.00    +0.000 OA
ATOM     16  C   UNL     1     110.232 130.174 139.336  0.00  0.00    +0.000 C 
ATOM     17  C   UNL     1     110.079 130.748 138.763  0.00  0.00    +0.000 C 
ATOM     18  C   UNL     1     110.026 131.543 138.978  0.00  0.00    +0.000 C 
ATOM     19  C   UNL     1     110.125 131.763 139.767  0.00  0.00    +0.000 C 
ATOM     20  C   UNL     1     110.277 131.190 140.340  0.00  0.00    +0.000 C 
BRANCH  20  23
ATOM     21  O   UNL     1     111.114 131.662 141.398  0.00  0.00    +0.000 OA
ATOM     22  O   UNL     1     109.737 131.380 141.649  0.00  0.00    +0.000 OA
ATOM     23  C   UNL     1     110.376 131.411 141.129  0.00  0.00    +0.000 C 
ENDBRANCH  20  23
BRANCH  17  24
ATOM     24  O   UNL     1     109.980 130.526 137.975  0.00  0.00    +0.000 OA
BRANCH  24  26
ATOM     25  O   UNL     1     110.410 131.531 137.052  0.00  0.00    +0.000 OA
ATOM     26  C   UNL     1     110.513 130.790 137.402  0.00  0.00    +0.000 C 
BRANCH  26  27
ATOM     27  C   UNL     1     111.149 130.313 137.180  0.00  0.00    +0.000 C 
ATOM     28  C   UNL     1     111.466 130.375 136.421  0.00  0.00    +0.000 C 
BRANCH  28  30
ATOM     29  O   UNL     1     114.010 128.467 135.540  0.00  0.00    +0.000 OA
ATOM     30  C   UNL     1     112.102 129.898 136.201  0.00  0.00    +0.000 A 
ATOM     31  C   UNL     1     111.966 129.177 135.825  0.00  0.00    +0.000 A 
ATOM     32  C   UNL     1     112.874 130.142 136.357  0.00  0.00    +0.000 A 
ATOM     33  C   UNL     1     113.511 129.665 136.137  0.00  0.00    +0.000 A 
ATOM     34  C   UNL     1     112.601 128.699 135.604  0.00  0.00    +0.000 A 
ATOM     35  C   UNL     1     113.374 128.943 135.760  0.00  0.00    +0.000 A 
BRANCH  33  36
ATOM     36  O   UNL     1     114.283 129.910 136.292  0.00  0.00    +0.000 OA
ATOM     37  C   UNL     1     114.434 130.422 136.922  0.00  0.00    +0.000 C 
ENDBRANCH  33  36
BRANCH  34  38
ATOM     38  O   UNL     1     112.465 127.978 135.228  0.00  0.00    +0.000 OA
ATOM     39  C   UNL     1     111.718 127.630 135.260  0.00  0.00    +0.000 C 
ENDBRANCH  34  38
ENDBRANCH  28  30
ENDBRANCH  26  27
ENDBRANCH  24  26
ENDBRANCH  17  24
ENDBRANCH  12  16
ENDBRANCH   4  12
BRANCH   7  40
ATOM     40  O   UNL     1     111.630 128.738 139.828  0.00  0.00    +0.000 OA
BRANCH  40  44
ATOM     41  O   UNL     1     112.978 126.595 138.388  0.00  0.00    +0.000 OA
ATOM     42  O   UNL     1     114.121 127.601 140.844  0.00  0.00    +0.000 OA
ATOM     43  O   UNL     1     114.761 126.540 140.104  0.00  0.00    +0.000 OA
ATOM     44  C   UNL     1     112.256 128.204 139.760  0.00  0.00    +0.000 A 
ATOM     45  C   UNL     1     112.292 127.664 139.093  0.00  0.00    +0.000 A 
ATOM     46  C   UNL     1     112.874 128.185 140.356  0.00  0.00    +0.000 A 
ATOM     47  C   UNL     1     112.948 127.111 139.031  0.00  0.00    +0.000 A 
ATOM     48  C   UNL     1     113.522 127.626 140.276  0.00  0.00    +0.000 A 
ATOM     49  C   UNL     1     113.542 127.093 139.603  0.00  0.00    +0.000 A 
ATOM     50  C   UNL     1     114.167 126.558 139.532  0.00  0.00    +0.000 A 
ATOM     51  C   UNL     1     113.602 126.060 138.318  0.00  0.00    +0.000 A 
ATOM     52  C   UNL     1     114.197 126.042 138.890  0.00  0.00    +0.000 A 
BRANCH  51  54
ATOM     53  O   UNL     1     113.723 123.994 135.748  0.00  0.00    +0.000 OA
ATOM     54  C   UNL     1     113.632 125.544 137.675  0.00  0.00    +0.000 A 
ATOM     55  C   UNL     1     112.991 125.050 137.512  0.00  0.00    +0.000 A 
ATOM     56  C   UNL     1     114.303 125.520 137.196  0.00  0.00    +0.000 A 
ATOM     57  C   UNL     1     114.334 125.004 136.554  0.00  0.00    +0.000 A 
ATOM     58  C   UNL     1     113.022 124.533 136.870  0.00  0.00    +0.000 A 
ATOM     59  C   UNL     1     113.692 124.510 136.390  0.00  0.00    +0.000 A 
BRANCH  57  60
ATOM     60  O   UNL     1     115.005 124.981 136.074  0.00  0.00    +0.000 OA
ATOM     61  C   UNL     1     115.320 125.681 135.771  0.00  0.00    +0.000 C 
ENDBRANCH  57  60
BRANCH  58  62
ATOM     62  O   UNL     1     112.381 124.039 136.706  0.00  0.00    +0.000 OA
ATOM     63  C   UNL     1     111.765 123.971 137.250  0.00  0.00    +0.000 C 
ENDBRANCH  58  62
ENDBRANCH  51  54
ENDBRANCH  40  44
ENDBRANCH   7  40
TORSDOF 15
ENDMDL
MODEL 5
REMARK VINA RESULT:      -8.7      3.583      6.198
REMARK  Name = 131752755
REMARK  15 active torsions:
REMARK  status: ('A' for Active; 'I' for Inactive)
REMARK    1  A    between atoms: O_1  and  C_24
REMARK    2  A    between atoms: O_1  and  C_26
REMARK    3  A    between atoms: O_4  and  C_27
REMARK    4  A    between atoms: O_4  and  C_37
REMARK    5  A    between atoms: O_6  and  C_30
REMARK    6  A    between atoms: O_6  and  C_36
REMARK    7  A    between atoms: O_18  and  C_54
REMARK    8  A    between atoms: O_19  and  C_55
REMARK    9  A    between atoms: O_20  and  C_57
REMARK   10  A    between atoms: O_21  and  C_58
REMARK   11  A    between atoms: C_32  and  C_34
REMARK   12  A    between atoms: C_33  and  C_35
REMARK   13  A    between atoms: C_37  and  C_40
REMARK   14  A    between atoms: C_44  and  C_48
REMARK   15  A    between atoms: C_46  and  C_49
REMARK                            x       y       z     vdW  Elec       q    Type
REMARK                         _______ _______ _______ _____ _____    ______ ____
ROOT
ATOM      1  O   UNL     1     107.241 130.752 143.048  0.00  0.00    +0.000 OA
ATOM      2  O   UNL     1     107.831 129.853 140.819  0.00  0.00    +0.000 OA
ATOM      3  O   UNL     1     106.611 130.953 140.968  0.00  0.00    +0.000 OA
ATOM      4  C   UNL     1     108.048 129.902 142.230  0.00  0.00    +0.000 C 
ATOM      5  C   UNL     1     107.634 130.153 141.562  0.00  0.00    +0.000 C 
ATOM      6  C   UNL     1     107.025 130.702 141.636  0.00  0.00    +0.000 C 
ATOM      7  C   UNL     1     107.852 130.201 142.973  0.00  0.00    +0.000 C 
ATOM      8  C   UNL     1     106.828 131.002 142.379  0.00  0.00    +0.000 C 
ENDROOT
BRANCH   8  11
ATOM      9  O   UNL     1     105.444 131.294 142.587  0.00  0.00    +0.000 OA
ATOM     10  O   UNL     1     106.379 132.359 142.398  0.00  0.00    +0.000 OA
ATOM     11  C   UNL     1     106.218 131.552 142.455  0.00  0.00    +0.000 C 
ENDBRANCH   8  11
BRANCH   4  12
ATOM     12  O   UNL     1     108.658 129.352 142.156  0.00  0.00    +0.000 OA
BRANCH  12  16
ATOM     13  O   UNL     1     107.786 128.255 142.433  0.00  0.00    +0.000 OA
ATOM     14  O   UNL     1     109.359 126.717 141.301  0.00  0.00    +0.000 OA
ATOM     15  O   UNL     1     107.962 126.133 141.956  0.00  0.00    +0.000 OA
ATOM     16  C   UNL     1     108.484 128.547 142.106  0.00  0.00    +0.000 C 
ATOM     17  C   UNL     1     109.009 128.034 141.728  0.00  0.00    +0.000 C 
ATOM     18  C   UNL     1     108.835 127.229 141.678  0.00  0.00    +0.000 C 
ATOM     19  C   UNL     1     108.136 126.938 142.006  0.00  0.00    +0.000 C 
ATOM     20  C   UNL     1     107.612 127.450 142.383  0.00  0.00    +0.000 C 
BRANCH  20  23
ATOM     21  O   UNL     1     106.224 127.131 142.258  0.00  0.00    +0.000 OA
ATOM     22  O   UNL     1     106.903 126.895 143.492  0.00  0.00    +0.000 OA
ATOM     23  C   UNL     1     106.913 127.158 142.711  0.00  0.00    +0.000 C 
ENDBRANCH  20  23
BRANCH  17  24
ATOM     24  O   UNL     1     109.708 128.326 141.401  0.00  0.00    +0.000 OA
BRANCH  24  26
ATOM     25  O   UNL     1     110.438 127.842 142.531  0.00  0.00    +0.000 OA
ATOM     26  C   UNL     1     110.423 128.229 141.802  0.00  0.00    +0.000 C 
BRANCH  26  27
ATOM     27  C   UNL     1     111.122 128.519 141.474  0.00  0.00    +0.000 C 
ATOM     28  C   UNL     1     111.783 128.643 141.952  0.00  0.00    +0.000 C 
BRANCH  28  30
ATOM     29  O   UNL     1     114.577 129.800 140.632  0.00  0.00    +0.000 OA
ATOM     30  C   UNL     1     112.481 128.933 141.622  0.00  0.00    +0.000 A 
ATOM     31  C   UNL     1     112.641 129.742 141.638  0.00  0.00    +0.000 A 
ATOM     32  C   UNL     1     113.020 128.413 141.276  0.00  0.00    +0.000 A 
ATOM     33  C   UNL     1     113.719 128.702 140.946  0.00  0.00    +0.000 A 
ATOM     34  C   UNL     1     113.339 130.032 141.308  0.00  0.00    +0.000 A 
ATOM     35  C   UNL     1     113.878 129.512 140.962  0.00  0.00    +0.000 A 
BRANCH  33  36
ATOM     36  O   UNL     1     114.258 128.182 140.600  0.00  0.00    +0.000 OA
ATOM     37  C   UNL     1     114.368 127.429 140.920  0.00  0.00    +0.000 C 
ENDBRANCH  33  36
BRANCH  34  38
ATOM     38  O   UNL     1     113.499 130.840 141.324  0.00  0.00    +0.000 OA
ATOM     39  C   UNL     1     113.391 131.269 142.020  0.00  0.00    +0.000 C 
ENDBRANCH  34  38
ENDBRANCH  28  30
ENDBRANCH  26  27
ENDBRANCH  24  26
ENDBRANCH  17  24
ENDBRANCH  12  16
ENDBRANCH   4  12
BRANCH   7  40
ATOM     40  O   UNL     1     108.265 129.951 143.642  0.00  0.00    +0.000 OA
BRANCH  40  44
ATOM     41  O   UNL     1     110.291 131.770 144.674  0.00  0.00    +0.000 OA
ATOM     42  O   UNL     1     107.768 131.514 146.058  0.00  0.00    +0.000 OA
ATOM     43  O   UNL     1     108.795 132.405 146.541  0.00  0.00    +0.000 OA
ATOM     44  C   UNL     1     108.512 130.502 144.204  0.00  0.00    +0.000 A 
ATOM     45  C   UNL     1     109.292 130.859 144.145  0.00  0.00    +0.000 A 
ATOM     46  C   UNL     1     107.993 130.722 144.852  0.00  0.00    +0.000 A 
ATOM     47  C   UNL     1     109.542 131.432 144.736  0.00  0.00    +0.000 A 
ATOM     48  C   UNL     1     108.260 131.297 145.433  0.00  0.00    +0.000 A 
ATOM     49  C   UNL     1     109.043 131.643 145.358  0.00  0.00    +0.000 A 
ATOM     50  C   UNL     1     109.293 132.194 145.919  0.00  0.00    +0.000 A 
ATOM     51  C   UNL     1     110.542 132.321 145.235  0.00  0.00    +0.000 A 
ATOM     52  C   UNL     1     110.043 132.533 145.857  0.00  0.00    +0.000 A 
BRANCH  51  54
ATOM     53  O   UNL     1     113.539 133.680 144.989  0.00  0.00    +0.000 OA
ATOM     54  C   UNL     1     111.291 132.661 145.173  0.00  0.00    +0.000 A 
ATOM     55  C   UNL     1     111.920 132.354 145.610  0.00  0.00    +0.000 A 
ATOM     56  C   UNL     1     111.411 133.307 144.675  0.00  0.00    +0.000 A 
ATOM     57  C   UNL     1     112.160 133.647 144.613  0.00  0.00    +0.000 A 
ATOM     58  C   UNL     1     112.669 132.694 145.549  0.00  0.00    +0.000 A 
ATOM     59  C   UNL     1     112.790 133.340 145.051  0.00  0.00    +0.000 A 
BRANCH  57  60
ATOM     60  O   UNL     1     112.281 134.293 144.115  0.00  0.00    +0.000 OA
ATOM     61  C   UNL     1     111.837 134.981 144.216  0.00  0.00    +0.000 C 
ENDBRANCH  57  60
BRANCH  58  62
ATOM     62  O   UNL     1     113.299 132.388 145.985  0.00  0.00    +0.000 OA
ATOM     63  C   UNL     1     113.154 131.987 146.692  0.00  0.00    +0.000 C 
ENDBRANCH  58  62
ENDBRANCH  51  54
ENDBRANCH  40  44
ENDBRANCH   7  40
TORSDOF 15
ENDMDL
MODEL 6
REMARK VINA RESULT:      -8.6      5.179      9.258
REMARK  Name = 131752755
REMARK  15 active torsions:
REMARK  status: ('A' for Active; 'I' for Inactive)
REMARK    1  A    between atoms: O_1  and  C_24
REMARK    2  A    between atoms: O_1  and  C_26
REMARK    3  A    between atoms: O_4  and  C_27
REMARK    4  A    between atoms: O_4  and  C_37
REMARK    5  A    between atoms: O_6  and  C_30
REMARK    6  A    between atoms: O_6  and  C_36
REMARK    7  A    between atoms: O_18  and  C_54
REMARK    8  A    between atoms: O_19  and  C_55
REMARK    9  A    between atoms: O_20  and  C_57
REMARK   10  A    between atoms: O_21  and  C_58
REMARK   11  A    between atoms: C_32  and  C_34
REMARK   12  A    between atoms: C_33  and  C_35
REMARK   13  A    between atoms: C_37  and  C_40
REMARK   14  A    between atoms: C_44  and  C_48
REMARK   15  A    between atoms: C_46  and  C_49
REMARK                            x       y       z     vdW  Elec       q    Type
REMARK                         _______ _______ _______ _____ _____    ______ ____
ROOT
ATOM      1  O   UNL     1     106.234 128.994 142.210  0.00  0.00    +0.000 OA
ATOM      2  O   UNL     1     107.960 127.408 143.004  0.00  0.00    +0.000 OA
ATOM      3  O   UNL     1     108.399 128.734 142.128  0.00  0.00    +0.000 OA
ATOM      4  C   UNL     1     106.590 127.801 142.913  0.00  0.00    +0.000 C 
ATOM      5  C   UNL     1     107.385 127.937 142.739  0.00  0.00    +0.000 C 
ATOM      6  C   UNL     1     107.605 128.600 142.302  0.00  0.00    +0.000 C 
ATOM      7  C   UNL     1     106.014 128.330 142.649  0.00  0.00    +0.000 C 
ATOM      8  C   UNL     1     107.029 129.129 142.037  0.00  0.00    +0.000 C 
ENDROOT
BRANCH   8  11
ATOM      9  O   UNL     1     107.448 130.494 141.986  0.00  0.00    +0.000 OA
ATOM     10  O   UNL     1     107.269 129.755 140.775  0.00  0.00    +0.000 OA
ATOM     11  C   UNL     1     107.249 129.792 141.599  0.00  0.00    +0.000 C 
ENDBRANCH   8  11
BRANCH   4  12
ATOM     12  O   UNL     1     106.370 127.138 143.351  0.00  0.00    +0.000 OA
BRANCH  12  16
ATOM     13  O   UNL     1     106.145 126.381 142.160  0.00  0.00    +0.000 OA
ATOM     14  O   UNL     1     106.208 124.288 143.477  0.00  0.00    +0.000 OA
ATOM     15  O   UNL     1     105.962 124.230 141.846  0.00  0.00    +0.000 OA
ATOM     16  C   UNL     1     106.268 126.411 142.975  0.00  0.00    +0.000 C 
ATOM     17  C   UNL     1     106.289 125.712 143.414  0.00  0.00    +0.000 C 
ATOM     18  C   UNL     1     106.187 124.985 143.038  0.00  0.00    +0.000 C 
ATOM     19  C   UNL     1     106.064 124.957 142.222  0.00  0.00    +0.000 C 
ATOM     20  C   UNL     1     106.043 125.654 141.783  0.00  0.00    +0.000 C 
BRANCH  20  23
ATOM     21  O   UNL     1     106.559 125.516 140.458  0.00  0.00    +0.000 OA
ATOM     22  O   UNL     1     105.158 125.708 140.663  0.00  0.00    +0.000 OA
ATOM     23  C   UNL     1     105.920 125.626 140.968  0.00  0.00    +0.000 C 
ENDBRANCH  20  23
BRANCH  17  24
ATOM     24  O   UNL     1     106.412 125.742 144.229  0.00  0.00    +0.000 OA
BRANCH  24  26
ATOM     25  O   UNL     1     105.014 125.699 144.526  0.00  0.00    +0.000 OA
ATOM     26  C   UNL     1     105.796 125.554 144.746  0.00  0.00    +0.000 C 
BRANCH  26  27
ATOM     27  C   UNL     1     105.963 125.221 145.482  0.00  0.00    +0.000 C 
ATOM     28  C   UNL     1     105.790 125.637 146.172  0.00  0.00    +0.000 C 
BRANCH  28  30
ATOM     29  O   UNL     1     106.458 124.300 149.115  0.00  0.00    +0.000 OA
ATOM     30  C   UNL     1     105.957 125.303 146.908  0.00  0.00    +0.000 A 
ATOM     31  C   UNL     1     106.737 125.253 147.171  0.00  0.00    +0.000 A 
ATOM     32  C   UNL     1     105.344 125.019 147.381  0.00  0.00    +0.000 A 
ATOM     33  C   UNL     1     105.510 124.685 148.117  0.00  0.00    +0.000 A 
ATOM     34  C   UNL     1     106.905 124.919 147.906  0.00  0.00    +0.000 A 
ATOM     35  C   UNL     1     106.291 124.635 148.379  0.00  0.00    +0.000 A 
BRANCH  33  36
ATOM     36  O   UNL     1     104.897 124.401 148.589  0.00  0.00    +0.000 OA
ATOM     37  C   UNL     1     104.137 124.714 148.511  0.00  0.00    +0.000 C 
ENDBRANCH  33  36
BRANCH  34  38
ATOM     38  O   UNL     1     107.685 124.868 148.169  0.00  0.00    +0.000 OA
ATOM     39  C   UNL     1     108.293 125.208 147.726  0.00  0.00    +0.000 C 
ENDBRANCH  34  38
ENDBRANCH  28  30
ENDBRANCH  26  27
ENDBRANCH  24  26
ENDBRANCH  17  24
ENDBRANCH  12  16
ENDBRANCH   4  12
BRANCH   7  40
ATOM     40  O   UNL     1     105.219 128.196 142.822  0.00  0.00    +0.000 OA
BRANCH  40  44
ATOM     41  O   UNL     1     104.300 130.236 144.685  0.00  0.00    +0.000 OA
ATOM     42  O   UNL     1     103.094 130.050 142.067  0.00  0.00    +0.000 OA
ATOM     43  O   UNL     1     102.663 131.048 143.015  0.00  0.00    +0.000 OA
ATOM     44  C   UNL     1     104.723 128.830 143.001  0.00  0.00    +0.000 A 
ATOM     45  C   UNL     1     104.771 129.213 143.769  0.00  0.00    +0.000 A 
ATOM     46  C   UNL     1     104.155 129.111 142.421  0.00  0.00    +0.000 A 
ATOM     47  C   UNL     1     104.249 129.873 143.947  0.00  0.00    +0.000 A 
ATOM     48  C   UNL     1     103.642 129.773 142.617  0.00  0.00    +0.000 A 
ATOM     49  C   UNL     1     103.704 130.143 143.390  0.00  0.00    +0.000 A 
ATOM     50  C   UNL     1     103.209 130.778 143.572  0.00  0.00    +0.000 A 
ATOM     51  C   UNL     1     103.805 130.870 144.867  0.00  0.00    +0.000 A 
ATOM     52  C   UNL     1     103.259 131.141 144.311  0.00  0.00    +0.000 A 
BRANCH  51  54
ATOM     53  O   UNL     1     104.005 132.325 147.822  0.00  0.00    +0.000 OA
ATOM     54  C   UNL     1     103.855 131.234 145.606  0.00  0.00    +0.000 A 
ATOM     55  C   UNL     1     104.355 131.881 145.714  0.00  0.00    +0.000 A 
ATOM     56  C   UNL     1     103.404 130.951 146.237  0.00  0.00    +0.000 A 
ATOM     57  C   UNL     1     103.454 131.315 146.975  0.00  0.00    +0.000 A 
ATOM     58  C   UNL     1     104.405 132.245 146.453  0.00  0.00    +0.000 A 
ATOM     59  C   UNL     1     103.955 131.962 147.084  0.00  0.00    +0.000 A 
BRANCH  57  60
ATOM     60  O   UNL     1     103.003 131.032 147.606  0.00  0.00    +0.000 OA
ATOM     61  C   UNL     1     102.937 130.219 147.734  0.00  0.00    +0.000 C 
ENDBRANCH  57  60
BRANCH  58  62
ATOM     62  O   UNL     1     104.906 132.892 146.562  0.00  0.00    +0.000 OA
ATOM     63  C   UNL     1     105.639 132.914 146.184  0.00  0.00    +0.000 C 
ENDBRANCH  58  62
ENDBRANCH  51  54
ENDBRANCH  40  44
ENDBRANCH   7  40
TORSDOF 15
ENDMDL
MODEL 7
REMARK VINA RESULT:      -8.6      5.583      9.919
REMARK  Name = 131752755
REMARK  15 active torsions:
REMARK  status: ('A' for Active; 'I' for Inactive)
REMARK    1  A    between atoms: O_1  and  C_24
REMARK    2  A    between atoms: O_1  and  C_26
REMARK    3  A    between atoms: O_4  and  C_27
REMARK    4  A    between atoms: O_4  and  C_37
REMARK    5  A    between atoms: O_6  and  C_30
REMARK    6  A    between atoms: O_6  and  C_36
REMARK    7  A    between atoms: O_18  and  C_54
REMARK    8  A    between atoms: O_19  and  C_55
REMARK    9  A    between atoms: O_20  and  C_57
REMARK   10  A    between atoms: O_21  and  C_58
REMARK   11  A    between atoms: C_32  and  C_34
REMARK   12  A    between atoms: C_33  and  C_35
REMARK   13  A    between atoms: C_37  and  C_40
REMARK   14  A    between atoms: C_44  and  C_48
REMARK   15  A    between atoms: C_46  and  C_49
REMARK                            x       y       z     vdW  Elec       q    Type
REMARK                         _______ _______ _______ _____ _____    ______ ____
ROOT
ATOM      1  O   UNL     1     106.082 125.826 143.224  0.00  0.00    +0.000 OA
ATOM      2  O   UNL     1     107.569 127.179 141.782  0.00  0.00    +0.000 OA
ATOM      3  O   UNL     1     107.081 125.683 141.290  0.00  0.00    +0.000 OA
ATOM      4  C   UNL     1     106.822 127.026 142.990  0.00  0.00    +0.000 C 
ATOM      5  C   UNL     1     107.073 126.728 142.262  0.00  0.00    +0.000 C 
ATOM      6  C   UNL     1     106.830 125.980 142.016  0.00  0.00    +0.000 C 
ATOM      7  C   UNL     1     106.326 126.575 143.470  0.00  0.00    +0.000 C 
ATOM      8  C   UNL     1     106.334 125.529 142.497  0.00  0.00    +0.000 C 
ENDROOT
BRANCH   8  11
ATOM      9  O   UNL     1     106.575 124.125 142.381  0.00  0.00    +0.000 OA
ATOM     10  O   UNL     1     105.361 124.686 141.877  0.00  0.00    +0.000 OA
ATOM     11  C   UNL     1     106.090 124.780 142.251  0.00  0.00    +0.000 C 
ENDBRANCH   8  11
BRANCH   4  12
ATOM     12  O   UNL     1     107.065 127.774 143.236  0.00  0.00    +0.000 OA
BRANCH  12  16
ATOM     13  O   UNL     1     105.932 128.391 142.621  0.00  0.00    +0.000 OA
ATOM     14  O   UNL     1     107.081 130.582 142.701  0.00  0.00    +0.000 OA
ATOM     15  O   UNL     1     105.565 130.468 142.060  0.00  0.00    +0.000 OA
ATOM     16  C   UNL     1     106.690 128.448 142.942  0.00  0.00    +0.000 C 
ATOM     17  C   UNL     1     107.073 129.179 142.969  0.00  0.00    +0.000 C 
ATOM     18  C   UNL     1     106.698 129.852 142.675  0.00  0.00    +0.000 C 
ATOM     19  C   UNL     1     105.940 129.794 142.354  0.00  0.00    +0.000 C 
ATOM     20  C   UNL     1     105.557 129.065 142.327  0.00  0.00    +0.000 C 
BRANCH  20  23
ATOM     21  O   UNL     1     104.701 128.895 141.195  0.00  0.00    +0.000 OA
ATOM     22  O   UNL     1     104.139 129.061 142.498  0.00  0.00    +0.000 OA
ATOM     23  C   UNL     1     104.799 129.007 142.006  0.00  0.00    +0.000 C 
ENDBRANCH  20  23
BRANCH  17  24
ATOM     24  O   UNL     1     107.831 129.235 143.289  0.00  0.00    +0.000 OA
BRANCH  24  26
ATOM     25  O   UNL     1     107.346 129.640 144.572  0.00  0.00    +0.000 OA
ATOM     26  C   UNL     1     107.947 129.628 144.006  0.00  0.00    +0.000 C 
BRANCH  26  27
ATOM     27  C   UNL     1     108.663 130.008 144.156  0.00  0.00    +0.000 C 
ATOM     28  C   UNL     1     109.015 129.949 144.900  0.00  0.00    +0.000 C 
BRANCH  28  30
ATOM     29  O   UNL     1     111.882 131.469 145.495  0.00  0.00    +0.000 OA
ATOM     30  C   UNL     1     109.731 130.329 145.049  0.00  0.00    +0.000 A 
ATOM     31  C   UNL     1     109.747 131.143 145.180  0.00  0.00    +0.000 A 
ATOM     32  C   UNL     1     110.433 129.895 145.067  0.00  0.00    +0.000 A 
ATOM     33  C   UNL     1     111.150 130.275 145.215  0.00  0.00    +0.000 A 
ATOM     34  C   UNL     1     110.464 131.524 145.329  0.00  0.00    +0.000 A 
ATOM     35  C   UNL     1     111.165 131.090 145.347  0.00  0.00    +0.000 A 
BRANCH  33  36
ATOM     36  O   UNL     1     111.851 129.840 145.233  0.00  0.00    +0.000 OA
ATOM     37  C   UNL     1     111.825 129.016 145.227  0.00  0.00    +0.000 C 
ENDBRANCH  33  36
BRANCH  34  38
ATOM     38  O   UNL     1     110.480 132.338 145.460  0.00  0.00    +0.000 OA
ATOM     39  C   UNL     1     109.890 132.695 145.912  0.00  0.00    +0.000 C 
ENDBRANCH  34  38
ENDBRANCH  28  30
ENDBRANCH  26  27
ENDBRANCH  24  26
ENDBRANCH  17  24
ENDBRANCH  12  16
ENDBRANCH   4  12
BRANCH   7  40
ATOM     40  O   UNL     1     106.074 126.872 144.198  0.00  0.00    +0.000 OA
BRANCH  40  44
ATOM     41  O   UNL     1     104.326 125.324 145.938  0.00  0.00    +0.000 OA
ATOM     42  O   UNL     1     107.179 125.292 146.390  0.00  0.00    +0.000 OA
ATOM     43  O   UNL     1     106.284 124.537 147.232  0.00  0.00    +0.000 OA
ATOM     44  C   UNL     1     105.970 126.362 144.838  0.00  0.00    +0.000 A 
ATOM     45  C   UNL     1     105.182 126.102 145.060  0.00  0.00    +0.000 A 
ATOM     46  C   UNL     1     106.650 126.090 145.287  0.00  0.00    +0.000 A 
ATOM     47  C   UNL     1     105.084 125.571 145.730  0.00  0.00    +0.000 A 
ATOM     48  C   UNL     1     106.532 125.559 145.954  0.00  0.00    +0.000 A 
ATOM     49  C   UNL     1     105.737 125.309 146.161  0.00  0.00    +0.000 A 
ATOM     50  C   UNL     1     105.631 124.799 146.801  0.00  0.00    +0.000 A 
ATOM     51  C   UNL     1     104.219 124.815 146.578  0.00  0.00    +0.000 A 
ATOM     52  C   UNL     1     104.872 124.552 147.010  0.00  0.00    +0.000 A 
BRANCH  51  54
ATOM     53  O   UNL     1     101.184 123.826 147.415  0.00  0.00    +0.000 OA
ATOM     54  C   UNL     1     103.461 124.567 146.787  0.00  0.00    +0.000 A 
ATOM     55  C   UNL     1     103.159 123.861 146.487  0.00  0.00    +0.000 A 
ATOM     56  C   UNL     1     103.003 125.027 147.297  0.00  0.00    +0.000 A 
ATOM     57  C   UNL     1     102.244 124.781 147.507  0.00  0.00    +0.000 A 
ATOM     58  C   UNL     1     102.401 123.613 146.696  0.00  0.00    +0.000 A 
ATOM     59  C   UNL     1     101.943 124.073 147.206  0.00  0.00    +0.000 A 
BRANCH  57  60
ATOM     60  O   UNL     1     101.786 125.240 148.016  0.00  0.00    +0.000 OA
ATOM     61  C   UNL     1     102.122 125.556 148.700  0.00  0.00    +0.000 C 
ENDBRANCH  57  60
BRANCH  58  62
ATOM     62  O   UNL     1     102.099 122.907 146.396  0.00  0.00    +0.000 OA
ATOM     63  C   UNL     1     102.165 122.740 145.591  0.00  0.00    +0.000 C 
ENDBRANCH  58  62
ENDBRANCH  51  54
ENDBRANCH  40  44
ENDBRANCH   7  40
TORSDOF 15
ENDMDL
MODEL 8
REMARK VINA RESULT:      -8.6      1.575      4.647
REMARK  Name = 131752755
REMARK  15 active torsions:
REMARK  status: ('A' for Active; 'I' for Inactive)
REMARK    1  A    between atoms: O_1  and  C_24
REMARK    2  A    between atoms: O_1  and  C_26
REMARK    3  A    between atoms: O_4  and  C_27
REMARK    4  A    between atoms: O_4  and  C_37
REMARK    5  A    between atoms: O_6  and  C_30
REMARK    6  A    between atoms: O_6  and  C_36
REMARK    7  A    between atoms: O_18  and  C_54
REMARK    8  A    between atoms: O_19  and  C_55
REMARK    9  A    between atoms: O_20  and  C_57
REMARK   10  A    between atoms: O_21  and  C_58
REMARK   11  A    between atoms: C_32  and  C_34
REMARK   12  A    between atoms: C_33  and  C_35
REMARK   13  A    between atoms: C_37  and  C_40
REMARK   14  A    between atoms: C_44  and  C_48
REMARK   15  A    between atoms: C_46  and  C_49
REMARK                            x       y       z     vdW  Elec       q    Type
REMARK                         _______ _______ _______ _____ _____    ______ ____
ROOT
ATOM      1  O   UNL     1     108.649 129.217 141.641  0.00  0.00    +0.000 OA
ATOM      2  O   UNL     1     109.484 131.509 141.223  0.00  0.00    +0.000 OA
ATOM      3  O   UNL     1     107.862 131.229 141.329  0.00  0.00    +0.000 OA
ATOM      4  C   UNL     1     109.739 130.122 141.448  0.00  0.00    +0.000 C 
ATOM      5  C   UNL     1     109.206 130.745 141.362  0.00  0.00    +0.000 C 
ATOM      6  C   UNL     1     108.395 130.605 141.415  0.00  0.00    +0.000 C 
ATOM      7  C   UNL     1     109.461 129.358 141.588  0.00  0.00    +0.000 C 
ATOM      8  C   UNL     1     108.116 129.841 141.554  0.00  0.00    +0.000 C 
ENDROOT
BRANCH   8  11
ATOM      9  O   UNL     1     106.935 129.700 142.345  0.00  0.00    +0.000 OA
ATOM     10  O   UNL     1     106.865 129.560 140.924  0.00  0.00    +0.000 OA
ATOM     11  C   UNL     1     107.305 129.701 141.608  0.00  0.00    +0.000 C 
ENDBRANCH   8  11
BRANCH   4  12
ATOM     12  O   UNL     1     110.550 130.261 141.396  0.00  0.00    +0.000 OA
BRANCH  12  16
ATOM     13  O   UNL     1     110.626 130.533 142.797  0.00  0.00    +0.000 OA
ATOM     14  O   UNL     1     112.846 131.579 142.473  0.00  0.00    +0.000 OA
ATOM     15  O   UNL     1     112.182 131.502 143.982  0.00  0.00    +0.000 OA
ATOM     16  C   UNL     1     110.958 130.571 142.042  0.00  0.00    +0.000 C 
ATOM     17  C   UNL     1     111.698 130.920 141.934  0.00  0.00    +0.000 C 
ATOM     18  C   UNL     1     112.106 131.230 142.581  0.00  0.00    +0.000 C 
ATOM     19  C   UNL     1     111.774 131.192 143.335  0.00  0.00    +0.000 C 
ATOM     20  C   UNL     1     111.034 130.843 143.443  0.00  0.00    +0.000 C 
BRANCH  20  23
ATOM     21  O   UNL     1     110.815 130.135 144.664  0.00  0.00    +0.000 OA
ATOM     22  O   UNL     1     110.256 131.437 144.484  0.00  0.00    +0.000 OA
ATOM     23  C   UNL     1     110.702 130.804 144.197  0.00  0.00    +0.000 C 
ENDBRANCH  20  23
BRANCH  17  24
ATOM     24  O   UNL     1     112.030 130.959 141.180  0.00  0.00    +0.000 OA
BRANCH  24  26
ATOM     25  O   UNL     1     113.304 130.370 141.451  0.00  0.00    +0.000 OA
ATOM     26  C   UNL     1     112.638 130.441 140.970  0.00  0.00    +0.000 C 
BRANCH  26  27
ATOM     27  C   UNL     1     112.578 129.995 140.279  0.00  0.00    +0.000 C 
ATOM     28  C   UNL     1     113.261 129.747 139.887  0.00  0.00    +0.000 C 
BRANCH  28  30
ATOM     29  O   UNL     1     113.018 127.960 137.124  0.00  0.00    +0.000 OA
ATOM     30  C   UNL     1     113.200 129.301 139.196  0.00  0.00    +0.000 A 
ATOM     31  C   UNL     1     113.020 129.669 138.480  0.00  0.00    +0.000 A 
ATOM     32  C   UNL     1     113.319 128.485 139.220  0.00  0.00    +0.000 A 
ATOM     33  C   UNL     1     113.259 128.038 138.530  0.00  0.00    +0.000 A 
ATOM     34  C   UNL     1     112.959 129.223 137.789  0.00  0.00    +0.000 A 
ATOM     35  C   UNL     1     113.078 128.407 137.814  0.00  0.00    +0.000 A 
BRANCH  33  36
ATOM     36  O   UNL     1     113.378 127.222 138.555  0.00  0.00    +0.000 OA
ATOM     37  C   UNL     1     113.554 126.853 139.272  0.00  0.00    +0.000 C 
ENDBRANCH  33  36
BRANCH  34  38
ATOM     38  O   UNL     1     112.779 129.592 137.074  0.00  0.00    +0.000 OA
ATOM     39  C   UNL     1     113.117 130.321 136.889  0.00  0.00    +0.000 C 
ENDBRANCH  34  38
ENDBRANCH  28  30
ENDBRANCH  26  27
ENDBRANCH  24  26
ENDBRANCH  17  24
ENDBRANCH  12  16
ENDBRANCH   4  12
BRANCH   7  40
ATOM     40  O   UNL     1     109.993 128.733 141.674  0.00  0.00    +0.000 OA
BRANCH  40  44
ATOM     41  O   UNL     1     109.972 127.105 139.260  0.00  0.00    +0.000 OA
ATOM     42  O   UNL     1     109.136 125.944 141.771  0.00  0.00    +0.000 OA
ATOM     43  O   UNL     1     109.139 125.166 140.556  0.00  0.00    +0.000 OA
ATOM     44  C   UNL     1     109.849 128.013 141.298  0.00  0.00    +0.000 A 
ATOM     45  C   UNL     1     109.989 127.932 140.454  0.00  0.00    +0.000 A 
ATOM     46  C   UNL     1     109.561 127.341 141.748  0.00  0.00    +0.000 A 
ATOM     47  C   UNL     1     109.836 127.177 140.071  0.00  0.00    +0.000 A 
ATOM     48  C   UNL     1     109.414 126.594 141.347  0.00  0.00    +0.000 A 
ATOM     49  C   UNL     1     109.559 126.531 140.502  0.00  0.00    +0.000 A 
ATOM     50  C   UNL     1     109.416 125.812 140.124  0.00  0.00    +0.000 A 
ATOM     51  C   UNL     1     109.829 126.386 138.882  0.00  0.00    +0.000 A 
ATOM     52  C   UNL     1     109.551 125.739 139.313  0.00  0.00    +0.000 A 
BRANCH  51  54
ATOM     53  O   UNL     1     110.370 126.092 135.640  0.00  0.00    +0.000 OA
ATOM     54  C   UNL     1     109.964 126.312 138.071  0.00  0.00    +0.000 A 
ATOM     55  C   UNL     1     109.631 126.855 137.547  0.00  0.00    +0.000 A 
ATOM     56  C   UNL     1     110.432 125.696 137.785  0.00  0.00    +0.000 A 
ATOM     57  C   UNL     1     110.568 125.622 136.975  0.00  0.00    +0.000 A 
ATOM     58  C   UNL     1     109.766 126.782 136.736  0.00  0.00    +0.000 A 
ATOM     59  C   UNL     1     110.234 126.166 136.450  0.00  0.00    +0.000 A 
BRANCH  57  60
ATOM     60  O   UNL     1     111.036 125.007 136.689  0.00  0.00    +0.000 OA
ATOM     61  C   UNL     1     111.618 124.673 137.169  0.00  0.00    +0.000 C 
ENDBRANCH  57  60
BRANCH  58  62
ATOM     62  O   UNL     1     109.433 127.324 136.211  0.00  0.00    +0.000 OA
ATOM     63  C   UNL     1     109.495 128.133 136.361  0.00  0.00    +0.000 C 
ENDBRANCH  58  62
ENDBRANCH  51  54
ENDBRANCH  40  44
ENDBRANCH   7  40
TORSDOF 15
ENDMDL
MODEL 9
REMARK VINA RESULT:      -8.6      1.939      5.465
REMARK  Name = 131752755
REMARK  15 active torsions:
REMARK  status: ('A' for Active; 'I' for Inactive)
REMARK    1  A    between atoms: O_1  and  C_24
REMARK    2  A    between atoms: O_1  and  C_26
REMARK    3  A    between atoms: O_4  and  C_27
REMARK    4  A    between atoms: O_4  and  C_37
REMARK    5  A    between atoms: O_6  and  C_30
REMARK    6  A    between atoms: O_6  and  C_36
REMARK    7  A    between atoms: O_18  and  C_54
REMARK    8  A    between atoms: O_19  and  C_55
REMARK    9  A    between atoms: O_20  and  C_57
REMARK   10  A    between atoms: O_21  and  C_58
REMARK   11  A    between atoms: C_32  and  C_34
REMARK   12  A    between atoms: C_33  and  C_35
REMARK   13  A    between atoms: C_37  and  C_40
REMARK   14  A    between atoms: C_44  and  C_48
REMARK   15  A    between atoms: C_46  and  C_49
REMARK                            x       y       z     vdW  Elec       q    Type
REMARK                         _______ _______ _______ _____ _____    ______ ____
ROOT
ATOM      1  O   UNL     1     110.789 131.343 138.211  0.00  0.00    +0.000 OA
ATOM      2  O   UNL     1     108.515 130.510 137.701  0.00  0.00    +0.000 OA
ATOM      3  O   UNL     1     108.768 132.122 137.945  0.00  0.00    +0.000 OA
ATOM      4  C   UNL     1     109.904 130.259 137.919  0.00  0.00    +0.000 C 
ATOM      5  C   UNL     1     109.273 130.788 137.871  0.00  0.00    +0.000 C 
ATOM      6  C   UNL     1     109.399 131.593 137.993  0.00  0.00    +0.000 C 
ATOM      7  C   UNL     1     110.662 130.536 138.089  0.00  0.00    +0.000 C 
ATOM      8  C   UNL     1     110.157 131.871 138.163  0.00  0.00    +0.000 C 
ENDROOT
BRANCH   8  11
ATOM      9  O   UNL     1     110.518 133.157 137.655  0.00  0.00    +0.000 OA
ATOM     10  O   UNL     1     110.177 133.003 139.035  0.00  0.00    +0.000 OA
ATOM     11  C   UNL     1     110.284 132.677 138.285  0.00  0.00    +0.000 C 
ENDBRANCH   8  11
BRANCH   4  12
ATOM     12  O   UNL     1     109.778 129.453 137.798  0.00  0.00    +0.000 OA
BRANCH  12  16
ATOM     13  O   UNL     1     109.995 129.612 136.394  0.00  0.00    +0.000 OA
ATOM     14  O   UNL     1     109.116 127.333 135.999  0.00  0.00    +0.000 OA
ATOM     15  O   UNL     1     109.627 128.253 134.728  0.00  0.00    +0.000 OA
ATOM     16  C   UNL     1     109.740 129.153 137.030  0.00  0.00    +0.000 C 
ATOM     17  C   UNL     1     109.447 128.393 136.898  0.00  0.00    +0.000 C 
ATOM     18  C   UNL     1     109.409 128.092 136.130  0.00  0.00    +0.000 C 
ATOM     19  C   UNL     1     109.664 128.553 135.495  0.00  0.00    +0.000 C 
ATOM     20  C   UNL     1     109.957 129.312 135.627  0.00  0.00    +0.000 C 
BRANCH  20  23
ATOM     21  O   UNL     1     109.687 130.282 134.613  0.00  0.00    +0.000 OA
ATOM     22  O   UNL     1     110.995 129.722 134.734  0.00  0.00    +0.000 OA
ATOM     23  C   UNL     1     110.213 129.772 134.991  0.00  0.00    +0.000 C 
ENDBRANCH  20  23
BRANCH  17  24
ATOM     24  O   UNL     1     109.192 127.933 137.534  0.00  0.00    +0.000 OA
BRANCH  24  26
ATOM     25  O   UNL     1     109.500 126.555 137.317  0.00  0.00    +0.000 OA
ATOM     26  C   UNL     1     109.608 127.252 137.744  0.00  0.00    +0.000 C 
BRANCH  26  27
ATOM     27  C   UNL     1     110.132 127.270 138.381  0.00  0.00    +0.000 C 
ATOM     28  C   UNL     1     110.373 126.566 138.737  0.00  0.00    +0.000 C 
BRANCH  28  30
ATOM     29  O   UNL     1     112.472 126.641 141.283  0.00  0.00    +0.000 OA
ATOM     30  C   UNL     1     110.897 126.585 139.374  0.00  0.00    +0.000 A 
ATOM     31  C   UNL     1     110.613 126.694 140.140  0.00  0.00    +0.000 A 
ATOM     32  C   UNL     1     111.707 126.494 139.244  0.00  0.00    +0.000 A 
ATOM     33  C   UNL     1     112.232 126.513 139.880  0.00  0.00    +0.000 A 
ATOM     34  C   UNL     1     111.137 126.713 140.777  0.00  0.00    +0.000 A 
ATOM     35  C   UNL     1     111.947 126.622 140.647  0.00  0.00    +0.000 A 
BRANCH  33  36
ATOM     36  O   UNL     1     113.042 126.422 139.750  0.00  0.00    +0.000 OA
ATOM     37  C   UNL     1     113.337 126.414 138.979  0.00  0.00    +0.000 C 
ENDBRANCH  33  36
BRANCH  34  38
ATOM     38  O   UNL     1     110.853 126.823 141.543  0.00  0.00    +0.000 OA
ATOM     39  C   UNL     1     110.044 126.918 141.673  0.00  0.00    +0.000 C 
ENDBRANCH  34  38
ENDBRANCH  28  30
ENDBRANCH  26  27
ENDBRANCH  24  26
ENDBRANCH  17  24
ENDBRANCH  12  16
ENDBRANCH   4  12
BRANCH   7  40
ATOM     40  O   UNL     1     111.294 130.008 138.138  0.00  0.00    +0.000 OA
BRANCH  40  44
ATOM     41  O   UNL     1     111.872 130.323 140.974  0.00  0.00    +0.000 OA
ATOM     42  O   UNL     1     114.052 130.080 139.094  0.00  0.00    +0.000 OA
ATOM     43  O   UNL     1     114.301 130.237 140.506  0.00  0.00    +0.000 OA
ATOM     44  C   UNL     1     111.838 130.071 138.754  0.00  0.00    +0.000 A 
ATOM     45  C   UNL     1     111.565 130.167 139.564  0.00  0.00    +0.000 A 
ATOM     46  C   UNL     1     112.681 130.041 138.592  0.00  0.00    +0.000 A 
ATOM     47  C   UNL     1     112.140 130.231 140.200  0.00  0.00    +0.000 A 
ATOM     48  C   UNL     1     113.241 130.108 139.241  0.00  0.00    +0.000 A 
ATOM     49  C   UNL     1     112.950 130.203 140.043  0.00  0.00    +0.000 A 
ATOM     50  C   UNL     1     113.492 130.266 140.662  0.00  0.00    +0.000 A 
ATOM     51  C   UNL     1     112.414 130.386 141.593  0.00  0.00    +0.000 A 
ATOM     52  C   UNL     1     113.224 130.357 141.437  0.00  0.00    +0.000 A 
BRANCH  51  54
ATOM     53  O   UNL     1     111.345 130.751 144.693  0.00  0.00    +0.000 OA
ATOM     54  C   UNL     1     112.147 130.477 142.368  0.00  0.00    +0.000 A 
ATOM     55  C   UNL     1     112.111 131.229 142.706  0.00  0.00    +0.000 A 
ATOM     56  C   UNL     1     111.916 129.817 142.806  0.00  0.00    +0.000 A 
ATOM     57  C   UNL     1     111.648 129.908 143.580  0.00  0.00    +0.000 A 
ATOM     58  C   UNL     1     111.843 131.320 143.481  0.00  0.00    +0.000 A 
ATOM     59  C   UNL     1     111.612 130.660 143.919  0.00  0.00    +0.000 A 
BRANCH  57  60
ATOM     60  O   UNL     1     111.417 129.247 144.018  0.00  0.00    +0.000 OA
ATOM     61  C   UNL     1     111.963 128.653 144.187  0.00  0.00    +0.000 C 
ENDBRANCH  57  60
BRANCH  58  62
ATOM     62  O   UNL     1     111.807 132.072 143.820  0.00  0.00    +0.000 OA
ATOM     63  C   UNL     1     112.429 132.603 143.712  0.00  0.00    +0.000 C 
ENDBRANCH  58  62
ENDBRANCH  51  54
ENDBRANCH  40  44
ENDBRANCH   7  40
TORSDOF 15
ENDMDL
MODEL 10
REMARK VINA RESULT:      -8.5      1.491      4.776
REMARK  Name = 131752755
REMARK  15 active torsions:
REMARK  status: ('A' for Active; 'I' for Inactive)
REMARK    1  A    between atoms: O_1  and  C_24
REMARK    2  A    between atoms: O_1  and  C_26
REMARK    3  A    between atoms: O_4  and  C_27
REMARK    4  A    between atoms: O_4  and  C_37
REMARK    5  A    between atoms: O_6  and  C_30
REMARK    6  A    between atoms: O_6  and  C_36
REMARK    7  A    between atoms: O_18  and  C_54
REMARK    8  A    between atoms: O_19  and  C_55
REMARK    9  A    between atoms: O_20  and  C_57
REMARK   10  A    between atoms: O_21  and  C_58
REMARK   11  A    between atoms: C_32  and  C_34
REMARK   12  A    between atoms: C_33  and  C_35
REMARK   13  A    between atoms: C_37  and  C_40
REMARK   14  A    between atoms: C_44  and  C_48
REMARK   15  A    between atoms: C_46  and  C_49
REMARK                            x       y       z     vdW  Elec       q    Type
REMARK                         _______ _______ _______ _____ _____    ______ ____
ROOT
ATOM      1  O   UNL     1     109.726 129.299 141.043  0.00  0.00    +0.000 OA
ATOM      2  O   UNL     1     110.631 131.374 140.044  0.00  0.00    +0.000 OA
ATOM      3  O   UNL     1     109.054 131.308 140.521  0.00  0.00    +0.000 OA
ATOM      4  C   UNL     1     110.817 130.024 140.471  0.00  0.00    +0.000 C 
ATOM      5  C   UNL     1     110.329 130.682 140.377  0.00  0.00    +0.000 C 
ATOM      6  C   UNL     1     109.541 130.650 140.615  0.00  0.00    +0.000 C 
ATOM      7  C   UNL     1     110.516 129.332 140.804  0.00  0.00    +0.000 C 
ATOM      8  C   UNL     1     109.239 129.958 140.948  0.00  0.00    +0.000 C 
ENDROOT
BRANCH   8  11
ATOM      9  O   UNL     1     107.864 129.717 140.644  0.00  0.00    +0.000 OA
ATOM     10  O   UNL     1     108.247 130.097 141.968  0.00  0.00    +0.000 OA
ATOM     11  C   UNL     1     108.450 129.924 141.187  0.00  0.00    +0.000 C 
ENDBRANCH   8  11
BRANCH   4  12
ATOM     12  O   UNL     1     111.606 130.056 140.233  0.00  0.00    +0.000 OA
BRANCH  12  16
ATOM     13  O   UNL     1     111.953 130.784 141.412  0.00  0.00    +0.000 OA
ATOM     14  O   UNL     1     114.352 130.410 140.940  0.00  0.00    +0.000 OA
ATOM     15  O   UNL     1     113.898 131.263 142.277  0.00  0.00    +0.000 OA
ATOM     16  C   UNL     1     112.179 130.358 140.744  0.00  0.00    +0.000 C 
ATOM     17  C   UNL     1     112.980 130.233 140.586  0.00  0.00    +0.000 C 
ATOM     18  C   UNL     1     113.553 130.535 141.097  0.00  0.00    +0.000 C 
ATOM     19  C   UNL     1     113.325 130.961 141.766  0.00  0.00    +0.000 C 
ATOM     20  C   UNL     1     112.526 131.086 141.924  0.00  0.00    +0.000 C 
BRANCH  20  23
ATOM     21  O   UNL     1     112.134 131.118 143.297  0.00  0.00    +0.000 OA
ATOM     22  O   UNL     1     112.234 132.334 142.555  0.00  0.00    +0.000 OA
ATOM     23  C   UNL     1     112.298 131.513 142.592  0.00  0.00    +0.000 C 
ENDBRANCH  20  23
BRANCH  17  24
ATOM     24  O   UNL     1     113.206 129.807 139.917  0.00  0.00    +0.000 OA
BRANCH  24  26
ATOM     25  O   UNL     1     113.731 130.952 139.241  0.00  0.00    +0.000 OA
ATOM     26  C   UNL     1     113.384 130.204 139.216  0.00  0.00    +0.000 C 
BRANCH  26  27
ATOM     27  C   UNL     1     113.213 129.853 138.489  0.00  0.00    +0.000 C 
ATOM     28  C   UNL     1     113.321 130.277 137.790  0.00  0.00    +0.000 C 
BRANCH  28  30
ATOM     29  O   UNL     1     112.640 128.866 134.885  0.00  0.00    +0.000 OA
ATOM     30  C   UNL     1     113.150 129.924 137.064  0.00  0.00    +0.000 A 
ATOM     31  C   UNL     1     112.367 129.826 136.826  0.00  0.00    +0.000 A 
ATOM     32  C   UNL     1     113.764 129.670 136.575  0.00  0.00    +0.000 A 
ATOM     33  C   UNL     1     113.594 129.317 135.849  0.00  0.00    +0.000 A 
ATOM     34  C   UNL     1     112.196 129.473 136.100  0.00  0.00    +0.000 A 
ATOM     35  C   UNL     1     112.810 129.219 135.611  0.00  0.00    +0.000 A 
BRANCH  33  36
ATOM     36  O   UNL     1     114.208 129.062 135.360  0.00  0.00    +0.000 OA
ATOM     37  C   UNL     1     114.829 129.574 135.178  0.00  0.00    +0.000 C 
ENDBRANCH  33  36
BRANCH  34  38
ATOM     38  O   UNL     1     111.412 129.375 135.863  0.00  0.00    +0.000 OA
ATOM     39  C   UNL     1     110.833 129.902 136.122  0.00  0.00    +0.000 C 
ENDBRANCH  34  38
ENDBRANCH  28  30
ENDBRANCH  26  27
ENDBRANCH  24  26
ENDBRANCH  17  24
ENDBRANCH  12  16
ENDBRANCH   4  12
BRANCH   7  40
ATOM     40  O   UNL     1     111.003 128.673 140.899  0.00  0.00    +0.000 OA
BRANCH  40  44
ATOM     41  O   UNL     1     110.683 126.987 138.546  0.00  0.00    +0.000 OA
ATOM     42  O   UNL     1     110.031 125.931 141.154  0.00  0.00    +0.000 OA
ATOM     43  O   UNL     1     109.884 125.125 139.968  0.00  0.00    +0.000 OA
ATOM     44  C   UNL     1     110.792 127.951 140.559  0.00  0.00    +0.000 A 
ATOM     45  C   UNL     1     110.848 127.842 139.708  0.00  0.00    +0.000 A 
ATOM     46  C   UNL     1     110.515 127.305 141.052  0.00  0.00    +0.000 A 
ATOM     47  C   UNL     1     110.626 127.086 139.362  0.00  0.00    +0.000 A 
ATOM     48  C   UNL     1     110.297 126.557 140.688  0.00  0.00    +0.000 A 
ATOM     49  C   UNL     1     110.360 126.466 139.836  0.00  0.00    +0.000 A 
ATOM     50  C   UNL     1     110.150 125.745 139.493  0.00  0.00    +0.000 A 
ATOM     51  C   UNL     1     110.473 126.267 138.203  0.00  0.00    +0.000 A 
ATOM     52  C   UNL     1     110.206 125.645 138.676  0.00  0.00    +0.000 A 
BRANCH  51  54
ATOM     53  O   UNL     1     110.698 125.867 134.935  0.00  0.00    +0.000 OA
ATOM     54  C   UNL     1     110.529 126.167 137.386  0.00  0.00    +0.000 A 
ATOM     55  C   UNL     1     109.877 126.325 136.905  0.00  0.00    +0.000 A 
ATOM     56  C   UNL     1     111.236 125.909 137.049  0.00  0.00    +0.000 A 
ATOM     57  C   UNL     1     111.293 125.809 136.233  0.00  0.00    +0.000 A 
ATOM     58  C   UNL     1     109.933 126.225 136.088  0.00  0.00    +0.000 A 
ATOM     59  C   UNL     1     110.641 125.967 135.751  0.00  0.00    +0.000 A 
BRANCH  57  60
ATOM     60  O   UNL     1     112.001 125.550 135.896  0.00  0.00    +0.000 OA
ATOM     61  C   UNL     1     112.705 125.609 136.322  0.00  0.00    +0.000 C 
ENDBRANCH  57  60
BRANCH  58  62
ATOM     62  O   UNL     1     109.282 126.384 135.606  0.00  0.00    +0.000 OA
ATOM     63  C   UNL     1     108.762 126.993 135.804  0.00  0.00    +0.000 C 
ENDBRANCH  58  62
ENDBRANCH  51  54
ENDBRANCH  40  44
ENDBRANCH   7  40
TORSDOF 15
ENDMDL
