MODEL 1
REMARK VINA RESULT:      -9.5      0.000      0.000
REMARK  Name = 5491384
REMARK  4 active torsions:
REMARK  status: ('A' for Active; 'I' for Inactive)
REMARK    1  A    between atoms: O_2  and  C_15
REMARK    2  A    between atoms: O_2  and  C_17
REMARK    3  A    between atoms: C_14  and  C_16
REMARK    4  A    between atoms: C_20  and  C_23
REMARK                            x       y       z     vdW  Elec       q    Type
REMARK                         _______ _______ _______ _____ _____    ______ ____
ROOT
ATOM      1  C   UNL     1     109.784 127.419 135.431  0.00  0.00    +0.000 A 
ATOM      2  C   UNL     1     110.372 127.165 134.911  0.00  0.00    +0.000 A 
ATOM      3  C   UNL     1     109.749 127.111 136.196  0.00  0.00    +0.000 A 
ATOM      4  C   UNL     1     110.888 126.295 135.920  0.00  0.00    +0.000 A 
ATOM      5  C   UNL     1     110.924 126.602 135.155  0.00  0.00    +0.000 A 
ATOM      6  C   UNL     1     110.301 126.548 136.440  0.00  0.00    +0.000 A 
ENDROOT
BRANCH   4  11
ATOM      7  O   UNL     1     112.185 125.972 136.429  0.00  0.00    +0.000 OA
ATOM      8  O   UNL     1     112.910 123.212 136.883  0.00  0.00    +0.000 OA
ATOM      9  O   UNL     1     111.608 123.566 136.370  0.00  0.00    +0.000 OA
ATOM     10  O   UNL     1     114.830 125.334 137.465  0.00  0.00    +0.000 OA
ATOM     11  C   UNL     1     111.440 125.732 136.165  0.00  0.00    +0.000 A 
ATOM     12  C   UNL     1     112.544 124.608 136.653  0.00  0.00    +0.000 A 
ATOM     13  C   UNL     1     112.737 125.410 136.673  0.00  0.00    +0.000 A 
ATOM     14  C   UNL     1     111.249 124.930 136.145  0.00  0.00    +0.000 A 
ATOM     15  C   UNL     1     111.801 124.368 136.390  0.00  0.00    +0.000 A 
ATOM     16  C   UNL     1     113.111 124.012 136.906  0.00  0.00    +0.000 A 
ATOM     17  C   UNL     1     113.508 125.673 136.946  0.00  0.00    +0.000 A 
ATOM     18  C   UNL     1     114.087 125.091 137.202  0.00  0.00    +0.000 A 
ATOM     19  C   UNL     1     113.887 124.256 137.182  0.00  0.00    +0.000 A 
ENDBRANCH   4  11
BRANCH   1  20
ATOM     20  O   UNL     1     109.232 127.981 135.187  0.00  0.00    +0.000 OA
BRANCH  20  29
ATOM     21  O   UNL     1     110.004 129.155 135.447  0.00  0.00    +0.000 OA
ATOM     22  O   UNL     1     107.989 130.285 136.333  0.00  0.00    +0.000 OA
ATOM     23  O   UNL     1     109.432 131.081 136.298  0.00  0.00    +0.000 OA
ATOM     24  O   UNL     1     107.888 128.735 135.778  0.00  0.00    +0.000 OA
ATOM     25  C   UNL     1     108.660 129.908 136.038  0.00  0.00    +0.000 C 
ATOM     26  C   UNL     1     109.383 130.306 136.020  0.00  0.00    +0.000 C 
ATOM     27  C   UNL     1     108.610 129.133 135.760  0.00  0.00    +0.000 C 
ATOM     28  C   UNL     1     110.055 129.930 135.725  0.00  0.00    +0.000 C 
ATOM     29  C   UNL     1     109.282 128.756 135.465  0.00  0.00    +0.000 C 
BRANCH  28  31
ATOM     30  O   UNL     1     111.400 130.075 136.184  0.00  0.00    +0.000 OA
ATOM     31  C   UNL     1     110.776 130.328 135.707  0.00  0.00    +0.000 C 
ENDBRANCH  28  31
ENDBRANCH  20  29
ENDBRANCH   1  20
TORSDOF 4
ENDMDL
MODEL 2
REMARK VINA RESULT:      -9.2      1.638      2.934
REMARK  Name = 5491384
REMARK  4 active torsions:
REMARK  status: ('A' for Active; 'I' for Inactive)
REMARK    1  A    between atoms: O_2  and  C_15
REMARK    2  A    between atoms: O_2  and  C_17
REMARK    3  A    between atoms: C_14  and  C_16
REMARK    4  A    between atoms: C_20  and  C_23
REMARK                            x       y       z     vdW  Elec       q    Type
REMARK                         _______ _______ _______ _____ _____    ______ ____
ROOT
ATOM      1  C   UNL     1     113.097 129.275 136.775  0.00  0.00    +0.000 A 
ATOM      2  C   UNL     1     113.322 128.845 136.107  0.00  0.00    +0.000 A 
ATOM      3  C   UNL     1     112.936 128.883 137.482  0.00  0.00    +0.000 A 
ATOM      4  C   UNL     1     113.226 127.632 136.856  0.00  0.00    +0.000 A 
ATOM      5  C   UNL     1     113.387 128.023 136.148  0.00  0.00    +0.000 A 
ATOM      6  C   UNL     1     113.001 128.061 137.523  0.00  0.00    +0.000 A 
ENDROOT
BRANCH   4  11
ATOM      7  O   UNL     1     112.671 126.334 136.631  0.00  0.00    +0.000 OA
ATOM      8  O   UNL     1     114.187 123.976 137.333  0.00  0.00    +0.000 OA
ATOM      9  O   UNL     1     114.723 125.299 137.549  0.00  0.00    +0.000 OA
ATOM     10  O   UNL     1     111.525 123.698 136.166  0.00  0.00    +0.000 OA
ATOM     11  C   UNL     1     113.291 126.811 136.897  0.00  0.00    +0.000 A 
ATOM     12  C   UNL     1     113.420 125.168 136.978  0.00  0.00    +0.000 A 
ATOM     13  C   UNL     1     112.736 125.512 136.672  0.00  0.00    +0.000 A 
ATOM     14  C   UNL     1     113.974 126.465 137.203  0.00  0.00    +0.000 A 
ATOM     15  C   UNL     1     114.039 125.643 137.243  0.00  0.00    +0.000 A 
ATOM     16  C   UNL     1     113.499 124.313 137.026  0.00  0.00    +0.000 A 
ATOM     17  C   UNL     1     112.084 125.027 136.392  0.00  0.00    +0.000 A 
ATOM     18  C   UNL     1     112.145 124.172 136.432  0.00  0.00    +0.000 A 
ATOM     19  C   UNL     1     112.858 123.812 136.751  0.00  0.00    +0.000 A 
ENDBRANCH   4  11
BRANCH   1  20
ATOM     20  O   UNL     1     113.032 130.096 136.734  0.00  0.00    +0.000 OA
BRANCH  20  29
ATOM     21  O   UNL     1     111.679 130.163 136.279  0.00  0.00    +0.000 OA
ATOM     22  O   UNL     1     111.276 132.104 137.761  0.00  0.00    +0.000 OA
ATOM     23  O   UNL     1     110.058 131.523 136.812  0.00  0.00    +0.000 OA
ATOM     24  O   UNL     1     112.763 131.390 137.722  0.00  0.00    +0.000 OA
ATOM     25  C   UNL     1     111.410 131.457 137.267  0.00  0.00    +0.000 C 
ATOM     26  C   UNL     1     110.802 131.166 136.792  0.00  0.00    +0.000 C 
ATOM     27  C   UNL     1     112.155 131.100 137.247  0.00  0.00    +0.000 C 
ATOM     28  C   UNL     1     110.936 130.519 136.298  0.00  0.00    +0.000 C 
ATOM     29  C   UNL     1     112.289 130.453 136.753  0.00  0.00    +0.000 C 
BRANCH  28  31
ATOM     30  O   UNL     1     110.455 130.104 135.018  0.00  0.00    +0.000 OA
ATOM     31  C   UNL     1     110.327 130.229 135.824  0.00  0.00    +0.000 C 
ENDBRANCH  28  31
ENDBRANCH  20  29
ENDBRANCH   1  20
TORSDOF 4
ENDMDL
MODEL 3
REMARK VINA RESULT:      -9.2      4.325      5.274
REMARK  Name = 5491384
REMARK  4 active torsions:
REMARK  status: ('A' for Active; 'I' for Inactive)
REMARK    1  A    between atoms: O_2  and  C_15
REMARK    2  A    between atoms: O_2  and  C_17
REMARK    3  A    between atoms: C_14  and  C_16
REMARK    4  A    between atoms: C_20  and  C_23
REMARK                            x       y       z     vdW  Elec       q    Type
REMARK                         _______ _______ _______ _____ _____    ______ ____
ROOT
ATOM      1  C   UNL     1     113.726 128.284 140.451  0.00  0.00    +0.000 A 
ATOM      2  C   UNL     1     113.372 128.478 139.731  0.00  0.00    +0.000 A 
ATOM      3  C   UNL     1     113.858 127.493 140.645  0.00  0.00    +0.000 A 
ATOM      4  C   UNL     1     113.284 127.091 139.401  0.00  0.00    +0.000 A 
ATOM      5  C   UNL     1     113.151 127.881 139.206  0.00  0.00    +0.000 A 
ATOM      6  C   UNL     1     113.638 126.897 140.120  0.00  0.00    +0.000 A 
ENDROOT
BRANCH   4  11
ATOM      7  O   UNL     1     113.598 126.228 138.305  0.00  0.00    +0.000 OA
ATOM      8  O   UNL     1     111.625 124.353 137.335  0.00  0.00    +0.000 OA
ATOM      9  O   UNL     1     111.334 125.236 138.440  0.00  0.00    +0.000 OA
ATOM     10  O   UNL     1     114.254 124.478 136.072  0.00  0.00    +0.000 OA
ATOM     11  C   UNL     1     113.064 126.494 138.875  0.00  0.00    +0.000 A 
ATOM     12  C   UNL     1     112.623 125.301 137.825  0.00  0.00    +0.000 A 
ATOM     13  C   UNL     1     113.377 125.631 137.780  0.00  0.00    +0.000 A 
ATOM     14  C   UNL     1     112.310 126.163 138.920  0.00  0.00    +0.000 A 
ATOM     15  C   UNL     1     112.089 125.566 138.395  0.00  0.00    +0.000 A 
ATOM     16  C   UNL     1     112.381 124.678 137.283  0.00  0.00    +0.000 A 
ATOM     17  C   UNL     1     113.943 125.363 137.190  0.00  0.00    +0.000 A 
ATOM     18  C   UNL     1     113.718 124.742 136.641  0.00  0.00    +0.000 A 
ATOM     19  C   UNL     1     112.933 124.397 136.687  0.00  0.00    +0.000 A 
ENDBRANCH   4  11
BRANCH   1  20
ATOM     20  O   UNL     1     113.946 128.881 140.976  0.00  0.00    +0.000 OA
BRANCH  20  29
ATOM     21  O   UNL     1     112.755 128.872 141.765  0.00  0.00    +0.000 OA
ATOM     22  O   UNL     1     112.872 131.336 141.969  0.00  0.00    +0.000 OA
ATOM     23  O   UNL     1     111.642 130.505 142.690  0.00  0.00    +0.000 OA
ATOM     24  O   UNL     1     114.024 130.523 141.112  0.00  0.00    +0.000 OA
ATOM     25  C   UNL     1     112.833 130.514 141.901  0.00  0.00    +0.000 C 
ATOM     26  C   UNL     1     112.218 130.099 142.262  0.00  0.00    +0.000 C 
ATOM     27  C   UNL     1     113.409 130.108 141.473  0.00  0.00    +0.000 C 
ATOM     28  C   UNL     1     112.179 129.278 142.194  0.00  0.00    +0.000 C 
ATOM     29  C   UNL     1     113.371 129.286 141.405  0.00  0.00    +0.000 C 
BRANCH  28  31
ATOM     30  O   UNL     1     111.732 128.250 143.081  0.00  0.00    +0.000 OA
ATOM     31  C   UNL     1     111.565 128.863 142.554  0.00  0.00    +0.000 C 
ENDBRANCH  28  31
ENDBRANCH  20  29
ENDBRANCH   1  20
TORSDOF 4
ENDMDL
MODEL 4
REMARK VINA RESULT:      -9.2      0.739      5.626
REMARK  Name = 5491384
REMARK  4 active torsions:
REMARK  status: ('A' for Active; 'I' for Inactive)
REMARK    1  A    between atoms: O_2  and  C_15
REMARK    2  A    between atoms: O_2  and  C_17
REMARK    3  A    between atoms: C_14  and  C_16
REMARK    4  A    between atoms: C_20  and  C_23
REMARK                            x       y       z     vdW  Elec       q    Type
REMARK                         _______ _______ _______ _____ _____    ______ ____
ROOT
ATOM      1  C   UNL     1     110.943 125.516 135.854  0.00  0.00    +0.000 A 
ATOM      2  C   UNL     1     110.566 125.766 136.545  0.00  0.00    +0.000 A 
ATOM      3  C   UNL     1     110.947 126.003 135.188  0.00  0.00    +0.000 A 
ATOM      4  C   UNL     1     110.198 126.987 135.902  0.00  0.00    +0.000 A 
ATOM      5  C   UNL     1     110.194 126.501 136.569  0.00  0.00    +0.000 A 
ATOM      6  C   UNL     1     110.574 126.738 135.212  0.00  0.00    +0.000 A 
ENDROOT
BRANCH   4  11
ATOM      7  O   UNL     1     110.268 128.406 136.066  0.00  0.00    +0.000 OA
ATOM      8  O   UNL     1     107.864 129.999 135.880  0.00  0.00    +0.000 OA
ATOM      9  O   UNL     1     107.822 128.565 135.719  0.00  0.00    +0.000 OA
ATOM     10  O   UNL     1     110.429 131.294 136.403  0.00  0.00    +0.000 OA
ATOM     11  C   UNL     1     109.825 127.723 135.926  0.00  0.00    +0.000 A 
ATOM     12  C   UNL     1     109.080 129.194 135.974  0.00  0.00    +0.000 A 
ATOM     13  C   UNL     1     109.895 129.141 136.090  0.00  0.00    +0.000 A 
ATOM     14  C   UNL     1     109.010 127.777 135.811  0.00  0.00    +0.000 A 
ATOM     15  C   UNL     1     108.637 128.513 135.835  0.00  0.00    +0.000 A 
ATOM     16  C   UNL     1     108.680 129.955 135.997  0.00  0.00    +0.000 A 
ATOM     17  C   UNL     1     110.367 129.845 136.237  0.00  0.00    +0.000 A 
ATOM     18  C   UNL     1     109.984 130.613 136.263  0.00  0.00    +0.000 A 
ATOM     19  C   UNL     1     109.135 130.669 136.142  0.00  0.00    +0.000 A 
ENDBRANCH   4  11
BRANCH   1  20
ATOM     20  O   UNL     1     111.316 124.780 135.830  0.00  0.00    +0.000 OA
BRANCH  20  29
ATOM     21  O   UNL     1     112.620 125.270 136.148  0.00  0.00    +0.000 OA
ATOM     22  O   UNL     1     113.102 123.182 137.386  0.00  0.00    +0.000 OA
ATOM     23  O   UNL     1     114.245 124.367 137.291  0.00  0.00    +0.000 OA
ATOM     24  O   UNL     1     111.637 123.388 136.656  0.00  0.00    +0.000 OA
ATOM     25  C   UNL     1     112.941 123.878 136.974  0.00  0.00    +0.000 C 
ATOM     26  C   UNL     1     113.513 124.471 136.926  0.00  0.00    +0.000 C 
ATOM     27  C   UNL     1     112.208 123.981 136.608  0.00  0.00    +0.000 C 
ATOM     28  C   UNL     1     113.352 125.167 136.513  0.00  0.00    +0.000 C 
ATOM     29  C   UNL     1     112.048 124.677 136.195  0.00  0.00    +0.000 C 
BRANCH  28  31
ATOM     30  O   UNL     1     113.798 126.485 136.835  0.00  0.00    +0.000 OA
ATOM     31  C   UNL     1     113.924 125.759 136.465  0.00  0.00    +0.000 C 
ENDBRANCH  28  31
ENDBRANCH  20  29
ENDBRANCH   1  20
TORSDOF 4
ENDMDL
MODEL 5
REMARK VINA RESULT:      -9.1      4.103      5.079
REMARK  Name = 5491384
REMARK  4 active torsions:
REMARK  status: ('A' for Active; 'I' for Inactive)
REMARK    1  A    between atoms: O_2  and  C_15
REMARK    2  A    between atoms: O_2  and  C_17
REMARK    3  A    between atoms: C_14  and  C_16
REMARK    4  A    between atoms: C_20  and  C_23
REMARK                            x       y       z     vdW  Elec       q    Type
REMARK                         _______ _______ _______ _____ _____    ______ ____
ROOT
ATOM      1  C   UNL     1     113.006 127.869 140.778  0.00  0.00    +0.000 A 
ATOM      2  C   UNL     1     112.490 128.001 140.147  0.00  0.00    +0.000 A 
ATOM      3  C   UNL     1     113.523 127.226 140.760  0.00  0.00    +0.000 A 
ATOM      4  C   UNL     1     113.008 126.846 139.483  0.00  0.00    +0.000 A 
ATOM      5  C   UNL     1     112.491 127.489 139.500  0.00  0.00    +0.000 A 
ATOM      6  C   UNL     1     113.524 126.715 140.113  0.00  0.00    +0.000 A 
ENDROOT
BRANCH   4  11
ATOM      7  O   UNL     1     113.691 126.251 138.377  0.00  0.00    +0.000 OA
ATOM      8  O   UNL     1     112.316 124.352 136.688  0.00  0.00    +0.000 OA
ATOM      9  O   UNL     1     111.651 124.968 137.811  0.00  0.00    +0.000 OA
ATOM     10  O   UNL     1     115.096 125.047 136.129  0.00  0.00    +0.000 OA
ATOM     11  C   UNL     1     113.009 126.335 138.836  0.00  0.00    +0.000 A 
ATOM     12  C   UNL     1     113.011 125.312 137.541  0.00  0.00    +0.000 A 
ATOM     13  C   UNL     1     113.692 125.739 137.730  0.00  0.00    +0.000 A 
ATOM     14  C   UNL     1     112.330 125.907 138.647  0.00  0.00    +0.000 A 
ATOM     15  C   UNL     1     112.331 125.396 137.999  0.00  0.00    +0.000 A 
ATOM     16  C   UNL     1     113.000 124.776 136.869  0.00  0.00    +0.000 A 
ATOM     17  C   UNL     1     114.407 125.661 137.260  0.00  0.00    +0.000 A 
ATOM     18  C   UNL     1     114.414 125.129 136.585  0.00  0.00    +0.000 A 
ATOM     19  C   UNL     1     113.706 124.684 136.388  0.00  0.00    +0.000 A 
ENDBRANCH   4  11
BRANCH   1  20
ATOM     20  O   UNL     1     113.005 128.381 141.425  0.00  0.00    +0.000 OA
BRANCH  20  29
ATOM     21  O   UNL     1     113.989 129.281 140.910  0.00  0.00    +0.000 OA
ATOM     22  O   UNL     1     112.812 131.178 141.979  0.00  0.00    +0.000 OA
ATOM     23  O   UNL     1     114.187 131.445 141.108  0.00  0.00    +0.000 OA
ATOM     24  O   UNL     1     112.221 129.646 142.138  0.00  0.00    +0.000 OA
ATOM     25  C   UNL     1     113.204 130.546 141.623  0.00  0.00    +0.000 C 
ATOM     26  C   UNL     1     113.892 130.679 141.187  0.00  0.00    +0.000 C 
ATOM     27  C   UNL     1     112.909 129.779 141.702  0.00  0.00    +0.000 C 
ATOM     28  C   UNL     1     114.284 130.046 140.831  0.00  0.00    +0.000 C 
ATOM     29  C   UNL     1     113.301 129.146 141.346  0.00  0.00    +0.000 C 
BRANCH  28  31
ATOM     30  O   UNL     1     115.669 129.784 140.592  0.00  0.00    +0.000 OA
ATOM     31  C   UNL     1     114.972 130.180 140.396  0.00  0.00    +0.000 C 
ENDBRANCH  28  31
ENDBRANCH  20  29
ENDBRANCH   1  20
TORSDOF 4
ENDMDL
MODEL 6
REMARK VINA RESULT:      -9.0      1.204      1.931
REMARK  Name = 5491384
REMARK  4 active torsions:
REMARK  status: ('A' for Active; 'I' for Inactive)
REMARK    1  A    between atoms: O_2  and  C_15
REMARK    2  A    between atoms: O_2  and  C_17
REMARK    3  A    between atoms: C_14  and  C_16
REMARK    4  A    between atoms: C_20  and  C_23
REMARK                            x       y       z     vdW  Elec       q    Type
REMARK                         _______ _______ _______ _____ _____    ______ ____
ROOT
ATOM      1  C   UNL     1     109.158 129.266 135.373  0.00  0.00    +0.000 A 
ATOM      2  C   UNL     1     108.910 128.713 135.934  0.00  0.00    +0.000 A 
ATOM      3  C   UNL     1     109.839 129.125 134.928  0.00  0.00    +0.000 A 
ATOM      4  C   UNL     1     110.023 127.880 135.603  0.00  0.00    +0.000 A 
ATOM      5  C   UNL     1     109.343 128.020 136.049  0.00  0.00    +0.000 A 
ATOM      6  C   UNL     1     110.271 128.432 135.043  0.00  0.00    +0.000 A 
ENDROOT
BRANCH   4  11
ATOM      7  O   UNL     1     111.183 127.213 136.106  0.00  0.00    +0.000 OA
ATOM      8  O   UNL     1     111.458 124.355 135.786  0.00  0.00    +0.000 OA
ATOM      9  O   UNL     1     110.296 125.052 135.288  0.00  0.00    +0.000 OA
ATOM     10  O   UNL     1     113.554 125.873 137.137  0.00  0.00    +0.000 OA
ATOM     11  C   UNL     1     110.455 127.186 135.718  0.00  0.00    +0.000 A 
ATOM     12  C   UNL     1     111.320 125.800 135.948  0.00  0.00    +0.000 A 
ATOM     13  C   UNL     1     111.616 126.520 136.221  0.00  0.00    +0.000 A 
ATOM     14  C   UNL     1     110.160 126.466 135.446  0.00  0.00    +0.000 A 
ATOM     15  C   UNL     1     110.592 125.773 135.561  0.00  0.00    +0.000 A 
ATOM     16  C   UNL     1     111.761 125.071 136.062  0.00  0.00    +0.000 A 
ATOM     17  C   UNL     1     112.372 126.562 136.626  0.00  0.00    +0.000 A 
ATOM     18  C   UNL     1     112.827 125.843 136.749  0.00  0.00    +0.000 A 
ATOM     19  C   UNL     1     112.519 125.093 136.465  0.00  0.00    +0.000 A 
ENDBRANCH   4  11
BRANCH   1  20
ATOM     20  O   UNL     1     108.726 129.959 135.258  0.00  0.00    +0.000 OA
BRANCH  20  29
ATOM     21  O   UNL     1     109.468 130.799 136.146  0.00  0.00    +0.000 OA
ATOM     22  O   UNL     1     107.365 131.868 136.893  0.00  0.00    +0.000 OA
ATOM     23  O   UNL     1     108.807 132.350 137.530  0.00  0.00    +0.000 OA
ATOM     24  O   UNL     1     107.324 130.672 135.756  0.00  0.00    +0.000 OA
ATOM     25  C   UNL     1     108.066 131.511 136.644  0.00  0.00    +0.000 C 
ATOM     26  C   UNL     1     108.787 131.752 136.962  0.00  0.00    +0.000 C 
ATOM     27  C   UNL     1     108.046 130.913 136.075  0.00  0.00    +0.000 C 
ATOM     28  C   UNL     1     109.488 131.396 136.713  0.00  0.00    +0.000 C 
ATOM     29  C   UNL     1     108.747 130.557 135.826  0.00  0.00    +0.000 C 
BRANCH  28  31
ATOM     30  O   UNL     1     110.835 131.840 136.534  0.00  0.00    +0.000 OA
ATOM     31  C   UNL     1     110.209 131.637 137.032  0.00  0.00    +0.000 C 
ENDBRANCH  28  31
ENDBRANCH  20  29
ENDBRANCH   1  20
TORSDOF 4
ENDMDL
MODEL 7
REMARK VINA RESULT:      -8.9      7.730     10.778
REMARK  Name = 5491384
REMARK  4 active torsions:
REMARK  status: ('A' for Active; 'I' for Inactive)
REMARK    1  A    between atoms: O_2  and  C_15
REMARK    2  A    between atoms: O_2  and  C_17
REMARK    3  A    between atoms: C_14  and  C_16
REMARK    4  A    between atoms: C_20  and  C_23
REMARK                            x       y       z     vdW  Elec       q    Type
REMARK                         _______ _______ _______ _____ _____    ______ ____
ROOT
ATOM      1  C   UNL     1     104.430 128.321 142.148  0.00  0.00    +0.000 A 
ATOM      2  C   UNL     1     104.332 128.832 142.789  0.00  0.00    +0.000 A 
ATOM      3  C   UNL     1     104.140 128.532 141.406  0.00  0.00    +0.000 A 
ATOM      4  C   UNL     1     103.654 129.762 141.943  0.00  0.00    +0.000 A 
ATOM      5  C   UNL     1     103.944 129.553 142.687  0.00  0.00    +0.000 A 
ATOM      6  C   UNL     1     103.751 129.252 141.303  0.00  0.00    +0.000 A 
ENDROOT
BRANCH   4  11
ATOM      7  O   UNL     1     103.693 131.155 141.621  0.00  0.00    +0.000 OA
ATOM      8  O   UNL     1     101.259 132.711 141.650  0.00  0.00    +0.000 OA
ATOM      9  O   UNL     1     101.247 131.303 141.970  0.00  0.00    +0.000 OA
ATOM     10  O   UNL     1     103.792 133.990 140.964  0.00  0.00    +0.000 OA
ATOM     11  C   UNL     1     103.266 130.483 141.840  0.00  0.00    +0.000 A 
ATOM     12  C   UNL     1     102.490 131.925 141.635  0.00  0.00    +0.000 A 
ATOM     13  C   UNL     1     103.305 131.876 141.519  0.00  0.00    +0.000 A 
ATOM     14  C   UNL     1     102.451 130.534 141.957  0.00  0.00    +0.000 A 
ATOM     15  C   UNL     1     102.063 131.254 141.854  0.00  0.00    +0.000 A 
ATOM     16  C   UNL     1     102.074 132.670 141.531  0.00  0.00    +0.000 A 
ATOM     17  C   UNL     1     103.761 132.567 141.291  0.00  0.00    +0.000 A 
ATOM     18  C   UNL     1     103.363 133.320 141.182  0.00  0.00    +0.000 A 
ATOM     19  C   UNL     1     102.513 133.373 141.303  0.00  0.00    +0.000 A 
ENDBRANCH   4  11
BRANCH   1  20
ATOM     20  O   UNL     1     104.818 127.600 142.251  0.00  0.00    +0.000 OA
BRANCH  20  29
ATOM     21  O   UNL     1     106.133 128.114 142.027  0.00  0.00    +0.000 OA
ATOM     22  O   UNL     1     107.044 126.491 143.659  0.00  0.00    +0.000 OA
ATOM     23  O   UNL     1     108.054 127.546 142.891  0.00  0.00    +0.000 OA
ATOM     24  O   UNL     1     105.426 126.518 143.338  0.00  0.00    +0.000 OA
ATOM     25  C   UNL     1     106.741 127.032 143.115  0.00  0.00    +0.000 C 
ATOM     26  C   UNL     1     107.245 127.560 142.731  0.00  0.00    +0.000 C 
ATOM     27  C   UNL     1     105.931 127.046 142.954  0.00  0.00    +0.000 C 
ATOM     28  C   UNL     1     106.941 128.101 142.187  0.00  0.00    +0.000 C 
ATOM     29  C   UNL     1     105.627 127.587 142.411  0.00  0.00    +0.000 C 
BRANCH  28  31
ATOM     30  O   UNL     1     107.388 128.737 140.988  0.00  0.00    +0.000 OA
ATOM     31  C   UNL     1     107.447 128.627 141.804  0.00  0.00    +0.000 C 
ENDBRANCH  28  31
ENDBRANCH  20  29
ENDBRANCH   1  20
TORSDOF 4
ENDMDL
MODEL 8
REMARK VINA RESULT:      -8.8      1.223      5.991
REMARK  Name = 5491384
REMARK  4 active torsions:
REMARK  status: ('A' for Active; 'I' for Inactive)
REMARK    1  A    between atoms: O_2  and  C_15
REMARK    2  A    between atoms: O_2  and  C_17
REMARK    3  A    between atoms: C_14  and  C_16
REMARK    4  A    between atoms: C_20  and  C_23
REMARK                            x       y       z     vdW  Elec       q    Type
REMARK                         _______ _______ _______ _____ _____    ______ ____
ROOT
ATOM      1  C   UNL     1     112.103 127.700 136.078  0.00  0.00    +0.000 A 
ATOM      2  C   UNL     1     111.785 128.001 136.778  0.00  0.00    +0.000 A 
ATOM      3  C   UNL     1     111.779 127.918 135.352  0.00  0.00    +0.000 A 
ATOM      4  C   UNL     1     110.819 128.735 136.023  0.00  0.00    +0.000 A 
ATOM      5  C   UNL     1     111.143 128.518 136.751  0.00  0.00    +0.000 A 
ATOM      6  C   UNL     1     111.137 128.435 135.324  0.00  0.00    +0.000 A 
ENDROOT
BRANCH   4  11
ATOM      7  O   UNL     1     110.304 130.068 136.006  0.00  0.00    +0.000 OA
ATOM      8  O   UNL     1     107.451 130.510 135.873  0.00  0.00    +0.000 OA
ATOM      9  O   UNL     1     107.999 129.174 135.892  0.00  0.00    +0.000 OA
ATOM     10  O   UNL     1     109.272 132.791 135.971  0.00  0.00    +0.000 OA
ATOM     11  C   UNL     1     110.177 129.252 135.996  0.00  0.00    +0.000 A 
ATOM     12  C   UNL     1     108.894 130.287 135.940  0.00  0.00    +0.000 A 
ATOM     13  C   UNL     1     109.662 130.586 135.978  0.00  0.00    +0.000 A 
ATOM     14  C   UNL     1     109.409 128.955 135.958  0.00  0.00    +0.000 A 
ATOM     15  C   UNL     1     108.767 129.473 135.930  0.00  0.00    +0.000 A 
ATOM     16  C   UNL     1     108.216 130.816 135.911  0.00  0.00    +0.000 A 
ATOM     17  C   UNL     1     109.807 131.433 135.990  0.00  0.00    +0.000 A 
ATOM     18  C   UNL     1     109.142 131.976 135.961  0.00  0.00    +0.000 A 
ATOM     19  C   UNL     1     108.342 131.666 135.922  0.00  0.00    +0.000 A 
ENDBRANCH   4  11
BRANCH   1  20
ATOM     20  O   UNL     1     112.745 127.183 136.106  0.00  0.00    +0.000 OA
BRANCH  20  29
ATOM     21  O   UNL     1     111.968 125.984 136.147  0.00  0.00    +0.000 OA
ATOM     22  O   UNL     1     113.667 124.932 137.607  0.00  0.00    +0.000 OA
ATOM     23  O   UNL     1     112.324 124.085 137.162  0.00  0.00    +0.000 OA
ATOM     24  O   UNL     1     113.878 126.481 137.079  0.00  0.00    +0.000 OA
ATOM     25  C   UNL     1     113.101 125.283 137.120  0.00  0.00    +0.000 C 
ATOM     26  C   UNL     1     112.429 124.860 136.898  0.00  0.00    +0.000 C 
ATOM     27  C   UNL     1     113.206 126.058 136.856  0.00  0.00    +0.000 C 
ATOM     28  C   UNL     1     111.862 125.211 136.411  0.00  0.00    +0.000 C 
ATOM     29  C   UNL     1     112.640 126.409 136.370  0.00  0.00    +0.000 C 
BRANCH  28  31
ATOM     30  O   UNL     1     110.885 124.867 135.427  0.00  0.00    +0.000 OA
ATOM     31  C   UNL     1     111.191 124.787 136.189  0.00  0.00    +0.000 C 
ENDBRANCH  28  31
ENDBRANCH  20  29
ENDBRANCH   1  20
TORSDOF 4
ENDMDL
