MODEL 1
REMARK VINA RESULT:     -11.5      0.000      0.000
REMARK  Name = 74978111
REMARK  11 active torsions:
REMARK  status: ('A' for Active; 'I' for Inactive)
REMARK    1  A    between atoms: O_1  and  C_27
REMARK    2  A    between atoms: O_1  and  C_28
REMARK    3  A    between atoms: O_3  and  C_25
REMARK    4  A    between atoms: O_3  and  C_35
REMARK    5  A    between atoms: O_9  and  C_34
REMARK    6  A    between atoms: O_9  and  C_48
REMARK    7  A    between atoms: O_10  and  C_40
REMARK    8  A    between atoms: O_10  and  C_42
REMARK    9  A    between atoms: C_33  and  C_40
REMARK   10  A    between atoms: C_39  and  C_47
REMARK   11  A    between atoms: C_50  and  C_53
REMARK                            x       y       z     vdW  Elec       q    Type
REMARK                         _______ _______ _______ _____ _____    ______ ____
ROOT
ATOM      1  O   UNL     1     112.082 127.727 138.727  0.00  0.00    +0.000 OA
ATOM      2  O   UNL     1     111.744 127.752 141.179  0.00  0.00    +0.000 OA
ATOM      3  O   UNL     1     112.276 126.379 140.433  0.00  0.00    +0.000 OA
ATOM      4  C   UNL     1     111.703 128.422 139.917  0.00  0.00    +0.000 C 
ATOM      5  C   UNL     1     111.857 127.744 140.362  0.00  0.00    +0.000 C 
ATOM      6  C   UNL     1     112.122 127.058 139.988  0.00  0.00    +0.000 C 
ATOM      7  C   UNL     1     112.235 127.050 139.171  0.00  0.00    +0.000 C 
ATOM      8  C   UNL     1     111.816 128.414 139.100  0.00  0.00    +0.000 C 
ENDROOT
BRANCH   4   9
ATOM      9  O   UNL     1     111.437 129.108 140.291  0.00  0.00    +0.000 OA
BRANCH   9  15
ATOM     10  O   UNL     1     112.780 129.447 140.639  0.00  0.00    +0.000 OA
ATOM     11  O   UNL     1     110.882 130.367 141.202  0.00  0.00    +0.000 OA
ATOM     12  O   UNL     1     113.569 131.046 141.900  0.00  0.00    +0.000 OA
ATOM     13  C   UNL     1     112.225 130.706 141.551  0.00  0.00    +0.000 C 
ATOM     14  C   UNL     1     111.692 130.222 141.148  0.00  0.00    +0.000 C 
ATOM     15  C   UNL     1     111.970 129.592 140.693  0.00  0.00    +0.000 C 
ATOM     16  C   UNL     1     113.036 130.561 141.497  0.00  0.00    +0.000 C 
ATOM     17  C   UNL     1     113.313 129.932 141.042  0.00  0.00    +0.000 C 
ATOM     18  C   UNL     1     114.124 129.787 140.988  0.00  0.00    +0.000 C 
BRANCH  13  19
ATOM     19  O   UNL     1     111.948 131.335 142.006  0.00  0.00    +0.000 OA
BRANCH  19  24
ATOM     20  O   UNL     1     111.812 130.477 143.140  0.00  0.00    +0.000 OA
ATOM     21  O   UNL     1     111.703 132.650 142.973  0.00  0.00    +0.000 OA
ATOM     22  O   UNL     1     111.444 132.448 144.590  0.00  0.00    +0.000 OA
ATOM     23  O   UNL     1     111.431 130.932 145.241  0.00  0.00    +0.000 OA
ATOM     24  C   UNL     1     111.819 131.235 142.815  0.00  0.00    +0.000 C 
ATOM     25  C   UNL     1     111.696 131.892 143.298  0.00  0.00    +0.000 C 
ATOM     26  C   UNL     1     111.567 131.791 144.106  0.00  0.00    +0.000 C 
ATOM     27  C   UNL     1     111.560 131.033 144.432  0.00  0.00    +0.000 C 
ATOM     28  C   UNL     1     111.683 130.376 143.948  0.00  0.00    +0.000 C 
BRANCH  28  30
ATOM     29  O   UNL     1     111.046 129.108 144.120  0.00  0.00    +0.000 OA
ATOM     30  C   UNL     1     111.676 129.617 144.274  0.00  0.00    +0.000 C 
ENDBRANCH  28  30
ENDBRANCH  19  24
ENDBRANCH  13  19
ENDBRANCH   9  15
ENDBRANCH   4   9
BRANCH   8  31
ATOM     31  O   UNL     1     111.662 129.092 138.656  0.00  0.00    +0.000 OA
BRANCH  31  36
ATOM     32  O   UNL     1     111.264 129.275 136.517  0.00  0.00    +0.000 OA
ATOM     33  O   UNL     1     110.192 128.352 138.548  0.00  0.00    +0.000 OA
ATOM     34  O   UNL     1     109.055 127.904 137.780  0.00  0.00    +0.000 OA
ATOM     35  O   UNL     1     109.004 128.401 134.902  0.00  0.00    +0.000 OA
ATOM     36  C   UNL     1     111.285 129.029 137.925  0.00  0.00    +0.000 A 
ATOM     37  C   UNL     1     111.642 129.337 137.248  0.00  0.00    +0.000 A 
ATOM     38  C   UNL     1     110.549 128.659 137.871  0.00  0.00    +0.000 A 
ATOM     39  C   UNL     1     110.171 128.597 137.140  0.00  0.00    +0.000 A 
ATOM     40  C   UNL     1     110.529 128.904 136.464  0.00  0.00    +0.000 A 
ATOM     41  C   UNL     1     109.406 128.209 137.097  0.00  0.00    +0.000 A 
ATOM     42  C   UNL     1     110.145 128.845 135.697  0.00  0.00    +0.000 A 
ATOM     43  C   UNL     1     109.007 128.141 136.340  0.00  0.00    +0.000 A 
ATOM     44  C   UNL     1     109.380 128.462 135.634  0.00  0.00    +0.000 A 
BRANCH  37  46
ATOM     45  O   UNL     1     114.583 130.819 137.467  0.00  0.00    +0.000 OA
ATOM     46  C   UNL     1     112.378 129.707 137.302  0.00  0.00    +0.000 A 
ATOM     47  C   UNL     1     112.425 130.499 137.532  0.00  0.00    +0.000 A 
ATOM     48  C   UNL     1     113.065 129.286 137.128  0.00  0.00    +0.000 A 
ATOM     49  C   UNL     1     113.160 130.868 137.587  0.00  0.00    +0.000 A 
ATOM     50  C   UNL     1     113.800 129.657 137.182  0.00  0.00    +0.000 A 
ATOM     51  C   UNL     1     113.848 130.448 137.412  0.00  0.00    +0.000 A 
ENDBRANCH  37  46
ENDBRANCH  31  36
ENDBRANCH   8  31
BRANCH   7  52
ATOM     52  C   UNL     1     112.501 126.363 138.799  0.00  0.00    +0.000 C 
BRANCH  52  53
ATOM     53  O   UNL     1     112.037 126.000 138.222  0.00  0.00    +0.000 OA
BRANCH  53  58
ATOM     54  O   UNL     1     113.188 125.338 137.692  0.00  0.00    +0.000 OA
ATOM     55  O   UNL     1     111.063 125.071 137.267  0.00  0.00    +0.000 OA
ATOM     56  O   UNL     1     111.727 123.945 136.260  0.00  0.00    +0.000 OA
ATOM     57  O   UNL     1     113.364 123.747 136.208  0.00  0.00    +0.000 OA
ATOM     58  C   UNL     1     112.370 125.437 137.718  0.00  0.00    +0.000 C 
ATOM     59  C   UNL     1     111.883 124.973 137.241  0.00  0.00    +0.000 C 
ATOM     60  C   UNL     1     112.214 124.409 136.738  0.00  0.00    +0.000 C 
ATOM     61  C   UNL     1     113.032 124.311 136.712  0.00  0.00    +0.000 C 
ATOM     62  C   UNL     1     113.519 124.776 137.189  0.00  0.00    +0.000 C 
ATOM     63  C   UNL     1     114.338 124.676 137.162  0.00  0.00    +0.000 C 
ENDBRANCH  53  58
ENDBRANCH  52  53
ENDBRANCH   7  52
TORSDOF 11
ENDMDL
MODEL 2
REMARK VINA RESULT:     -11.4      6.842      9.199
REMARK  Name = 74978111
REMARK  11 active torsions:
REMARK  status: ('A' for Active; 'I' for Inactive)
REMARK    1  A    between atoms: O_1  and  C_27
REMARK    2  A    between atoms: O_1  and  C_28
REMARK    3  A    between atoms: O_3  and  C_25
REMARK    4  A    between atoms: O_3  and  C_35
REMARK    5  A    between atoms: O_9  and  C_34
REMARK    6  A    between atoms: O_9  and  C_48
REMARK    7  A    between atoms: O_10  and  C_40
REMARK    8  A    between atoms: O_10  and  C_42
REMARK    9  A    between atoms: C_33  and  C_40
REMARK   10  A    between atoms: C_39  and  C_47
REMARK   11  A    between atoms: C_50  and  C_53
REMARK                            x       y       z     vdW  Elec       q    Type
REMARK                         _______ _______ _______ _____ _____    ______ ____
ROOT
ATOM      1  O   UNL     1     106.565 128.184 143.290  0.00  0.00    +0.000 OA
ATOM      2  O   UNL     1     107.039 125.756 143.241  0.00  0.00    +0.000 OA
ATOM      3  O   UNL     1     108.097 126.817 142.550  0.00  0.00    +0.000 OA
ATOM      4  C   UNL     1     106.194 126.844 143.620  0.00  0.00    +0.000 C 
ATOM      5  C   UNL     1     106.881 126.565 143.257  0.00  0.00    +0.000 C 
ATOM      6  C   UNL     1     107.409 127.096 142.912  0.00  0.00    +0.000 C 
ATOM      7  C   UNL     1     107.251 127.906 142.929  0.00  0.00    +0.000 C 
ATOM      8  C   UNL     1     106.036 127.654 143.636  0.00  0.00    +0.000 C 
ENDROOT
BRANCH   4   9
ATOM      9  O   UNL     1     105.665 126.313 143.965  0.00  0.00    +0.000 OA
BRANCH   9  15
ATOM     10  O   UNL     1     106.407 126.288 145.186  0.00  0.00    +0.000 OA
ATOM     11  O   UNL     1     104.952 124.882 144.370  0.00  0.00    +0.000 OA
ATOM     12  O   UNL     1     106.436 124.832 146.812  0.00  0.00    +0.000 OA
ATOM     13  C   UNL     1     105.693 124.857 145.590  0.00  0.00    +0.000 C 
ATOM     14  C   UNL     1     105.501 125.227 144.879  0.00  0.00    +0.000 C 
ATOM     15  C   UNL     1     105.858 125.943 144.677  0.00  0.00    +0.000 C 
ATOM     16  C   UNL     1     106.243 125.202 146.100  0.00  0.00    +0.000 C 
ATOM     17  C   UNL     1     106.599 125.918 145.897  0.00  0.00    +0.000 C 
ATOM     18  C   UNL     1     107.149 126.264 146.407  0.00  0.00    +0.000 C 
BRANCH  13  19
ATOM     19  O   UNL     1     105.337 124.141 145.793  0.00  0.00    +0.000 OA
BRANCH  19  24
ATOM     20  O   UNL     1     104.313 124.791 146.547  0.00  0.00    +0.000 OA
ATOM     21  O   UNL     1     104.368 122.817 145.620  0.00  0.00    +0.000 OA
ATOM     22  O   UNL     1     102.859 122.805 146.287  0.00  0.00    +0.000 OA
ATOM     23  O   UNL     1     102.319 124.118 147.128  0.00  0.00    +0.000 OA
ATOM     24  C   UNL     1     104.582 124.135 146.127  0.00  0.00    +0.000 C 
ATOM     25  C   UNL     1     104.098 123.473 146.040  0.00  0.00    +0.000 C 
ATOM     26  C   UNL     1     103.344 123.467 146.373  0.00  0.00    +0.000 C 
ATOM     27  C   UNL     1     103.073 124.124 146.794  0.00  0.00    +0.000 C 
ATOM     28  C   UNL     1     103.558 124.786 146.881  0.00  0.00    +0.000 C 
BRANCH  28  30
ATOM     29  O   UNL     1     103.635 125.641 148.022  0.00  0.00    +0.000 OA
ATOM     30  C   UNL     1     103.288 125.443 147.301  0.00  0.00    +0.000 C 
ENDBRANCH  28  30
ENDBRANCH  19  24
ENDBRANCH  13  19
ENDBRANCH   9  15
ENDBRANCH   4   9
BRANCH   8  31
ATOM     31  O   UNL     1     105.349 127.932 143.998  0.00  0.00    +0.000 OA
BRANCH  31  36
ATOM     32  O   UNL     1     104.296 129.818 143.680  0.00  0.00    +0.000 OA
ATOM     33  O   UNL     1     104.782 127.717 142.464  0.00  0.00    +0.000 OA
ATOM     34  O   UNL     1     104.051 128.183 141.310  0.00  0.00    +0.000 OA
ATOM     35  O   UNL     1     102.806 130.824 141.389  0.00  0.00    +0.000 OA
ATOM     36  C   UNL     1     104.904 128.525 143.636  0.00  0.00    +0.000 A 
ATOM     37  C   UNL     1     104.741 129.226 144.042  0.00  0.00    +0.000 A 
ATOM     38  C   UNL     1     104.620 128.418 142.869  0.00  0.00    +0.000 A 
ATOM     39  C   UNL     1     104.174 129.011 142.508  0.00  0.00    +0.000 A 
ATOM     40  C   UNL     1     104.012 129.710 142.913  0.00  0.00    +0.000 A 
ATOM     41  C   UNL     1     103.884 128.886 141.708  0.00  0.00    +0.000 A 
ATOM     42  C   UNL     1     103.549 130.334 142.547  0.00  0.00    +0.000 A 
ATOM     43  C   UNL     1     103.420 129.499 141.325  0.00  0.00    +0.000 A 
ATOM     44  C   UNL     1     103.251 130.229 141.748  0.00  0.00    +0.000 A 
BRANCH  37  46
ATOM     45  O   UNL     1     105.875 129.652 147.112  0.00  0.00    +0.000 OA
ATOM     46  C   UNL     1     105.025 129.333 144.809  0.00  0.00    +0.000 A 
ATOM     47  C   UNL     1     104.615 129.010 145.449  0.00  0.00    +0.000 A 
ATOM     48  C   UNL     1     105.718 129.762 144.937  0.00  0.00    +0.000 A 
ATOM     49  C   UNL     1     104.899 129.117 146.216  0.00  0.00    +0.000 A 
ATOM     50  C   UNL     1     106.001 129.868 145.705  0.00  0.00    +0.000 A 
ATOM     51  C   UNL     1     105.592 129.546 146.344  0.00  0.00    +0.000 A 
ENDBRANCH  37  46
ENDBRANCH  31  36
ENDBRANCH   8  31
BRANCH   7  52
ATOM     52  C   UNL     1     107.780 128.436 142.583  0.00  0.00    +0.000 C 
BRANCH  52  53
ATOM     53  O   UNL     1     107.503 129.030 142.084  0.00  0.00    +0.000 OA
BRANCH  53  58
ATOM     54  O   UNL     1     108.738 129.742 142.183  0.00  0.00    +0.000 OA
ATOM     55  O   UNL     1     107.098 129.919 140.754  0.00  0.00    +0.000 OA
ATOM     56  O   UNL     1     108.131 131.075 140.188  0.00  0.00    +0.000 OA
ATOM     57  O   UNL     1     109.569 131.342 140.952  0.00  0.00    +0.000 OA
ATOM     58  C   UNL     1     108.020 129.608 141.801  0.00  0.00    +0.000 C 
ATOM     59  C   UNL     1     107.817 130.053 141.136  0.00  0.00    +0.000 C 
ATOM     60  C   UNL     1     108.333 130.631 140.853  0.00  0.00    +0.000 C 
ATOM     61  C   UNL     1     109.052 130.763 141.236  0.00  0.00    +0.000 C 
ATOM     62  C   UNL     1     109.254 130.319 141.900  0.00  0.00    +0.000 C 
ATOM     63  C   UNL     1     109.974 130.453 142.282  0.00  0.00    +0.000 C 
ENDBRANCH  53  58
ENDBRANCH  52  53
ENDBRANCH   7  52
TORSDOF 11
ENDMDL
MODEL 3
REMARK VINA RESULT:     -11.3      0.915      1.032
REMARK  Name = 74978111
REMARK  11 active torsions:
REMARK  status: ('A' for Active; 'I' for Inactive)
REMARK    1  A    between atoms: O_1  and  C_27
REMARK    2  A    between atoms: O_1  and  C_28
REMARK    3  A    between atoms: O_3  and  C_25
REMARK    4  A    between atoms: O_3  and  C_35
REMARK    5  A    between atoms: O_9  and  C_34
REMARK    6  A    between atoms: O_9  and  C_48
REMARK    7  A    between atoms: O_10  and  C_40
REMARK    8  A    between atoms: O_10  and  C_42
REMARK    9  A    between atoms: C_33  and  C_40
REMARK   10  A    between atoms: C_39  and  C_47
REMARK   11  A    between atoms: C_50  and  C_53
REMARK                            x       y       z     vdW  Elec       q    Type
REMARK                         _______ _______ _______ _____ _____    ______ ____
ROOT
ATOM      1  O   UNL     1     111.528 128.215 138.289  0.00  0.00    +0.000 OA
ATOM      2  O   UNL     1     111.092 128.070 140.721  0.00  0.00    +0.000 OA
ATOM      3  O   UNL     1     111.261 126.691 139.829  0.00  0.00    +0.000 OA
ATOM      4  C   UNL     1     111.298 128.856 139.544  0.00  0.00    +0.000 C 
ATOM      5  C   UNL     1     111.237 128.118 139.910  0.00  0.00    +0.000 C 
ATOM      6  C   UNL     1     111.322 127.429 139.464  0.00  0.00    +0.000 C 
ATOM      7  C   UNL     1     111.467 127.478 138.653  0.00  0.00    +0.000 C 
ATOM      8  C   UNL     1     111.443 128.904 138.734  0.00  0.00    +0.000 C 
ENDROOT
BRANCH   4   9
ATOM      9  O   UNL     1     111.213 129.544 139.991  0.00  0.00    +0.000 OA
BRANCH   9  15
ATOM     10  O   UNL     1     112.583 129.466 140.387  0.00  0.00    +0.000 OA
ATOM     11  O   UNL     1     110.981 130.795 141.042  0.00  0.00    +0.000 OA
ATOM     12  O   UNL     1     113.722 130.638 141.835  0.00  0.00    +0.000 OA
ATOM     13  C   UNL     1     112.351 130.717 141.438  0.00  0.00    +0.000 C 
ATOM     14  C   UNL     1     111.724 130.443 140.977  0.00  0.00    +0.000 C 
ATOM     15  C   UNL     1     111.840 129.818 140.452  0.00  0.00    +0.000 C 
ATOM     16  C   UNL     1     113.095 130.364 141.374  0.00  0.00    +0.000 C 
ATOM     17  C   UNL     1     113.210 129.739 140.848  0.00  0.00    +0.000 C 
ATOM     18  C   UNL     1     113.954 129.387 140.784  0.00  0.00    +0.000 C 
BRANCH  13  19
ATOM     19  O   UNL     1     112.235 131.342 141.963  0.00  0.00    +0.000 OA
BRANCH  19  24
ATOM     20  O   UNL     1     111.946 130.416 143.012  0.00  0.00    +0.000 OA
ATOM     21  O   UNL     1     111.828 132.594 142.958  0.00  0.00    +0.000 OA
ATOM     22  O   UNL     1     111.335 132.294 144.503  0.00  0.00    +0.000 OA
ATOM     23  O   UNL     1     111.249 130.741 145.055  0.00  0.00    +0.000 OA
ATOM     24  C   UNL     1     111.989 131.192 142.736  0.00  0.00    +0.000 C 
ATOM     25  C   UNL     1     111.785 131.818 143.233  0.00  0.00    +0.000 C 
ATOM     26  C   UNL     1     111.539 131.668 144.006  0.00  0.00    +0.000 C 
ATOM     27  C   UNL     1     111.496 130.891 144.282  0.00  0.00    +0.000 C 
ATOM     28  C   UNL     1     111.699 130.266 143.785  0.00  0.00    +0.000 C 
BRANCH  28  30
ATOM     29  O   UNL     1     111.033 129.002 143.827  0.00  0.00    +0.000 OA
ATOM     30  C   UNL     1     111.656 129.489 144.061  0.00  0.00    +0.000 C 
ENDBRANCH  28  30
ENDBRANCH  19  24
ENDBRANCH  13  19
ENDBRANCH   9  15
ENDBRANCH   4   9
BRANCH   8  31
ATOM     31  O   UNL     1     111.504 129.641 138.369  0.00  0.00    +0.000 OA
BRANCH  31  36
ATOM     32  O   UNL     1     111.211 130.160 136.269  0.00  0.00    +0.000 OA
ATOM     33  O   UNL     1     109.879 129.398 138.212  0.00  0.00    +0.000 OA
ATOM     34  O   UNL     1     108.672 129.400 137.421  0.00  0.00    +0.000 OA
ATOM     35  O   UNL     1     108.816 130.187 134.612  0.00  0.00    +0.000 OA
ATOM     36  C   UNL     1     111.135 129.773 137.643  0.00  0.00    +0.000 A 
ATOM     37  C   UNL     1     111.580 130.028 136.995  0.00  0.00    +0.000 A 
ATOM     38  C   UNL     1     110.324 129.652 137.564  0.00  0.00    +0.000 A 
ATOM     39  C   UNL     1     109.955 129.784 136.837  0.00  0.00    +0.000 A 
ATOM     40  C   UNL     1     110.399 130.038 136.190  0.00  0.00    +0.000 A 
ATOM     41  C   UNL     1     109.109 129.654 136.768  0.00  0.00    +0.000 A 
ATOM     42  C   UNL     1     110.027 130.179 135.429  0.00  0.00    +0.000 A 
ATOM     43  C   UNL     1     108.719 129.790 136.015  0.00  0.00    +0.000 A 
ATOM     44  C   UNL     1     109.182 130.054 135.340  0.00  0.00    +0.000 A 
BRANCH  37  46
ATOM     45  O   UNL     1     114.828 130.516 137.314  0.00  0.00    +0.000 OA
ATOM     46  C   UNL     1     112.392 130.149 137.074  0.00  0.00    +0.000 A 
ATOM     47  C   UNL     1     112.673 130.856 137.396  0.00  0.00    +0.000 A 
ATOM     48  C   UNL     1     112.922 129.565 136.833  0.00  0.00    +0.000 A 
ATOM     49  C   UNL     1     113.485 130.977 137.475  0.00  0.00    +0.000 A 
ATOM     50  C   UNL     1     113.734 129.688 136.913  0.00  0.00    +0.000 A 
ATOM     51  C   UNL     1     114.016 130.393 137.234  0.00  0.00    +0.000 A 
ENDBRANCH  37  46
ENDBRANCH  31  36
ENDBRANCH   8  31
BRANCH   7  52
ATOM     52  C   UNL     1     111.552 126.788 138.208  0.00  0.00    +0.000 C 
BRANCH  52  53
ATOM     53  O   UNL     1     111.204 126.732 137.463  0.00  0.00    +0.000 OA
BRANCH  53  58
ATOM     54  O   UNL     1     111.864 125.488 137.221  0.00  0.00    +0.000 OA
ATOM     55  O   UNL     1     110.227 126.467 136.159  0.00  0.00    +0.000 OA
ATOM     56  O   UNL     1     110.399 125.090 135.266  0.00  0.00    +0.000 OA
ATOM     57  O   UNL     1     111.548 123.979 135.676  0.00  0.00    +0.000 OA
ATOM     58  C   UNL     1     111.290 126.044 137.016  0.00  0.00    +0.000 C 
ATOM     59  C   UNL     1     110.802 125.911 136.365  0.00  0.00    +0.000 C 
ATOM     60  C   UNL     1     110.888 125.223 135.918  0.00  0.00    +0.000 C 
ATOM     61  C   UNL     1     111.462 124.668 136.124  0.00  0.00    +0.000 C 
ATOM     62  C   UNL     1     111.950 124.800 136.775  0.00  0.00    +0.000 C 
ATOM     63  C   UNL     1     112.524 124.244 136.980  0.00  0.00    +0.000 C 
ENDBRANCH  53  58
ENDBRANCH  52  53
ENDBRANCH   7  52
TORSDOF 11
ENDMDL
MODEL 4
REMARK VINA RESULT:     -10.8      2.835      5.702
REMARK  Name = 74978111
REMARK  11 active torsions:
REMARK  status: ('A' for Active; 'I' for Inactive)
REMARK    1  A    between atoms: O_1  and  C_27
REMARK    2  A    between atoms: O_1  and  C_28
REMARK    3  A    between atoms: O_3  and  C_25
REMARK    4  A    between atoms: O_3  and  C_35
REMARK    5  A    between atoms: O_9  and  C_34
REMARK    6  A    between atoms: O_9  and  C_48
REMARK    7  A    between atoms: O_10  and  C_40
REMARK    8  A    between atoms: O_10  and  C_42
REMARK    9  A    between atoms: C_33  and  C_40
REMARK   10  A    between atoms: C_39  and  C_47
REMARK   11  A    between atoms: C_50  and  C_53
REMARK                            x       y       z     vdW  Elec       q    Type
REMARK                         _______ _______ _______ _____ _____    ______ ____
ROOT
ATOM      1  O   UNL     1     111.358 127.523 138.229  0.00  0.00    +0.000 OA
ATOM      2  O   UNL     1     108.941 126.989 138.255  0.00  0.00    +0.000 OA
ATOM      3  O   UNL     1     109.500 128.236 137.331  0.00  0.00    +0.000 OA
ATOM      4  C   UNL     1     110.273 126.721 138.700  0.00  0.00    +0.000 C 
ATOM      5  C   UNL     1     109.747 127.167 138.246  0.00  0.00    +0.000 C 
ATOM      6  C   UNL     1     110.027 127.790 137.785  0.00  0.00    +0.000 C 
ATOM      7  C   UNL     1     110.832 127.968 137.776  0.00  0.00    +0.000 C 
ATOM      8  C   UNL     1     111.079 126.899 138.691  0.00  0.00    +0.000 C 
ENDROOT
BRANCH   4   9
ATOM      9  O   UNL     1     109.993 126.097 139.162  0.00  0.00    +0.000 OA
BRANCH   9  15
ATOM     10  O   UNL     1     109.635 127.012 140.198  0.00  0.00    +0.000 OA
ATOM     11  O   UNL     1     109.223 124.882 139.969  0.00  0.00    +0.000 OA
ATOM     12  O   UNL     1     108.507 126.712 142.043  0.00  0.00    +0.000 OA
ATOM     13  C   UNL     1     108.865 125.796 141.006  0.00  0.00    +0.000 C 
ATOM     14  C   UNL     1     109.237 125.643 140.285  0.00  0.00    +0.000 C 
ATOM     15  C   UNL     1     109.622 126.251 139.882  0.00  0.00    +0.000 C 
ATOM     16  C   UNL     1     108.879 126.559 141.323  0.00  0.00    +0.000 C 
ATOM     17  C   UNL     1     109.264 127.166 140.919  0.00  0.00    +0.000 C 
ATOM     18  C   UNL     1     109.277 127.928 141.236  0.00  0.00    +0.000 C 
BRANCH  13  19
ATOM     19  O   UNL     1     108.480 125.189 141.410  0.00  0.00    +0.000 OA
BRANCH  19  24
ATOM     20  O   UNL     1     107.174 125.523 140.937  0.00  0.00    +0.000 OA
ATOM     21  O   UNL     1     108.060 123.594 141.444  0.00  0.00    +0.000 OA
ATOM     22  O   UNL     1     106.543 123.130 140.988  0.00  0.00    +0.000 OA
ATOM     23  O   UNL     1     105.447 124.262 140.499  0.00  0.00    +0.000 OA
ATOM     24  C   UNL     1     107.722 124.957 141.182  0.00  0.00    +0.000 C 
ATOM     25  C   UNL     1     107.512 124.159 141.199  0.00  0.00    +0.000 C 
ATOM     26  C   UNL     1     106.754 123.927 140.972  0.00  0.00    +0.000 C 
ATOM     27  C   UNL     1     106.205 124.494 140.726  0.00  0.00    +0.000 C 
ATOM     28  C   UNL     1     106.416 125.291 140.710  0.00  0.00    +0.000 C 
BRANCH  28  30
ATOM     29  O   UNL     1     105.559 126.395 141.009  0.00  0.00    +0.000 OA
ATOM     30  C   UNL     1     105.867 125.857 140.464  0.00  0.00    +0.000 C 
ENDBRANCH  28  30
ENDBRANCH  19  24
ENDBRANCH  13  19
ENDBRANCH   9  15
ENDBRANCH   4   9
BRANCH   8  31
ATOM     31  O   UNL     1     111.604 126.453 139.144  0.00  0.00    +0.000 OA
BRANCH  31  36
ATOM     32  O   UNL     1     113.755 126.209 138.859  0.00  0.00    +0.000 OA
ATOM     33  O   UNL     1     111.634 125.513 137.788  0.00  0.00    +0.000 OA
ATOM     34  O   UNL     1     112.353 124.791 136.767  0.00  0.00    +0.000 OA
ATOM     35  O   UNL     1     115.273 124.771 136.832  0.00  0.00    +0.000 OA
ATOM     36  C   UNL     1     112.326 126.215 138.823  0.00  0.00    +0.000 A 
ATOM     37  C   UNL     1     113.033 126.447 139.180  0.00  0.00    +0.000 A 
ATOM     38  C   UNL     1     112.341 125.745 138.145  0.00  0.00    +0.000 A 
ATOM     39  C   UNL     1     113.063 125.507 137.824  0.00  0.00    +0.000 A 
ATOM     40  C   UNL     1     113.769 125.739 138.181  0.00  0.00    +0.000 A 
ATOM     41  C   UNL     1     113.065 125.018 137.118  0.00  0.00    +0.000 A 
ATOM     42  C   UNL     1     114.527 125.497 137.856  0.00  0.00    +0.000 A 
ATOM     43  C   UNL     1     113.813 124.766 136.779  0.00  0.00    +0.000 A 
ATOM     44  C   UNL     1     114.550 125.008 137.151  0.00  0.00    +0.000 A 
BRANCH  37  46
ATOM     45  O   UNL     1     112.970 128.325 141.893  0.00  0.00    +0.000 OA
ATOM     46  C   UNL     1     113.018 126.917 139.858  0.00  0.00    +0.000 A 
ATOM     47  C   UNL     1     112.872 126.573 140.594  0.00  0.00    +0.000 A 
ATOM     48  C   UNL     1     113.147 127.730 139.800  0.00  0.00    +0.000 A 
ATOM     49  C   UNL     1     112.857 127.043 141.272  0.00  0.00    +0.000 A 
ATOM     50  C   UNL     1     113.131 128.198 140.479  0.00  0.00    +0.000 A 
ATOM     51  C   UNL     1     112.986 127.856 141.215  0.00  0.00    +0.000 A 
ENDBRANCH  37  46
ENDBRANCH  31  36
ENDBRANCH   8  31
BRANCH   7  52
ATOM     52  C   UNL     1     111.111 128.592 137.314  0.00  0.00    +0.000 C 
BRANCH  52  53
ATOM     53  O   UNL     1     111.702 128.460 136.754  0.00  0.00    +0.000 OA
BRANCH  53  58
ATOM     54  O   UNL     1     112.203 129.781 136.964  0.00  0.00    +0.000 OA
ATOM     55  O   UNL     1     112.826 128.221 135.571  0.00  0.00    +0.000 OA
ATOM     56  O   UNL     1     113.890 129.423 135.189  0.00  0.00    +0.000 OA
ATOM     57  O   UNL     1     113.829 130.864 135.990  0.00  0.00    +0.000 OA
ATOM     58  C   UNL     1     112.233 129.061 136.563  0.00  0.00    +0.000 C 
ATOM     59  C   UNL     1     112.796 128.942 135.972  0.00  0.00    +0.000 C 
ATOM     60  C   UNL     1     113.328 129.542 135.781  0.00  0.00    +0.000 C 
ATOM     61  C   UNL     1     113.297 130.263 136.182  0.00  0.00    +0.000 C 
ATOM     62  C   UNL     1     112.734 130.382 136.773  0.00  0.00    +0.000 C 
ATOM     63  C   UNL     1     112.704 131.103 137.174  0.00  0.00    +0.000 C 
ENDBRANCH  53  58
ENDBRANCH  52  53
ENDBRANCH   7  52
TORSDOF 11
ENDMDL
MODEL 5
REMARK VINA RESULT:     -10.8      2.627      4.611
REMARK  Name = 74978111
REMARK  11 active torsions:
REMARK  status: ('A' for Active; 'I' for Inactive)
REMARK    1  A    between atoms: O_1  and  C_27
REMARK    2  A    between atoms: O_1  and  C_28
REMARK    3  A    between atoms: O_3  and  C_25
REMARK    4  A    between atoms: O_3  and  C_35
REMARK    5  A    between atoms: O_9  and  C_34
REMARK    6  A    between atoms: O_9  and  C_48
REMARK    7  A    between atoms: O_10  and  C_40
REMARK    8  A    between atoms: O_10  and  C_42
REMARK    9  A    between atoms: C_33  and  C_40
REMARK   10  A    between atoms: C_39  and  C_47
REMARK   11  A    between atoms: C_50  and  C_53
REMARK                            x       y       z     vdW  Elec       q    Type
REMARK                         _______ _______ _______ _____ _____    ______ ____
ROOT
ATOM      1  O   UNL     1     111.338 128.211 138.364  0.00  0.00    +0.000 OA
ATOM      2  O   UNL     1     109.077 128.982 139.011  0.00  0.00    +0.000 OA
ATOM      3  O   UNL     1     109.968 129.854 137.930  0.00  0.00    +0.000 OA
ATOM      4  C   UNL     1     110.139 128.031 139.120  0.00  0.00    +0.000 C 
ATOM      5  C   UNL     1     109.831 128.725 138.795  0.00  0.00    +0.000 C 
ATOM      6  C   UNL     1     110.276 129.161 138.255  0.00  0.00    +0.000 C 
ATOM      7  C   UNL     1     111.030 128.904 138.039  0.00  0.00    +0.000 C 
ATOM      8  C   UNL     1     110.893 127.774 138.904  0.00  0.00    +0.000 C 
ENDROOT
BRANCH   4   9
ATOM      9  O   UNL     1     109.693 127.596 139.660  0.00  0.00    +0.000 OA
BRANCH   9  15
ATOM     10  O   UNL     1     110.123 128.455 140.717  0.00  0.00    +0.000 OA
ATOM     11  O   UNL     1     108.672 126.826 140.702  0.00  0.00    +0.000 OA
ATOM     12  O   UNL     1     109.532 128.546 142.816  0.00  0.00    +0.000 OA
ATOM     13  C   UNL     1     109.102 127.685 141.759  0.00  0.00    +0.000 C 
ATOM     14  C   UNL     1     109.142 127.448 140.970  0.00  0.00    +0.000 C 
ATOM     15  C   UNL     1     109.653 127.833 140.449  0.00  0.00    +0.000 C 
ATOM     16  C   UNL     1     109.573 128.308 142.027  0.00  0.00    +0.000 C 
ATOM     17  C   UNL     1     110.083 128.693 141.506  0.00  0.00    +0.000 C 
ATOM     18  C   UNL     1     110.554 129.316 141.774  0.00  0.00    +0.000 C 
BRANCH  13  19
ATOM     19  O   UNL     1     108.591 127.301 142.281  0.00  0.00    +0.000 OA
BRANCH  19  24
ATOM     20  O   UNL     1     107.579 128.289 142.084  0.00  0.00    +0.000 OA
ATOM     21  O   UNL     1     107.462 126.265 142.893  0.00  0.00    +0.000 OA
ATOM     22  O   UNL     1     105.884 126.736 143.002  0.00  0.00    +0.000 OA
ATOM     23  O   UNL     1     105.436 128.242 142.500  0.00  0.00    +0.000 OA
ATOM     24  C   UNL     1     107.802 127.536 142.335  0.00  0.00    +0.000 C 
ATOM     25  C   UNL     1     107.238 127.018 142.642  0.00  0.00    +0.000 C 
ATOM     26  C   UNL     1     106.449 127.253 142.696  0.00  0.00    +0.000 C 
ATOM     27  C   UNL     1     106.225 128.007 142.445  0.00  0.00    +0.000 C 
ATOM     28  C   UNL     1     106.790 128.524 142.139  0.00  0.00    +0.000 C 
BRANCH  28  30
ATOM     29  O   UNL     1     106.585 129.467 141.085  0.00  0.00    +0.000 OA
ATOM     30  C   UNL     1     106.565 129.278 141.887  0.00  0.00    +0.000 C 
ENDBRANCH  28  30
ENDBRANCH  19  24
ENDBRANCH  13  19
ENDBRANCH   9  15
ENDBRANCH   4   9
BRANCH   8  31
ATOM     31  O   UNL     1     111.200 127.082 139.228  0.00  0.00    +0.000 OA
BRANCH  31  36
ATOM     32  O   UNL     1     112.800 125.822 138.442  0.00  0.00    +0.000 OA
ATOM     33  O   UNL     1     110.448 126.398 137.929  0.00  0.00    +0.000 OA
ATOM     34  O   UNL     1     110.453 125.521 136.783  0.00  0.00    +0.000 OA
ATOM     35  O   UNL     1     112.884 124.032 136.145  0.00  0.00    +0.000 OA
ATOM     36  C   UNL     1     111.608 126.548 138.750  0.00  0.00    +0.000 A 
ATOM     37  C   UNL     1     112.393 126.355 138.920  0.00  0.00    +0.000 A 
ATOM     38  C   UNL     1     111.233 126.206 138.100  0.00  0.00    +0.000 A 
ATOM     39  C   UNL     1     111.640 125.672 137.621  0.00  0.00    +0.000 A 
ATOM     40  C   UNL     1     112.424 125.480 137.792  0.00  0.00    +0.000 A 
ATOM     41  C   UNL     1     111.237 125.323 136.947  0.00  0.00    +0.000 A 
ATOM     42  C   UNL     1     112.859 124.926 137.301  0.00  0.00    +0.000 A 
ATOM     43  C   UNL     1     111.656 124.766 136.444  0.00  0.00    +0.000 A 
ATOM     44  C   UNL     1     112.473 124.566 136.622  0.00  0.00    +0.000 A 
BRANCH  37  46
ATOM     45  O   UNL     1     113.897 127.726 141.519  0.00  0.00    +0.000 OA
ATOM     46  C   UNL     1     112.768 126.698 139.570  0.00  0.00    +0.000 A 
ATOM     47  C   UNL     1     113.292 127.327 139.460  0.00  0.00    +0.000 A 
ATOM     48  C   UNL     1     112.621 126.412 140.330  0.00  0.00    +0.000 A 
ATOM     49  C   UNL     1     113.667 127.669 140.110  0.00  0.00    +0.000 A 
ATOM     50  C   UNL     1     112.998 126.755 140.979  0.00  0.00    +0.000 A 
ATOM     51  C   UNL     1     113.520 127.383 140.869  0.00  0.00    +0.000 A 
ENDBRANCH  37  46
ENDBRANCH  31  36
ENDBRANCH   8  31
BRANCH   7  52
ATOM     52  C   UNL     1     111.475 129.340 137.499  0.00  0.00    +0.000 C 
BRANCH  52  53
ATOM     53  O   UNL     1     111.832 128.964 136.858  0.00  0.00    +0.000 OA
BRANCH  53  58
ATOM     54  O   UNL     1     112.872 129.944 136.832  0.00  0.00    +0.000 OA
ATOM     55  O   UNL     1     112.315 128.412 135.380  0.00  0.00    +0.000 OA
ATOM     56  O   UNL     1     113.597 129.115 134.615  0.00  0.00    +0.000 OA
ATOM     57  O   UNL     1     114.395 130.371 135.328  0.00  0.00    +0.000 OA
ATOM     58  C   UNL     1     112.473 129.316 136.476  0.00  0.00    +0.000 C 
ATOM     59  C   UNL     1     112.715 129.040 135.737  0.00  0.00    +0.000 C 
ATOM     60  C   UNL     1     113.355 129.392 135.354  0.00  0.00    +0.000 C 
ATOM     61  C   UNL     1     113.754 130.019 135.711  0.00  0.00    +0.000 C 
ATOM     62  C   UNL     1     113.512 130.295 136.450  0.00  0.00    +0.000 C 
ATOM     63  C   UNL     1     113.911 130.924 136.806  0.00  0.00    +0.000 C 
ENDBRANCH  53  58
ENDBRANCH  52  53
ENDBRANCH   7  52
TORSDOF 11
ENDMDL
MODEL 6
REMARK VINA RESULT:     -10.8      2.140      4.435
REMARK  Name = 74978111
REMARK  11 active torsions:
REMARK  status: ('A' for Active; 'I' for Inactive)
REMARK    1  A    between atoms: O_1  and  C_27
REMARK    2  A    between atoms: O_1  and  C_28
REMARK    3  A    between atoms: O_3  and  C_25
REMARK    4  A    between atoms: O_3  and  C_35
REMARK    5  A    between atoms: O_9  and  C_34
REMARK    6  A    between atoms: O_9  and  C_48
REMARK    7  A    between atoms: O_10  and  C_40
REMARK    8  A    between atoms: O_10  and  C_42
REMARK    9  A    between atoms: C_33  and  C_40
REMARK   10  A    between atoms: C_39  and  C_47
REMARK   11  A    between atoms: C_50  and  C_53
REMARK                            x       y       z     vdW  Elec       q    Type
REMARK                         _______ _______ _______ _____ _____    ______ ____
ROOT
ATOM      1  O   UNL     1     112.093 129.150 137.638  0.00  0.00    +0.000 OA
ATOM      2  O   UNL     1     109.722 129.825 137.417  0.00  0.00    +0.000 OA
ATOM      3  O   UNL     1     110.820 130.286 136.276  0.00  0.00    +0.000 OA
ATOM      4  C   UNL     1     110.753 129.145 138.136  0.00  0.00    +0.000 C 
ATOM      5  C   UNL     1     110.512 129.600 137.491  0.00  0.00    +0.000 C 
ATOM      6  C   UNL     1     111.062 129.830 136.920  0.00  0.00    +0.000 C 
ATOM      7  C   UNL     1     111.852 129.605 136.994  0.00  0.00    +0.000 C 
ATOM      8  C   UNL     1     111.544 128.920 138.209  0.00  0.00    +0.000 C 
ENDROOT
BRANCH   4   9
ATOM      9  O   UNL     1     110.204 128.915 138.706  0.00  0.00    +0.000 OA
BRANCH   9  15
ATOM     10  O   UNL     1     110.290 130.182 139.360  0.00  0.00    +0.000 OA
ATOM     11  O   UNL     1     108.777 128.613 139.478  0.00  0.00    +0.000 OA
ATOM     12  O   UNL     1     108.949 131.148 140.786  0.00  0.00    +0.000 OA
ATOM     13  C   UNL     1     108.863 129.880 140.132  0.00  0.00    +0.000 C 
ATOM     14  C   UNL     1     109.176 129.322 139.612  0.00  0.00    +0.000 C 
ATOM     15  C   UNL     1     109.890 129.473 139.226  0.00  0.00    +0.000 C 
ATOM     16  C   UNL     1     109.263 130.590 140.266  0.00  0.00    +0.000 C 
ATOM     17  C   UNL     1     109.976 130.740 139.880  0.00  0.00    +0.000 C 
ATOM     18  C   UNL     1     110.376 131.450 140.015  0.00  0.00    +0.000 C 
BRANCH  13  19
ATOM     19  O   UNL     1     108.150 129.730 140.518  0.00  0.00    +0.000 OA
BRANCH  19  24
ATOM     20  O   UNL     1     108.861 129.133 141.603  0.00  0.00    +0.000 OA
ATOM     21  O   UNL     1     106.724 129.457 141.303  0.00  0.00    +0.000 OA
ATOM     22  O   UNL     1     106.723 128.724 142.780  0.00  0.00    +0.000 OA
ATOM     23  O   UNL     1     108.147 128.263 143.474  0.00  0.00    +0.000 OA
ATOM     24  C   UNL     1     108.149 129.363 141.257  0.00  0.00    +0.000 C 
ATOM     25  C   UNL     1     107.436 129.227 141.649  0.00  0.00    +0.000 C 
ATOM     26  C   UNL     1     107.435 128.860 142.388  0.00  0.00    +0.000 C 
ATOM     27  C   UNL     1     108.148 128.630 142.735  0.00  0.00    +0.000 C 
ATOM     28  C   UNL     1     108.860 128.766 142.342  0.00  0.00    +0.000 C 
BRANCH  28  30
ATOM     29  O   UNL     1     109.957 127.854 142.428  0.00  0.00    +0.000 OA
ATOM     30  C   UNL     1     109.573 128.536 142.689  0.00  0.00    +0.000 C 
ENDBRANCH  28  30
ENDBRANCH  19  24
ENDBRANCH  13  19
ENDBRANCH   9  15
ENDBRANCH   4   9
BRANCH   8  31
ATOM     31  O   UNL     1     111.784 128.465 138.853  0.00  0.00    +0.000 OA
BRANCH  31  36
ATOM     32  O   UNL     1     113.574 127.238 139.100  0.00  0.00    +0.000 OA
ATOM     33  O   UNL     1     111.513 127.288 137.729  0.00  0.00    +0.000 OA
ATOM     34  O   UNL     1     111.908 126.084 137.040  0.00  0.00    +0.000 OA
ATOM     35  O   UNL     1     114.437 124.806 137.750  0.00  0.00    +0.000 OA
ATOM     36  C   UNL     1     112.335 127.860 138.748  0.00  0.00    +0.000 A 
ATOM     37  C   UNL     1     113.023 127.843 139.205  0.00  0.00    +0.000 A 
ATOM     38  C   UNL     1     112.200 127.271 138.186  0.00  0.00    +0.000 A 
ATOM     39  C   UNL     1     112.751 126.666 138.081  0.00  0.00    +0.000 A 
ATOM     40  C   UNL     1     113.438 126.650 138.537  0.00  0.00    +0.000 A 
ATOM     41  C   UNL     1     112.598 126.059 137.492  0.00  0.00    +0.000 A 
ATOM     42  C   UNL     1     114.019 126.025 138.437  0.00  0.00    +0.000 A 
ATOM     43  C   UNL     1     113.168 125.427 137.377  0.00  0.00    +0.000 A 
ATOM     44  C   UNL     1     113.884 125.410 137.854  0.00  0.00    +0.000 A 
BRANCH  37  46
ATOM     45  O   UNL     1     113.566 130.200 141.451  0.00  0.00    +0.000 OA
ATOM     46  C   UNL     1     113.158 128.432 139.767  0.00  0.00    +0.000 A 
ATOM     47  C   UNL     1     113.640 129.076 139.581  0.00  0.00    +0.000 A 
ATOM     48  C   UNL     1     112.813 128.377 140.514  0.00  0.00    +0.000 A 
ATOM     49  C   UNL     1     113.775 129.665 140.142  0.00  0.00    +0.000 A 
ATOM     50  C   UNL     1     112.949 128.967 141.075  0.00  0.00    +0.000 A 
ATOM     51  C   UNL     1     113.430 129.610 140.890  0.00  0.00    +0.000 A 
ENDBRANCH  37  46
ENDBRANCH  31  36
ENDBRANCH   8  31
BRANCH   7  52
ATOM     52  C   UNL     1     112.401 129.836 136.423  0.00  0.00    +0.000 C 
BRANCH  52  53
ATOM     53  O   UNL     1     113.116 130.177 136.651  0.00  0.00    +0.000 OA
BRANCH  53  58
ATOM     54  O   UNL     1     113.950 129.465 135.735  0.00  0.00    +0.000 OA
ATOM     55  O   UNL     1     114.041 131.528 136.444  0.00  0.00    +0.000 OA
ATOM     56  O   UNL     1     115.338 131.491 135.424  0.00  0.00    +0.000 OA
ATOM     57  O   UNL     1     115.710 130.104 134.612  0.00  0.00    +0.000 OA
ATOM     58  C   UNL     1     113.764 130.158 136.141  0.00  0.00    +0.000 C 
ATOM     59  C   UNL     1     114.227 130.833 136.037  0.00  0.00    +0.000 C 
ATOM     60  C   UNL     1     114.875 130.816 135.528  0.00  0.00    +0.000 C 
ATOM     61  C   UNL     1     115.061 130.122 135.122  0.00  0.00    +0.000 C 
ATOM     62  C   UNL     1     114.598 129.447 135.226  0.00  0.00    +0.000 C 
ATOM     63  C   UNL     1     114.785 128.753 134.819  0.00  0.00    +0.000 C 
ENDBRANCH  53  58
ENDBRANCH  52  53
ENDBRANCH   7  52
TORSDOF 11
ENDMDL
MODEL 7
REMARK VINA RESULT:     -10.8      2.243      4.088
REMARK  Name = 74978111
REMARK  11 active torsions:
REMARK  status: ('A' for Active; 'I' for Inactive)
REMARK    1  A    between atoms: O_1  and  C_27
REMARK    2  A    between atoms: O_1  and  C_28
REMARK    3  A    between atoms: O_3  and  C_25
REMARK    4  A    between atoms: O_3  and  C_35
REMARK    5  A    between atoms: O_9  and  C_34
REMARK    6  A    between atoms: O_9  and  C_48
REMARK    7  A    between atoms: O_10  and  C_40
REMARK    8  A    between atoms: O_10  and  C_42
REMARK    9  A    between atoms: C_33  and  C_40
REMARK   10  A    between atoms: C_39  and  C_47
REMARK   11  A    between atoms: C_50  and  C_53
REMARK                            x       y       z     vdW  Elec       q    Type
REMARK                         _______ _______ _______ _____ _____    ______ ____
ROOT
ATOM      1  O   UNL     1     111.792 128.832 137.552  0.00  0.00    +0.000 OA
ATOM      2  O   UNL     1     111.655 129.707 139.863  0.00  0.00    +0.000 OA
ATOM      3  O   UNL     1     113.040 129.903 138.986  0.00  0.00    +0.000 OA
ATOM      4  C   UNL     1     111.054 129.025 138.760  0.00  0.00    +0.000 C 
ATOM      5  C   UNL     1     111.701 129.415 139.092  0.00  0.00    +0.000 C 
ATOM      6  C   UNL     1     112.392 129.513 138.654  0.00  0.00    +0.000 C 
ATOM      7  C   UNL     1     112.438 129.221 137.883  0.00  0.00    +0.000 C 
ATOM      8  C   UNL     1     111.099 128.733 137.989  0.00  0.00    +0.000 C 
ENDROOT
BRANCH   4   9
ATOM      9  O   UNL     1     110.362 128.927 139.198  0.00  0.00    +0.000 OA
BRANCH   9  15
ATOM     10  O   UNL     1     109.960 130.257 138.868  0.00  0.00    +0.000 OA
ATOM     11  O   UNL     1     109.042 128.770 140.175  0.00  0.00    +0.000 OA
ATOM     12  O   UNL     1     108.237 131.432 139.515  0.00  0.00    +0.000 OA
ATOM     13  C   UNL     1     108.639 130.100 139.845  0.00  0.00    +0.000 C 
ATOM     14  C   UNL     1     109.171 129.474 139.766  0.00  0.00    +0.000 C 
ATOM     15  C   UNL     1     109.831 129.553 139.277  0.00  0.00    +0.000 C 
ATOM     16  C   UNL     1     108.768 130.805 139.436  0.00  0.00    +0.000 C 
ATOM     17  C   UNL     1     109.429 130.883 138.947  0.00  0.00    +0.000 C 
ATOM     18  C   UNL     1     109.558 131.588 138.538  0.00  0.00    +0.000 C 
BRANCH  13  19
ATOM     19  O   UNL     1     107.979 130.023 140.334  0.00  0.00    +0.000 OA
BRANCH  19  24
ATOM     20  O   UNL     1     108.758 130.370 141.479  0.00  0.00    +0.000 OA
ATOM     21  O   UNL     1     106.598 130.216 141.215  0.00  0.00    +0.000 OA
ATOM     22  O   UNL     1     106.687 130.661 142.801  0.00  0.00    +0.000 OA
ATOM     23  O   UNL     1     108.157 130.911 143.507  0.00  0.00    +0.000 OA
ATOM     24  C   UNL     1     108.024 130.245 141.127  0.00  0.00    +0.000 C 
ATOM     25  C   UNL     1     107.332 130.341 141.567  0.00  0.00    +0.000 C 
ATOM     26  C   UNL     1     107.377 130.564 142.360  0.00  0.00    +0.000 C 
ATOM     27  C   UNL     1     108.113 130.689 142.713  0.00  0.00    +0.000 C 
ATOM     28  C   UNL     1     108.803 130.592 142.272  0.00  0.00    +0.000 C 
BRANCH  28  30
ATOM     29  O   UNL     1     110.002 131.359 142.394  0.00  0.00    +0.000 OA
ATOM     30  C   UNL     1     109.539 130.717 142.625  0.00  0.00    +0.000 C 
ENDBRANCH  28  30
ENDBRANCH  19  24
ENDBRANCH  13  19
ENDBRANCH   9  15
ENDBRANCH   4   9
BRANCH   8  31
ATOM     31  O   UNL     1     110.453 128.343 137.658  0.00  0.00    +0.000 OA
BRANCH  31  36
ATOM     32  O   UNL     1     110.394 126.919 136.004  0.00  0.00    +0.000 OA
ATOM     33  O   UNL     1     111.262 127.066 138.318  0.00  0.00    +0.000 OA
ATOM     34  O   UNL     1     111.797 125.728 138.233  0.00  0.00    +0.000 OA
ATOM     35  O   UNL     1     111.446 124.214 135.760  0.00  0.00    +0.000 OA
ATOM     36  C   UNL     1     110.568 127.655 137.217  0.00  0.00    +0.000 A 
ATOM     37  C   UNL     1     110.279 127.606 136.445  0.00  0.00    +0.000 A 
ATOM     38  C   UNL     1     110.972 127.016 137.546  0.00  0.00    +0.000 A 
ATOM     39  C   UNL     1     111.088 126.329 137.105  0.00  0.00    +0.000 A 
ATOM     40  C   UNL     1     110.798 126.280 136.335  0.00  0.00    +0.000 A 
ATOM     41  C   UNL     1     111.511 125.670 137.461  0.00  0.00    +0.000 A 
ATOM     42  C   UNL     1     110.912 125.569 135.866  0.00  0.00    +0.000 A 
ATOM     43  C   UNL     1     111.634 124.951 137.007  0.00  0.00    +0.000 A 
ATOM     44  C   UNL     1     111.332 124.900 136.203  0.00  0.00    +0.000 A 
BRANCH  37  46
ATOM     45  O   UNL     1     108.663 130.164 135.126  0.00  0.00    +0.000 OA
ATOM     46  C   UNL     1     109.874 128.245 136.116  0.00  0.00    +0.000 A 
ATOM     47  C   UNL     1     110.271 128.773 135.620  0.00  0.00    +0.000 A 
ATOM     48  C   UNL     1     109.074 128.357 136.281  0.00  0.00    +0.000 A 
ATOM     49  C   UNL     1     109.867 129.412 135.291  0.00  0.00    +0.000 A 
ATOM     50  C   UNL     1     108.670 128.997 135.950  0.00  0.00    +0.000 A 
ATOM     51  C   UNL     1     109.066 129.524 135.456  0.00  0.00    +0.000 A 
ENDBRANCH  37  46
ENDBRANCH  31  36
ENDBRANCH   8  31
BRANCH   7  52
ATOM     52  C   UNL     1     113.130 129.320 137.446  0.00  0.00    +0.000 C 
BRANCH  52  53
ATOM     53  O   UNL     1     113.155 129.091 136.654  0.00  0.00    +0.000 OA
BRANCH  53  58
ATOM     54  O   UNL     1     114.008 130.146 136.205  0.00  0.00    +0.000 OA
ATOM     55  O   UNL     1     113.877 128.055 135.592  0.00  0.00    +0.000 OA
ATOM     56  O   UNL     1     115.091 128.592 134.612  0.00  0.00    +0.000 OA
ATOM     57  O   UNL     1     115.583 130.165 134.694  0.00  0.00    +0.000 OA
ATOM     58  C   UNL     1     113.762 129.360 136.164  0.00  0.00    +0.000 C 
ATOM     59  C   UNL     1     114.123 128.842 135.633  0.00  0.00    +0.000 C 
ATOM     60  C   UNL     1     114.730 129.110 135.143  0.00  0.00    +0.000 C 
ATOM     61  C   UNL     1     114.975 129.897 135.185  0.00  0.00    +0.000 C 
ATOM     62  C   UNL     1     114.614 130.414 135.716  0.00  0.00    +0.000 C 
ATOM     63  C   UNL     1     114.860 131.201 135.756  0.00  0.00    +0.000 C 
ENDBRANCH  53  58
ENDBRANCH  52  53
ENDBRANCH   7  52
TORSDOF 11
ENDMDL
MODEL 8
REMARK VINA RESULT:     -10.7      1.917      4.600
REMARK  Name = 74978111
REMARK  11 active torsions:
REMARK  status: ('A' for Active; 'I' for Inactive)
REMARK    1  A    between atoms: O_1  and  C_27
REMARK    2  A    between atoms: O_1  and  C_28
REMARK    3  A    between atoms: O_3  and  C_25
REMARK    4  A    between atoms: O_3  and  C_35
REMARK    5  A    between atoms: O_9  and  C_34
REMARK    6  A    between atoms: O_9  and  C_48
REMARK    7  A    between atoms: O_10  and  C_40
REMARK    8  A    between atoms: O_10  and  C_42
REMARK    9  A    between atoms: C_33  and  C_40
REMARK   10  A    between atoms: C_39  and  C_47
REMARK   11  A    between atoms: C_50  and  C_53
REMARK                            x       y       z     vdW  Elec       q    Type
REMARK                         _______ _______ _______ _____ _____    ______ ____
ROOT
ATOM      1  O   UNL     1     110.867 130.307 138.253  0.00  0.00    +0.000 OA
ATOM      2  O   UNL     1     110.783 131.493 140.424  0.00  0.00    +0.000 OA
ATOM      3  O   UNL     1     109.964 132.093 139.124  0.00  0.00    +0.000 OA
ATOM      4  C   UNL     1     111.249 130.402 139.627  0.00  0.00    +0.000 C 
ATOM      5  C   UNL     1     110.811 131.098 139.701  0.00  0.00    +0.000 C 
ATOM      6  C   UNL     1     110.402 131.397 139.050  0.00  0.00    +0.000 C 
ATOM      7  C   UNL     1     110.429 131.002 138.327  0.00  0.00    +0.000 C 
ATOM      8  C   UNL     1     111.277 130.006 138.903  0.00  0.00    +0.000 C 
ENDROOT
BRANCH   4   9
ATOM      9  O   UNL     1     111.659 130.102 140.277  0.00  0.00    +0.000 OA
BRANCH   9  15
ATOM     10  O   UNL     1     110.461 129.498 140.768  0.00  0.00    +0.000 OA
ATOM     11  O   UNL     1     112.424 129.735 141.692  0.00  0.00    +0.000 OA
ATOM     12  O   UNL     1     110.027 128.526 142.674  0.00  0.00    +0.000 OA
ATOM     13  C   UNL     1     111.226 129.131 142.183  0.00  0.00    +0.000 C 
ATOM     14  C   UNL     1     111.634 129.525 141.584  0.00  0.00    +0.000 C 
ATOM     15  C   UNL     1     111.251 129.708 140.876  0.00  0.00    +0.000 C 
ATOM     16  C   UNL     1     110.435 128.920 142.075  0.00  0.00    +0.000 C 
ATOM     17  C   UNL     1     110.053 129.104 141.367  0.00  0.00    +0.000 C 
ATOM     18  C   UNL     1     109.262 128.894 141.259  0.00  0.00    +0.000 C 
BRANCH  13  19
ATOM     19  O   UNL     1     111.608 128.947 142.891  0.00  0.00    +0.000 OA
BRANCH  19  24
ATOM     20  O   UNL     1     111.374 130.258 143.407  0.00  0.00    +0.000 OA
ATOM     21  O   UNL     1     111.899 128.397 144.419  0.00  0.00    +0.000 OA
ATOM     22  O   UNL     1     111.810 129.433 145.700  0.00  0.00    +0.000 OA
ATOM     23  O   UNL     1     111.430 131.020 145.452  0.00  0.00    +0.000 OA
ATOM     24  C   UNL     1     111.564 129.465 143.531  0.00  0.00    +0.000 C 
ATOM     25  C   UNL     1     111.709 129.189 144.295  0.00  0.00    +0.000 C 
ATOM     26  C   UNL     1     111.665 129.708 144.935  0.00  0.00    +0.000 C 
ATOM     27  C   UNL     1     111.474 130.502 144.812  0.00  0.00    +0.000 C 
ATOM     28  C   UNL     1     111.329 130.776 144.047  0.00  0.00    +0.000 C 
BRANCH  28  30
ATOM     29  O   UNL     1     110.365 131.783 143.732  0.00  0.00    +0.000 OA
ATOM     30  C   UNL     1     111.139 131.570 143.924  0.00  0.00    +0.000 C 
ENDBRANCH  28  30
ENDBRANCH  19  24
ENDBRANCH  13  19
ENDBRANCH   9  15
ENDBRANCH   4   9
BRANCH   8  31
ATOM     31  O   UNL     1     111.714 129.311 138.830  0.00  0.00    +0.000 OA
BRANCH  31  36
ATOM     32  O   UNL     1     112.516 128.356 137.038  0.00  0.00    +0.000 OA
ATOM     33  O   UNL     1     112.833 130.428 138.355  0.00  0.00    +0.000 OA
ATOM     34  O   UNL     1     113.859 130.882 137.448  0.00  0.00    +0.000 OA
ATOM     35  O   UNL     1     114.578 129.207 135.166  0.00  0.00    +0.000 OA
ATOM     36  C   UNL     1     112.168 129.179 138.154  0.00  0.00    +0.000 A 
ATOM     37  C   UNL     1     112.062 128.488 137.714  0.00  0.00    +0.000 A 
ATOM     38  C   UNL     1     112.727 129.737 137.916  0.00  0.00    +0.000 A 
ATOM     39  C   UNL     1     113.181 129.604 137.240  0.00  0.00    +0.000 A 
ATOM     40  C   UNL     1     113.075 128.914 136.801  0.00  0.00    +0.000 A 
ATOM     41  C   UNL     1     113.760 130.194 137.003  0.00  0.00    +0.000 A 
ATOM     42  C   UNL     1     113.542 128.765 136.095  0.00  0.00    +0.000 A 
ATOM     43  C   UNL     1     114.236 130.062 136.300  0.00  0.00    +0.000 A 
ATOM     44  C   UNL     1     114.126 129.342 135.842  0.00  0.00    +0.000 A 
BRANCH  37  46
ATOM     45  O   UNL     1     109.826 126.256 138.667  0.00  0.00    +0.000 OA
ATOM     46  C   UNL     1     111.503 127.930 137.952  0.00  0.00    +0.000 A 
ATOM     47  C   UNL     1     111.693 127.380 138.537  0.00  0.00    +0.000 A 
ATOM     48  C   UNL     1     110.755 127.922 137.605  0.00  0.00    +0.000 A 
ATOM     49  C   UNL     1     111.134 126.822 138.775  0.00  0.00    +0.000 A 
ATOM     50  C   UNL     1     110.196 127.364 137.844  0.00  0.00    +0.000 A 
ATOM     51  C   UNL     1     110.385 126.814 138.428  0.00  0.00    +0.000 A 
ENDBRANCH  37  46
ENDBRANCH  31  36
ENDBRANCH   8  31
BRANCH   7  52
ATOM     52  C   UNL     1     110.019 131.303 137.677  0.00  0.00    +0.000 C 
BRANCH  52  53
ATOM     53  O   UNL     1     109.534 130.808 137.230  0.00  0.00    +0.000 OA
BRANCH  53  58
ATOM     54  O   UNL     1     109.382 131.740 136.157  0.00  0.00    +0.000 OA
ATOM     55  O   UNL     1     108.042 130.186 136.901  0.00  0.00    +0.000 OA
ATOM     56  O   UNL     1     107.144 130.806 135.663  0.00  0.00    +0.000 OA
ATOM     57  O   UNL     1     107.738 132.049 134.755  0.00  0.00    +0.000 OA
ATOM     58  C   UNL     1     109.086 131.119 136.611  0.00  0.00    +0.000 C 
ATOM     59  C   UNL     1     108.340 130.808 136.446  0.00  0.00    +0.000 C 
ATOM     60  C   UNL     1     107.890 131.118 135.828  0.00  0.00    +0.000 C 
ATOM     61  C   UNL     1     108.188 131.739 135.374  0.00  0.00    +0.000 C 
ATOM     62  C   UNL     1     108.934 132.050 135.539  0.00  0.00    +0.000 C 
ATOM     63  C   UNL     1     109.230 132.672 135.084  0.00  0.00    +0.000 C 
ENDBRANCH  53  58
ENDBRANCH  52  53
ENDBRANCH   7  52
TORSDOF 11
ENDMDL
MODEL 9
REMARK VINA RESULT:     -10.7      1.640      3.047
REMARK  Name = 74978111
REMARK  11 active torsions:
REMARK  status: ('A' for Active; 'I' for Inactive)
REMARK    1  A    between atoms: O_1  and  C_27
REMARK    2  A    between atoms: O_1  and  C_28
REMARK    3  A    between atoms: O_3  and  C_25
REMARK    4  A    between atoms: O_3  and  C_35
REMARK    5  A    between atoms: O_9  and  C_34
REMARK    6  A    between atoms: O_9  and  C_48
REMARK    7  A    between atoms: O_10  and  C_40
REMARK    8  A    between atoms: O_10  and  C_42
REMARK    9  A    between atoms: C_33  and  C_40
REMARK   10  A    between atoms: C_39  and  C_47
REMARK   11  A    between atoms: C_50  and  C_53
REMARK                            x       y       z     vdW  Elec       q    Type
REMARK                         _______ _______ _______ _____ _____    ______ ____
ROOT
ATOM      1  O   UNL     1     112.111 129.030 140.053  0.00  0.00    +0.000 OA
ATOM      2  O   UNL     1     112.620 129.272 142.463  0.00  0.00    +0.000 OA
ATOM      3  O   UNL     1     112.755 127.797 141.735  0.00  0.00    +0.000 OA
ATOM      4  C   UNL     1     112.213 129.849 141.220  0.00  0.00    +0.000 C 
ATOM      5  C   UNL     1     112.451 129.191 141.660  0.00  0.00    +0.000 C 
ATOM      6  C   UNL     1     112.518 128.454 141.295  0.00  0.00    +0.000 C 
ATOM      7  C   UNL     1     112.348 128.374 140.492  0.00  0.00    +0.000 C 
ATOM      8  C   UNL     1     112.044 129.768 140.417  0.00  0.00    +0.000 C 
ENDROOT
BRANCH   4   9
ATOM      9  O   UNL     1     112.146 130.585 141.584  0.00  0.00    +0.000 OA
BRANCH   9  15
ATOM     10  O   UNL     1     110.860 130.232 142.097  0.00  0.00    +0.000 OA
ATOM     11  O   UNL     1     112.162 131.925 142.548  0.00  0.00    +0.000 OA
ATOM     12  O   UNL     1     109.589 131.217 143.573  0.00  0.00    +0.000 OA
ATOM     13  C   UNL     1     110.876 131.571 143.060  0.00  0.00    +0.000 C 
ATOM     14  C   UNL     1     111.515 131.413 142.563  0.00  0.00    +0.000 C 
ATOM     15  C   UNL     1     111.507 130.743 142.082  0.00  0.00    +0.000 C 
ATOM     16  C   UNL     1     110.228 131.059 143.076  0.00  0.00    +0.000 C 
ATOM     17  C   UNL     1     110.221 130.390 142.594  0.00  0.00    +0.000 C 
ATOM     18  C   UNL     1     109.574 129.878 142.610  0.00  0.00    +0.000 C 
BRANCH  13  19
ATOM     19  O   UNL     1     110.883 132.241 143.542  0.00  0.00    +0.000 OA
BRANCH  19  24
ATOM     20  O   UNL     1     111.556 131.501 144.562  0.00  0.00    +0.000 OA
ATOM     21  O   UNL     1     110.847 133.565 144.526  0.00  0.00    +0.000 OA
ATOM     22  O   UNL     1     111.501 133.487 146.039  0.00  0.00    +0.000 OA
ATOM     23  O   UNL     1     112.193 132.085 146.567  0.00  0.00    +0.000 OA
ATOM     24  C   UNL     1     111.211 132.202 144.298  0.00  0.00    +0.000 C 
ATOM     25  C   UNL     1     111.192 132.865 144.790  0.00  0.00    +0.000 C 
ATOM     26  C   UNL     1     111.519 132.826 145.546  0.00  0.00    +0.000 C 
ATOM     27  C   UNL     1     111.865 132.124 145.811  0.00  0.00    +0.000 C 
ATOM     28  C   UNL     1     111.883 131.463 145.319  0.00  0.00    +0.000 C 
BRANCH  28  30
ATOM     29  O   UNL     1     111.763 130.091 145.702  0.00  0.00    +0.000 OA
ATOM     30  C   UNL     1     112.229 130.761 145.583  0.00  0.00    +0.000 C 
ENDBRANCH  28  30
ENDBRANCH  19  24
ENDBRANCH  13  19
ENDBRANCH   9  15
ENDBRANCH   4   9
BRANCH   8  31
ATOM     31  O   UNL     1     111.807 130.425 139.978  0.00  0.00    +0.000 OA
BRANCH  31  36
ATOM     32  O   UNL     1     111.805 130.712 137.813  0.00  0.00    +0.000 OA
ATOM     33  O   UNL     1     113.426 130.437 139.664  0.00  0.00    +0.000 OA
ATOM     34  O   UNL     1     114.535 130.539 138.745  0.00  0.00    +0.000 OA
ATOM     35  O   UNL     1     113.991 130.927 135.902  0.00  0.00    +0.000 OA
ATOM     36  C   UNL     1     112.076 130.522 139.204  0.00  0.00    +0.000 A 
ATOM     37  C   UNL     1     111.535 130.614 138.587  0.00  0.00    +0.000 A 
ATOM     38  C   UNL     1     112.886 130.529 139.046  0.00  0.00    +0.000 A 
ATOM     39  C   UNL     1     113.155 130.627 138.273  0.00  0.00    +0.000 A 
ATOM     40  C   UNL     1     112.615 130.718 137.657  0.00  0.00    +0.000 A 
ATOM     41  C   UNL     1     114.001 130.631 138.122  0.00  0.00    +0.000 A 
ATOM     42  C   UNL     1     112.883 130.821 136.847  0.00  0.00    +0.000 A 
ATOM     43  C   UNL     1     114.288 130.733 137.319  0.00  0.00    +0.000 A 
ATOM     44  C   UNL     1     113.725 130.829 136.676  0.00  0.00    +0.000 A 
BRANCH  37  46
ATOM     45  O   UNL     1     108.296 130.592 139.219  0.00  0.00    +0.000 OA
ATOM     46  C   UNL     1     110.726 130.608 138.745  0.00  0.00    +0.000 A 
ATOM     47  C   UNL     1     110.353 131.293 139.017  0.00  0.00    +0.000 A 
ATOM     48  C   UNL     1     110.288 129.918 138.631  0.00  0.00    +0.000 A 
ATOM     49  C   UNL     1     109.544 131.287 139.174  0.00  0.00    +0.000 A 
ATOM     50  C   UNL     1     109.478 129.913 138.789  0.00  0.00    +0.000 A 
ATOM     51  C   UNL     1     109.106 130.597 139.060  0.00  0.00    +0.000 A 
ENDBRANCH  37  46
ENDBRANCH  31  36
ENDBRANCH   8  31
BRANCH   7  52
ATOM     52  C   UNL     1     112.416 127.636 140.128  0.00  0.00    +0.000 C 
BRANCH  52  53
ATOM     53  O   UNL     1     111.789 127.334 139.687  0.00  0.00    +0.000 OA
BRANCH  53  58
ATOM     54  O   UNL     1     112.501 126.991 138.496  0.00  0.00    +0.000 OA
ATOM     55  O   UNL     1     110.946 125.919 139.590  0.00  0.00    +0.000 OA
ATOM     56  O   UNL     1     111.236 124.868 138.352  0.00  0.00    +0.000 OA
ATOM     57  O   UNL     1     112.370 125.233 137.209  0.00  0.00    +0.000 OA
ATOM     58  C   UNL     1     111.934 126.809 139.067  0.00  0.00    +0.000 C 
ATOM     59  C   UNL     1     111.513 126.102 139.019  0.00  0.00    +0.000 C 
ATOM     60  C   UNL     1     111.658 125.576 138.400  0.00  0.00    +0.000 C 
ATOM     61  C   UNL     1     112.224 125.759 137.829  0.00  0.00    +0.000 C 
ATOM     62  C   UNL     1     112.646 126.466 137.877  0.00  0.00    +0.000 C 
ATOM     63  C   UNL     1     113.212 126.648 137.305  0.00  0.00    +0.000 C 
ENDBRANCH  53  58
ENDBRANCH  52  53
ENDBRANCH   7  52
TORSDOF 11
ENDMDL
MODEL 10
REMARK VINA RESULT:     -10.6      1.928      6.780
REMARK  Name = 74978111
REMARK  11 active torsions:
REMARK  status: ('A' for Active; 'I' for Inactive)
REMARK    1  A    between atoms: O_1  and  C_27
REMARK    2  A    between atoms: O_1  and  C_28
REMARK    3  A    between atoms: O_3  and  C_25
REMARK    4  A    between atoms: O_3  and  C_35
REMARK    5  A    between atoms: O_9  and  C_34
REMARK    6  A    between atoms: O_9  and  C_48
REMARK    7  A    between atoms: O_10  and  C_40
REMARK    8  A    between atoms: O_10  and  C_42
REMARK    9  A    between atoms: C_33  and  C_40
REMARK   10  A    between atoms: C_39  and  C_47
REMARK   11  A    between atoms: C_50  and  C_53
REMARK                            x       y       z     vdW  Elec       q    Type
REMARK                         _______ _______ _______ _____ _____    ______ ____
ROOT
ATOM      1  O   UNL     1     110.722 129.411 137.388  0.00  0.00    +0.000 OA
ATOM      2  O   UNL     1     109.049 127.590 137.288  0.00  0.00    +0.000 OA
ATOM      3  O   UNL     1     108.574 129.159 137.095  0.00  0.00    +0.000 OA
ATOM      4  C   UNL     1     110.403 128.020 137.451  0.00  0.00    +0.000 C 
ATOM      5  C   UNL     1     109.607 128.197 137.321  0.00  0.00    +0.000 C 
ATOM      6  C   UNL     1     109.370 128.982 137.225  0.00  0.00    +0.000 C 
ATOM      7  C   UNL     1     109.928 129.588 137.258  0.00  0.00    +0.000 C 
ATOM      8  C   UNL     1     110.961 128.627 137.484  0.00  0.00    +0.000 C 
ENDROOT
BRANCH   4   9
ATOM      9  O   UNL     1     110.639 127.236 137.547  0.00  0.00    +0.000 OA
BRANCH   9  15
ATOM     10  O   UNL     1     110.668 127.067 136.129  0.00  0.00    +0.000 OA
ATOM     11  O   UNL     1     111.007 125.639 137.744  0.00  0.00    +0.000 OA
ATOM     12  O   UNL     1     111.064 125.302 134.907  0.00  0.00    +0.000 OA
ATOM     13  C   UNL     1     111.036 125.471 136.326  0.00  0.00    +0.000 C 
ATOM     14  C   UNL     1     110.929 125.954 136.986  0.00  0.00    +0.000 C 
ATOM     15  C   UNL     1     110.746 126.752 136.887  0.00  0.00    +0.000 C 
ATOM     16  C   UNL     1     110.958 125.786 135.567  0.00  0.00    +0.000 C 
ATOM     17  C   UNL     1     110.775 126.584 135.469  0.00  0.00    +0.000 C 
ATOM     18  C   UNL     1     110.697 126.899 134.710  0.00  0.00    +0.000 C 
BRANCH  13  19
ATOM     19  O   UNL     1     111.219 124.673 136.424  0.00  0.00    +0.000 OA
BRANCH  19  24
ATOM     20  O   UNL     1     112.621 124.944 136.466  0.00  0.00    +0.000 OA
ATOM     21  O   UNL     1     111.476 123.228 137.180  0.00  0.00    +0.000 OA
ATOM     22  O   UNL     1     113.007 122.778 137.600  0.00  0.00    +0.000 OA
ATOM     23  O   UNL     1     114.281 123.772 137.265  0.00  0.00    +0.000 OA
ATOM     24  C   UNL     1     111.984 124.447 136.634  0.00  0.00    +0.000 C 
ATOM     25  C   UNL     1     112.112 123.725 137.012  0.00  0.00    +0.000 C 
ATOM     26  C   UNL     1     112.878 123.500 137.222  0.00  0.00    +0.000 C 
ATOM     27  C   UNL     1     113.515 123.997 137.054  0.00  0.00    +0.000 C 
ATOM     28  C   UNL     1     113.386 124.719 136.677  0.00  0.00    +0.000 C 
BRANCH  28  30
ATOM     29  O   UNL     1     114.348 125.228 135.750  0.00  0.00    +0.000 OA
ATOM     30  C   UNL     1     114.024 125.216 136.509  0.00  0.00    +0.000 C 
ENDBRANCH  28  30
ENDBRANCH  19  24
ENDBRANCH  13  19
ENDBRANCH   9  15
ENDBRANCH   4   9
BRANCH   8  31
ATOM     31  O   UNL     1     111.755 128.450 137.614  0.00  0.00    +0.000 OA
BRANCH  31  36
ATOM     32  O   UNL     1     113.316 129.759 138.398  0.00  0.00    +0.000 OA
ATOM     33  O   UNL     1     111.298 128.567 139.195  0.00  0.00    +0.000 OA
ATOM     34  O   UNL     1     111.492 129.073 140.532  0.00  0.00    +0.000 OA
ATOM     35  O   UNL     1     113.771 130.818 141.073  0.00  0.00    +0.000 OA
ATOM     36  C   UNL     1     112.199 128.906 138.139  0.00  0.00    +0.000 A 
ATOM     37  C   UNL     1     112.872 129.303 137.873  0.00  0.00    +0.000 A 
ATOM     38  C   UNL     1     111.971 128.965 138.929  0.00  0.00    +0.000 A 
ATOM     39  C   UNL     1     112.415 129.421 139.454  0.00  0.00    +0.000 A 
ATOM     40  C   UNL     1     113.087 129.818 139.189  0.00  0.00    +0.000 A 
ATOM     41  C   UNL     1     112.167 129.474 140.275  0.00  0.00    +0.000 A 
ATOM     42  C   UNL     1     113.557 130.295 139.726  0.00  0.00    +0.000 A 
ATOM     43  C   UNL     1     112.624 129.947 140.827  0.00  0.00    +0.000 A 
ATOM     44  C   UNL     1     113.325 130.361 140.550  0.00  0.00    +0.000 A 
BRANCH  37  46
ATOM     45  O   UNL     1     113.783 129.069 134.710  0.00  0.00    +0.000 OA
ATOM     46  C   UNL     1     113.100 129.244 137.083  0.00  0.00    +0.000 A 
ATOM     47  C   UNL     1     112.902 129.844 136.551  0.00  0.00    +0.000 A 
ATOM     48  C   UNL     1     113.525 128.587 136.823  0.00  0.00    +0.000 A 
ATOM     49  C   UNL     1     113.130 129.785 135.760  0.00  0.00    +0.000 A 
ATOM     50  C   UNL     1     113.753 128.529 136.032  0.00  0.00    +0.000 A 
ATOM     51  C   UNL     1     113.555 129.127 135.501  0.00  0.00    +0.000 A 
ENDBRANCH  37  46
ENDBRANCH  31  36
ENDBRANCH   8  31
BRANCH   7  52
ATOM     52  C   UNL     1     109.690 130.373 137.162  0.00  0.00    +0.000 C 
BRANCH  52  53
ATOM     53  O   UNL     1     109.843 130.926 137.753  0.00  0.00    +0.000 OA
BRANCH  53  58
ATOM     54  O   UNL     1     109.973 131.950 136.765  0.00  0.00    +0.000 OA
ATOM     55  O   UNL     1     110.128 132.036 138.940  0.00  0.00    +0.000 OA
ATOM     56  O   UNL     1     110.401 133.615 138.546  0.00  0.00    +0.000 OA
ATOM     57  O   UNL     1     110.388 134.084 136.964  0.00  0.00    +0.000 OA
ATOM     58  C   UNL     1     109.979 131.716 137.555  0.00  0.00    +0.000 C 
ATOM     59  C   UNL     1     110.122 132.271 138.149  0.00  0.00    +0.000 C 
ATOM     60  C   UNL     1     110.258 133.060 137.952  0.00  0.00    +0.000 C 
ATOM     61  C   UNL     1     110.251 133.294 137.161  0.00  0.00    +0.000 C 
ATOM     62  C   UNL     1     110.109 132.739 136.568  0.00  0.00    +0.000 C 
ATOM     63  C   UNL     1     110.102 132.974 135.777  0.00  0.00    +0.000 C 
ENDBRANCH  53  58
ENDBRANCH  52  53
ENDBRANCH   7  52
TORSDOF 11
ENDMDL
