MODEL 1
REMARK VINA RESULT:      -8.1      0.000      0.000
REMARK  Name = null
REMARK  3 active torsions:
REMARK  status: ('A' for Active; 'I' for Inactive)
REMARK    1  A    between atoms: O_2  and  C_3
REMARK    2  A    between atoms: C_6  and  C_9
REMARK    3  A    between atoms: C_10  and  O_20
REMARK                            x       y       z     vdW  Elec       q    Type
REMARK                         _______ _______ _______ _____ _____    ______ ____
ROOT
ATOM      1  C   UNL     1     105.399 124.683 147.117  0.00  0.00    +0.000 A 
ATOM      2  C   UNL     1     105.912 125.045 146.580  0.00  0.00    +0.000 A 
ATOM      3  C   UNL     1     106.696 125.187 146.791  0.00  0.00    +0.000 A 
ATOM      4  O   UNL     1     107.208 125.550 146.255  0.00  0.00    +0.000 OA
ATOM      5  C   UNL     1     106.969 124.967 147.537  0.00  0.00    +0.000 A 
ATOM      6  C   UNL     1     107.754 125.109 147.748  0.00  0.00    +0.000 A 
ATOM      7  C   UNL     1     108.027 124.889 148.495  0.00  0.00    +0.000 A 
ATOM      8  C   UNL     1     107.514 124.526 149.031  0.00  0.00    +0.000 A 
ATOM      9  C   UNL     1     106.730 124.384 148.820  0.00  0.00    +0.000 A 
ATOM     10  C   UNL     1     106.456 124.604 148.074  0.00  0.00    +0.000 A 
ATOM     11  O   UNL     1     105.672 124.463 147.863  0.00  0.00    +0.000 OA
ENDROOT
BRANCH   1  15
ATOM     12  C   UNL     1     103.044 124.259 146.483  0.00  0.00    +0.000 A 
ATOM     13  C   UNL     1     103.632 123.722 146.268  0.00  0.00    +0.000 A 
ATOM     14  C   UNL     1     104.416 123.863 146.479  0.00  0.00    +0.000 A 
ATOM     15  C   UNL     1     104.614 124.541 146.905  0.00  0.00    +0.000 A 
ATOM     16  C   UNL     1     104.026 125.078 147.121  0.00  0.00    +0.000 A 
ATOM     17  C   UNL     1     103.240 124.937 146.910  0.00  0.00    +0.000 A 
BRANCH  12  19
ATOM     18  C   UNL     1     101.663 124.183 146.837  0.00  0.00    +0.000 C 
ATOM     19  O   UNL     1     102.259 124.118 146.273  0.00  0.00    +0.000 OA
ENDBRANCH  12  19
ENDBRANCH   1  15
BRANCH   2  20
ATOM     20  O   UNL     1     105.638 125.266 145.833  0.00  0.00    +0.000 OA
ATOM     21  C   UNL     1     106.140 125.660 145.311  0.00  0.00    +0.000 C 
ENDBRANCH   2  20
TORSDOF 3
ENDMDL
MODEL 2
REMARK VINA RESULT:      -7.7     11.903     12.732
REMARK  Name = null
REMARK  3 active torsions:
REMARK  status: ('A' for Active; 'I' for Inactive)
REMARK    1  A    between atoms: O_2  and  C_3
REMARK    2  A    between atoms: C_6  and  C_9
REMARK    3  A    between atoms: C_10  and  O_20
REMARK                            x       y       z     vdW  Elec       q    Type
REMARK                         _______ _______ _______ _____ _____    ______ ____
ROOT
ATOM      1  C   UNL     1     112.060 125.303 136.358  0.00  0.00    +0.000 A 
ATOM      2  C   UNL     1     112.169 124.532 136.632  0.00  0.00    +0.000 A 
ATOM      3  C   UNL     1     112.923 124.272 136.842  0.00  0.00    +0.000 A 
ATOM      4  O   UNL     1     113.032 123.501 137.116  0.00  0.00    +0.000 OA
ATOM      5  C   UNL     1     113.568 124.781 136.779  0.00  0.00    +0.000 A 
ATOM      6  C   UNL     1     114.322 124.522 136.989  0.00  0.00    +0.000 A 
ATOM      7  C   UNL     1     114.967 125.031 136.925  0.00  0.00    +0.000 A 
ATOM      8  C   UNL     1     114.858 125.803 136.651  0.00  0.00    +0.000 A 
ATOM      9  C   UNL     1     114.105 126.063 136.441  0.00  0.00    +0.000 A 
ATOM     10  C   UNL     1     113.459 125.553 136.504  0.00  0.00    +0.000 A 
ATOM     11  O   UNL     1     112.705 125.813 136.294  0.00  0.00    +0.000 OA
ENDROOT
BRANCH   1  15
ATOM     12  C   UNL     1     109.797 126.082 135.726  0.00  0.00    +0.000 A 
ATOM     13  C   UNL     1     110.067 126.184 136.499  0.00  0.00    +0.000 A 
ATOM     14  C   UNL     1     110.821 125.924 136.710  0.00  0.00    +0.000 A 
ATOM     15  C   UNL     1     111.306 125.563 136.148  0.00  0.00    +0.000 A 
ATOM     16  C   UNL     1     111.036 125.462 135.375  0.00  0.00    +0.000 A 
ATOM     17  C   UNL     1     110.281 125.722 135.164  0.00  0.00    +0.000 A 
BRANCH  12  19
ATOM     18  C   UNL     1     108.756 127.056 135.808  0.00  0.00    +0.000 C 
ATOM     19  O   UNL     1     109.043 126.342 135.515  0.00  0.00    +0.000 OA
ENDBRANCH  12  19
ENDBRANCH   1  15
BRANCH   2  20
ATOM     20  O   UNL     1     111.523 124.022 136.696  0.00  0.00    +0.000 OA
ATOM     21  C   UNL     1     111.623 123.269 137.018  0.00  0.00    +0.000 C 
ENDBRANCH   2  20
TORSDOF 3
ENDMDL
MODEL 3
REMARK VINA RESULT:      -7.5     11.922     12.767
REMARK  Name = null
REMARK  3 active torsions:
REMARK  status: ('A' for Active; 'I' for Inactive)
REMARK    1  A    between atoms: O_2  and  C_3
REMARK    2  A    between atoms: C_6  and  C_9
REMARK    3  A    between atoms: C_10  and  O_20
REMARK                            x       y       z     vdW  Elec       q    Type
REMARK                         _______ _______ _______ _____ _____    ______ ____
ROOT
ATOM      1  C   UNL     1     112.042 125.959 136.327  0.00  0.00    +0.000 A 
ATOM      2  C   UNL     1     112.573 126.592 136.326  0.00  0.00    +0.000 A 
ATOM      3  C   UNL     1     113.361 126.470 136.534  0.00  0.00    +0.000 A 
ATOM      4  O   UNL     1     113.890 127.103 136.533  0.00  0.00    +0.000 OA
ATOM      5  C   UNL     1     113.620 125.716 136.743  0.00  0.00    +0.000 A 
ATOM      6  C   UNL     1     114.409 125.593 136.951  0.00  0.00    +0.000 A 
ATOM      7  C   UNL     1     114.669 124.839 137.159  0.00  0.00    +0.000 A 
ATOM      8  C   UNL     1     114.139 124.206 137.160  0.00  0.00    +0.000 A 
ATOM      9  C   UNL     1     113.351 124.328 136.952  0.00  0.00    +0.000 A 
ATOM     10  C   UNL     1     113.090 125.083 136.743  0.00  0.00    +0.000 A 
ATOM     11  O   UNL     1     112.302 125.205 136.536  0.00  0.00    +0.000 OA
ENDROOT
BRANCH   1  15
ATOM     12  C   UNL     1     109.675 126.327 135.704  0.00  0.00    +0.000 A 
ATOM     13  C   UNL     1     110.230 126.137 135.123  0.00  0.00    +0.000 A 
ATOM     14  C   UNL     1     111.018 126.015 135.331  0.00  0.00    +0.000 A 
ATOM     15  C   UNL     1     111.253 126.082 136.119  0.00  0.00    +0.000 A 
ATOM     16  C   UNL     1     110.699 126.271 136.700  0.00  0.00    +0.000 A 
ATOM     17  C   UNL     1     109.909 126.394 136.492  0.00  0.00    +0.000 A 
BRANCH  12  19
ATOM     18  C   UNL     1     108.515 127.160 135.692  0.00  0.00    +0.000 C 
ATOM     19  O   UNL     1     108.886 126.450 135.497  0.00  0.00    +0.000 OA
ENDBRANCH  12  19
ENDBRANCH   1  15
BRANCH   2  20
ATOM     20  O   UNL     1     112.312 127.347 136.118  0.00  0.00    +0.000 OA
ATOM     21  C   UNL     1     112.832 127.987 136.153  0.00  0.00    +0.000 C 
ENDBRANCH   2  20
TORSDOF 3
ENDMDL
MODEL 4
REMARK VINA RESULT:      -7.5     11.250     12.725
REMARK  Name = null
REMARK  3 active torsions:
REMARK  status: ('A' for Active; 'I' for Inactive)
REMARK    1  A    between atoms: O_2  and  C_3
REMARK    2  A    between atoms: C_6  and  C_9
REMARK    3  A    between atoms: C_10  and  O_20
REMARK                            x       y       z     vdW  Elec       q    Type
REMARK                         _______ _______ _______ _____ _____    ______ ____
ROOT
ATOM      1  C   UNL     1     111.979 125.910 136.949  0.00  0.00    +0.000 A 
ATOM      2  C   UNL     1     111.832 125.129 136.722  0.00  0.00    +0.000 A 
ATOM      3  C   UNL     1     111.337 124.973 136.082  0.00  0.00    +0.000 A 
ATOM      4  O   UNL     1     111.191 124.193 135.855  0.00  0.00    +0.000 OA
ATOM      5  C   UNL     1     110.989 125.595 135.668  0.00  0.00    +0.000 A 
ATOM      6  C   UNL     1     110.494 125.439 135.026  0.00  0.00    +0.000 A 
ATOM      7  C   UNL     1     110.146 126.061 134.613  0.00  0.00    +0.000 A 
ATOM      8  C   UNL     1     110.292 126.841 134.840  0.00  0.00    +0.000 A 
ATOM      9  C   UNL     1     110.787 126.998 135.480  0.00  0.00    +0.000 A 
ATOM     10  C   UNL     1     111.136 126.375 135.895  0.00  0.00    +0.000 A 
ATOM     11  O   UNL     1     111.631 126.532 136.535  0.00  0.00    +0.000 OA
ENDROOT
BRANCH   1  15
ATOM     12  C   UNL     1     113.464 126.378 138.874  0.00  0.00    +0.000 A 
ATOM     13  C   UNL     1     113.785 126.274 138.121  0.00  0.00    +0.000 A 
ATOM     14  C   UNL     1     113.290 126.118 137.480  0.00  0.00    +0.000 A 
ATOM     15  C   UNL     1     112.474 126.066 137.591  0.00  0.00    +0.000 A 
ATOM     16  C   UNL     1     112.153 126.169 138.343  0.00  0.00    +0.000 A 
ATOM     17  C   UNL     1     112.648 126.325 138.986  0.00  0.00    +0.000 A 
BRANCH  12  19
ATOM     18  C   UNL     1     113.713 127.052 140.108  0.00  0.00    +0.000 C 
ATOM     19  O   UNL     1     113.958 126.534 139.515  0.00  0.00    +0.000 OA
ENDBRANCH  12  19
ENDBRANCH   1  15
BRANCH   2  20
ATOM     20  O   UNL     1     112.181 124.507 137.137  0.00  0.00    +0.000 OA
ATOM     21  C   UNL     1     112.034 123.727 136.910  0.00  0.00    +0.000 C 
ENDBRANCH   2  20
TORSDOF 3
ENDMDL
MODEL 5
REMARK VINA RESULT:      -7.4     12.979     13.793
REMARK  Name = null
REMARK  3 active torsions:
REMARK  status: ('A' for Active; 'I' for Inactive)
REMARK    1  A    between atoms: O_2  and  C_3
REMARK    2  A    between atoms: C_6  and  C_9
REMARK    3  A    between atoms: C_10  and  O_20
REMARK                            x       y       z     vdW  Elec       q    Type
REMARK                         _______ _______ _______ _____ _____    ______ ____
ROOT
ATOM      1  C   UNL     1     113.346 127.103 136.538  0.00  0.00    +0.000 A 
ATOM      2  C   UNL     1     112.638 126.747 136.304  0.00  0.00    +0.000 A 
ATOM      3  C   UNL     1     112.546 125.931 136.369  0.00  0.00    +0.000 A 
ATOM      4  O   UNL     1     111.838 125.576 136.136  0.00  0.00    +0.000 OA
ATOM      5  C   UNL     1     113.160 125.469 136.668  0.00  0.00    +0.000 A 
ATOM      6  C   UNL     1     113.068 124.651 136.733  0.00  0.00    +0.000 A 
ATOM      7  C   UNL     1     113.682 124.189 137.031  0.00  0.00    +0.000 A 
ATOM      8  C   UNL     1     114.390 124.545 137.265  0.00  0.00    +0.000 A 
ATOM      9  C   UNL     1     114.482 125.361 137.200  0.00  0.00    +0.000 A 
ATOM     10  C   UNL     1     113.868 125.824 136.901  0.00  0.00    +0.000 A 
ATOM     11  O   UNL     1     113.960 126.641 136.836  0.00  0.00    +0.000 OA
ENDROOT
BRANCH   1  15
ATOM     12  C   UNL     1     113.622 129.555 136.340  0.00  0.00    +0.000 A 
ATOM     13  C   UNL     1     113.290 129.231 137.022  0.00  0.00    +0.000 A 
ATOM     14  C   UNL     1     113.198 128.414 137.088  0.00  0.00    +0.000 A 
ATOM     15  C   UNL     1     113.438 127.920 136.472  0.00  0.00    +0.000 A 
ATOM     16  C   UNL     1     113.770 128.244 135.790  0.00  0.00    +0.000 A 
ATOM     17  C   UNL     1     113.863 129.062 135.724  0.00  0.00    +0.000 A 
BRANCH  12  19
ATOM     18  C   UNL     1     114.365 130.743 136.617  0.00  0.00    +0.000 C 
ATOM     19  O   UNL     1     113.715 130.372 136.273  0.00  0.00    +0.000 OA
ENDBRANCH  12  19
ENDBRANCH   1  15
BRANCH   2  20
ATOM     20  O   UNL     1     112.023 127.210 136.006  0.00  0.00    +0.000 OA
ATOM     21  C   UNL     1     111.336 126.851 135.724  0.00  0.00    +0.000 C 
ENDBRANCH   2  20
TORSDOF 3
ENDMDL
MODEL 6
REMARK VINA RESULT:      -7.4      1.268      2.716
REMARK  Name = null
REMARK  3 active torsions:
REMARK  status: ('A' for Active; 'I' for Inactive)
REMARK    1  A    between atoms: O_2  and  C_3
REMARK    2  A    between atoms: C_6  and  C_9
REMARK    3  A    between atoms: C_10  and  O_20
REMARK                            x       y       z     vdW  Elec       q    Type
REMARK                         _______ _______ _______ _____ _____    ______ ____
ROOT
ATOM      1  C   UNL     1     106.242 125.199 146.882  0.00  0.00    +0.000 A 
ATOM      2  C   UNL     1     105.637 124.969 147.395  0.00  0.00    +0.000 A 
ATOM      3  C   UNL     1     105.819 124.714 148.157  0.00  0.00    +0.000 A 
ATOM      4  O   UNL     1     105.215 124.484 148.670  0.00  0.00    +0.000 OA
ATOM      5  C   UNL     1     106.604 124.688 148.408  0.00  0.00    +0.000 A 
ATOM      6  C   UNL     1     106.786 124.432 149.171  0.00  0.00    +0.000 A 
ATOM      7  C   UNL     1     107.571 124.407 149.421  0.00  0.00    +0.000 A 
ATOM      8  C   UNL     1     108.176 124.637 148.908  0.00  0.00    +0.000 A 
ATOM      9  C   UNL     1     107.994 124.892 148.145  0.00  0.00    +0.000 A 
ATOM     10  C   UNL     1     107.209 124.918 147.894  0.00  0.00    +0.000 A 
ATOM     11  O   UNL     1     107.027 125.174 147.132  0.00  0.00    +0.000 OA
ENDROOT
BRANCH   1  15
ATOM     12  C   UNL     1     105.695 125.965 144.592  0.00  0.00    +0.000 A 
ATOM     13  C   UNL     1     105.757 126.512 145.206  0.00  0.00    +0.000 A 
ATOM     14  C   UNL     1     105.939 126.258 145.968  0.00  0.00    +0.000 A 
ATOM     15  C   UNL     1     106.060 125.455 146.118  0.00  0.00    +0.000 A 
ATOM     16  C   UNL     1     105.998 124.908 145.504  0.00  0.00    +0.000 A 
ATOM     17  C   UNL     1     105.815 125.163 144.740  0.00  0.00    +0.000 A 
BRANCH  12  19
ATOM     18  C   UNL     1     106.115 126.452 143.317  0.00  0.00    +0.000 C 
ATOM     19  O   UNL     1     105.513 126.219 143.829  0.00  0.00    +0.000 OA
ENDBRANCH  12  19
ENDBRANCH   1  15
BRANCH   2  20
ATOM     20  O   UNL     1     104.851 124.995 147.144  0.00  0.00    +0.000 OA
ATOM     21  C   UNL     1     104.249 124.749 147.650  0.00  0.00    +0.000 C 
ENDBRANCH   2  20
TORSDOF 3
ENDMDL
MODEL 7
REMARK VINA RESULT:      -7.4      7.215      8.546
REMARK  Name = null
REMARK  3 active torsions:
REMARK  status: ('A' for Active; 'I' for Inactive)
REMARK    1  A    between atoms: O_2  and  C_3
REMARK    2  A    between atoms: C_6  and  C_9
REMARK    3  A    between atoms: C_10  and  O_20
REMARK                            x       y       z     vdW  Elec       q    Type
REMARK                         _______ _______ _______ _____ _____    ______ ____
ROOT
ATOM      1  C   UNL     1     102.882 130.391 141.706  0.00  0.00    +0.000 A 
ATOM      2  C   UNL     1     102.879 129.889 141.050  0.00  0.00    +0.000 A 
ATOM      3  C   UNL     1     103.353 129.215 141.044  0.00  0.00    +0.000 A 
ATOM      4  O   UNL     1     103.350 128.714 140.388  0.00  0.00    +0.000 OA
ATOM      5  C   UNL     1     103.830 129.041 141.694  0.00  0.00    +0.000 A 
ATOM      6  C   UNL     1     104.305 128.366 141.688  0.00  0.00    +0.000 A 
ATOM      7  C   UNL     1     104.782 128.191 142.338  0.00  0.00    +0.000 A 
ATOM      8  C   UNL     1     104.784 128.692 142.994  0.00  0.00    +0.000 A 
ATOM      9  C   UNL     1     104.310 129.367 143.000  0.00  0.00    +0.000 A 
ATOM     10  C   UNL     1     103.833 129.542 142.350  0.00  0.00    +0.000 A 
ATOM     11  O   UNL     1     103.359 130.216 142.356  0.00  0.00    +0.000 OA
ENDROOT
BRANCH   1  15
ATOM     12  C   UNL     1     101.457 132.414 141.722  0.00  0.00    +0.000 A 
ATOM     13  C   UNL     1     102.224 132.453 141.421  0.00  0.00    +0.000 A 
ATOM     14  C   UNL     1     102.699 131.779 141.415  0.00  0.00    +0.000 A 
ATOM     15  C   UNL     1     102.407 131.065 141.711  0.00  0.00    +0.000 A 
ATOM     16  C   UNL     1     101.640 131.027 142.013  0.00  0.00    +0.000 A 
ATOM     17  C   UNL     1     101.165 131.702 142.018  0.00  0.00    +0.000 A 
BRANCH  12  19
ATOM     18  C   UNL     1     101.325 133.835 141.781  0.00  0.00    +0.000 C 
ATOM     19  O   UNL     1     100.981 133.088 141.728  0.00  0.00    +0.000 OA
ENDBRANCH  12  19
ENDBRANCH   1  15
BRANCH   2  20
ATOM     20  O   UNL     1     102.402 130.064 140.400  0.00  0.00    +0.000 OA
ATOM     21  C   UNL     1     102.255 129.487 139.829  0.00  0.00    +0.000 C 
ENDBRANCH   2  20
TORSDOF 3
ENDMDL
MODEL 8
REMARK VINA RESULT:      -7.4     10.304     11.941
REMARK  Name = null
REMARK  3 active torsions:
REMARK  status: ('A' for Active; 'I' for Inactive)
REMARK    1  A    between atoms: O_2  and  C_3
REMARK    2  A    between atoms: C_6  and  C_9
REMARK    3  A    between atoms: C_10  and  O_20
REMARK                            x       y       z     vdW  Elec       q    Type
REMARK                         _______ _______ _______ _____ _____    ______ ____
ROOT
ATOM      1  C   UNL     1     113.297 126.432 138.880  0.00  0.00    +0.000 A 
ATOM      2  C   UNL     1     112.545 126.148 138.690  0.00  0.00    +0.000 A 
ATOM      3  C   UNL     1     112.458 125.568 138.111  0.00  0.00    +0.000 A 
ATOM      4  O   UNL     1     111.707 125.284 137.921  0.00  0.00    +0.000 OA
ATOM      5  C   UNL     1     113.122 125.270 137.722  0.00  0.00    +0.000 A 
ATOM      6  C   UNL     1     113.035 124.689 137.143  0.00  0.00    +0.000 A 
ATOM      7  C   UNL     1     113.698 124.392 136.754  0.00  0.00    +0.000 A 
ATOM      8  C   UNL     1     114.450 124.676 136.944  0.00  0.00    +0.000 A 
ATOM      9  C   UNL     1     114.537 125.256 137.523  0.00  0.00    +0.000 A 
ATOM     10  C   UNL     1     113.874 125.554 137.912  0.00  0.00    +0.000 A 
ATOM     11  O   UNL     1     113.961 126.135 138.491  0.00  0.00    +0.000 OA
ENDROOT
BRANCH   1  15
ATOM     12  C   UNL     1     113.557 128.174 140.619  0.00  0.00    +0.000 A 
ATOM     13  C   UNL     1     113.407 128.391 139.837  0.00  0.00    +0.000 A 
ATOM     14  C   UNL     1     113.321 127.811 139.258  0.00  0.00    +0.000 A 
ATOM     15  C   UNL     1     113.384 127.013 139.459  0.00  0.00    +0.000 A 
ATOM     16  C   UNL     1     113.534 126.796 140.241  0.00  0.00    +0.000 A 
ATOM     17  C   UNL     1     113.621 127.377 140.822  0.00  0.00    +0.000 A 
BRANCH  12  19
ATOM     18  C   UNL     1     113.005 129.231 141.404  0.00  0.00    +0.000 C 
ATOM     19  O   UNL     1     113.644 128.754 141.199  0.00  0.00    +0.000 OA
ENDBRANCH  12  19
ENDBRANCH   1  15
BRANCH   2  20
ATOM     20  O   UNL     1     111.882 126.446 139.080  0.00  0.00    +0.000 OA
ATOM     21  C   UNL     1     111.142 126.103 138.955  0.00  0.00    +0.000 C 
ENDBRANCH   2  20
TORSDOF 3
ENDMDL
MODEL 9
REMARK VINA RESULT:      -7.3      0.974      4.100
REMARK  Name = null
REMARK  3 active torsions:
REMARK  status: ('A' for Active; 'I' for Inactive)
REMARK    1  A    between atoms: O_2  and  C_3
REMARK    2  A    between atoms: C_6  and  C_9
REMARK    3  A    between atoms: C_10  and  O_20
REMARK                            x       y       z     vdW  Elec       q    Type
REMARK                         _______ _______ _______ _____ _____    ______ ____
ROOT
ATOM      1  C   UNL     1     104.688 124.512 146.898  0.00  0.00    +0.000 A 
ATOM      2  C   UNL     1     104.081 124.937 147.264  0.00  0.00    +0.000 A 
ATOM      3  C   UNL     1     103.296 124.706 147.161  0.00  0.00    +0.000 A 
ATOM      4  O   UNL     1     102.690 125.131 147.526  0.00  0.00    +0.000 OA
ATOM      5  C   UNL     1     103.117 124.052 146.692  0.00  0.00    +0.000 A 
ATOM      6  C   UNL     1     102.331 123.821 146.589  0.00  0.00    +0.000 A 
ATOM      7  C   UNL     1     102.152 123.167 146.120  0.00  0.00    +0.000 A 
ATOM      8  C   UNL     1     102.758 122.742 145.754  0.00  0.00    +0.000 A 
ATOM      9  C   UNL     1     103.543 122.972 145.858  0.00  0.00    +0.000 A 
ATOM     10  C   UNL     1     103.723 123.627 146.327  0.00  0.00    +0.000 A 
ATOM     11  O   UNL     1     104.508 123.857 146.430  0.00  0.00    +0.000 OA
ENDROOT
BRANCH   1  15
ATOM     12  C   UNL     1     107.044 125.204 147.211  0.00  0.00    +0.000 A 
ATOM     13  C   UNL     1     106.634 125.430 146.531  0.00  0.00    +0.000 A 
ATOM     14  C   UNL     1     105.849 125.199 146.427  0.00  0.00    +0.000 A 
ATOM     15  C   UNL     1     105.473 124.743 147.002  0.00  0.00    +0.000 A 
ATOM     16  C   UNL     1     105.883 124.516 147.682  0.00  0.00    +0.000 A 
ATOM     17  C   UNL     1     106.668 124.747 147.786  0.00  0.00    +0.000 A 
BRANCH  12  19
ATOM     18  C   UNL     1     108.288 125.080 147.901  0.00  0.00    +0.000 C 
ATOM     19  O   UNL     1     107.829 125.434 147.316  0.00  0.00    +0.000 OA
ENDBRANCH  12  19
ENDBRANCH   1  15
BRANCH   2  20
ATOM     20  O   UNL     1     104.261 125.591 147.733  0.00  0.00    +0.000 OA
ATOM     21  C   UNL     1     103.654 126.032 148.076  0.00  0.00    +0.000 C 
ENDBRANCH   2  20
TORSDOF 3
ENDMDL
MODEL 10
REMARK VINA RESULT:      -7.2     11.833     13.629
REMARK  Name = null
REMARK  3 active torsions:
REMARK  status: ('A' for Active; 'I' for Inactive)
REMARK    1  A    between atoms: O_2  and  C_3
REMARK    2  A    between atoms: C_6  and  C_9
REMARK    3  A    between atoms: C_10  and  O_20
REMARK                            x       y       z     vdW  Elec       q    Type
REMARK                         _______ _______ _______ _____ _____    ______ ____
ROOT
ATOM      1  C   UNL     1     113.428 127.206 136.624  0.00  0.00    +0.000 A 
ATOM      2  C   UNL     1     113.129 127.670 137.238  0.00  0.00    +0.000 A 
ATOM      3  C   UNL     1     113.225 128.488 137.222  0.00  0.00    +0.000 A 
ATOM      4  O   UNL     1     112.926 128.952 137.835  0.00  0.00    +0.000 OA
ATOM      5  C   UNL     1     113.621 128.844 136.592  0.00  0.00    +0.000 A 
ATOM      6  C   UNL     1     113.718 129.664 136.575  0.00  0.00    +0.000 A 
ATOM      7  C   UNL     1     114.114 130.019 135.945  0.00  0.00    +0.000 A 
ATOM      8  C   UNL     1     114.413 129.555 135.331  0.00  0.00    +0.000 A 
ATOM      9  C   UNL     1     114.316 128.737 135.347  0.00  0.00    +0.000 A 
ATOM     10  C   UNL     1     113.920 128.380 135.978  0.00  0.00    +0.000 A 
ATOM     11  O   UNL     1     113.824 127.562 135.994  0.00  0.00    +0.000 OA
ENDROOT
BRANCH   1  15
ATOM     12  C   UNL     1     113.138 124.749 136.676  0.00  0.00    +0.000 A 
ATOM     13  C   UNL     1     112.544 125.227 136.361  0.00  0.00    +0.000 A 
ATOM     14  C   UNL     1     112.641 126.046 136.344  0.00  0.00    +0.000 A 
ATOM     15  C   UNL     1     113.331 126.387 136.641  0.00  0.00    +0.000 A 
ATOM     16  C   UNL     1     113.924 125.908 136.956  0.00  0.00    +0.000 A 
ATOM     17  C   UNL     1     113.828 125.088 136.974  0.00  0.00    +0.000 A 
BRANCH  12  19
ATOM     18  C   UNL     1     112.319 123.604 136.917  0.00  0.00    +0.000 C 
ATOM     19  O   UNL     1     113.042 123.929 136.694  0.00  0.00    +0.000 OA
ENDBRANCH  12  19
ENDBRANCH   1  15
BRANCH   2  20
ATOM     20  O   UNL     1     112.733 127.313 137.869  0.00  0.00    +0.000 OA
ATOM     21  C   UNL     1     112.500 127.766 138.518  0.00  0.00    +0.000 C 
ENDBRANCH   2  20
TORSDOF 3
ENDMDL
