MODEL 1
REMARK VINA RESULT:     -10.1      0.000      0.000
REMARK  Name = 14757905
REMARK  14 active torsions:
REMARK  status: ('A' for Active; 'I' for Inactive)
REMARK    1  A    between atoms: O_2  and  C_26
REMARK    2  A    between atoms: O_2  and  C_30
REMARK    3  A    between atoms: O_4  and  C_22
REMARK    4  A    between atoms: O_4  and  C_34
REMARK    5  A    between atoms: O_6  and  C_29
REMARK    6  A    between atoms: O_6  and  C_33
REMARK    7  A    between atoms: O_16  and  C_49
REMARK    8  A    between atoms: O_18  and  C_54
REMARK    9  A    between atoms: O_19  and  C_55
REMARK   10  A    between atoms: C_21  and  C_30
REMARK   11  A    between atoms: C_31  and  C_32
REMARK   12  A    between atoms: C_34  and  C_37
REMARK   13  A    between atoms: C_35  and  C_39
REMARK   14  A    between atoms: C_41  and  C_48
REMARK                            x       y       z     vdW  Elec       q    Type
REMARK                         _______ _______ _______ _____ _____    ______ ____
ROOT
ATOM      1  O   UNL     1     110.549 130.120 138.992  0.00  0.00    +0.000 OA
ATOM      2  O   UNL     1     110.323 132.193 140.327  0.00  0.00    +0.000 OA
ATOM      3  O   UNL     1     110.275 132.263 138.679  0.00  0.00    +0.000 OA
ATOM      4  C   UNL     1     110.573 130.085 139.816  0.00  0.00    +0.000 C 
ATOM      5  C   UNL     1     110.498 130.776 140.261  0.00  0.00    +0.000 C 
ATOM      6  C   UNL     1     110.399 131.502 139.882  0.00  0.00    +0.000 C 
ATOM      7  C   UNL     1     110.375 131.537 139.058  0.00  0.00    +0.000 C 
ATOM      8  C   UNL     1     110.450 130.847 138.614  0.00  0.00    +0.000 C 
ENDROOT
BRANCH   5   9
ATOM      9  O   UNL     1     110.522 130.741 141.085  0.00  0.00    +0.000 OA
BRANCH   9  11
ATOM     10  O   UNL     1     111.927 130.998 141.078  0.00  0.00    +0.000 OA
ATOM     11  C   UNL     1     111.212 130.945 141.487  0.00  0.00    +0.000 C 
BRANCH  11  12
ATOM     12  C   UNL     1     111.189 131.095 142.297  0.00  0.00    +0.000 C 
ATOM     13  C   UNL     1     111.865 130.983 142.758  0.00  0.00    +0.000 C 
BRANCH  13  15
ATOM     14  O   UNL     1     111.772 131.586 146.001  0.00  0.00    +0.000 OA
ATOM     15  C   UNL     1     111.842 131.134 143.569  0.00  0.00    +0.000 A 
ATOM     16  C   UNL     1     111.695 130.518 144.098  0.00  0.00    +0.000 A 
ATOM     17  C   UNL     1     111.965 131.899 143.849  0.00  0.00    +0.000 A 
ATOM     18  C   UNL     1     111.942 132.050 144.660  0.00  0.00    +0.000 A 
ATOM     19  C   UNL     1     111.672 130.669 144.909  0.00  0.00    +0.000 A 
ATOM     20  C   UNL     1     111.795 131.435 145.190  0.00  0.00    +0.000 A 
BRANCH  18  21
ATOM     21  O   UNL     1     112.065 132.816 144.941  0.00  0.00    +0.000 OA
ATOM     22  C   UNL     1     112.685 133.270 144.642  0.00  0.00    +0.000 C 
ENDBRANCH  18  21
BRANCH  19  23
ATOM     23  O   UNL     1     111.526 130.054 145.439  0.00  0.00    +0.000 OA
ATOM     24  C   UNL     1     111.696 129.275 145.226  0.00  0.00    +0.000 C 
ENDBRANCH  19  23
ENDBRANCH  13  15
ENDBRANCH  11  12
ENDBRANCH   9  11
ENDBRANCH   5   9
BRANCH   8  25
ATOM     25  O   UNL     1     110.426 130.882 137.790  0.00  0.00    +0.000 OA
BRANCH  25  29
ATOM     26  O   UNL     1     111.599 129.953 136.200  0.00  0.00    +0.000 OA
ATOM     27  O   UNL     1     113.392 131.102 138.153  0.00  0.00    +0.000 OA
ATOM     28  O   UNL     1     114.478 129.733 135.813  0.00  0.00    +0.000 OA
ATOM     29  C   UNL     1     111.073 130.624 137.346  0.00  0.00    +0.000 A 
ATOM     30  C   UNL     1     110.953 130.211 136.642  0.00  0.00    +0.000 A 
ATOM     31  C   UNL     1     111.840 130.779 137.608  0.00  0.00    +0.000 A 
ATOM     32  C   UNL     1     112.487 130.521 137.165  0.00  0.00    +0.000 A 
ATOM     33  C   UNL     1     112.366 130.108 136.461  0.00  0.00    +0.000 A 
ATOM     34  C   UNL     1     113.280 130.688 137.448  0.00  0.00    +0.000 A 
ATOM     35  C   UNL     1     113.031 129.834 135.991  0.00  0.00    +0.000 A 
ATOM     36  C   UNL     1     113.958 130.422 136.991  0.00  0.00    +0.000 A 
ATOM     37  C   UNL     1     113.833 129.992 136.258  0.00  0.00    +0.000 A 
BRANCH  30  39
ATOM     38  O   UNL     1     107.883 129.595 135.598  0.00  0.00    +0.000 OA
ATOM     39  C   UNL     1     110.185 130.056 136.382  0.00  0.00    +0.000 A 
ATOM     40  C   UNL     1     109.843 129.319 136.519  0.00  0.00    +0.000 A 
ATOM     41  C   UNL     1     109.760 130.640 135.983  0.00  0.00    +0.000 A 
ATOM     42  C   UNL     1     109.076 129.164 136.258  0.00  0.00    +0.000 A 
ATOM     43  C   UNL     1     108.993 130.487 135.722  0.00  0.00    +0.000 A 
ATOM     44  C   UNL     1     108.651 129.748 135.860  0.00  0.00    +0.000 A 
BRANCH  42  45
ATOM     45  O   UNL     1     108.734 128.427 136.395  0.00  0.00    +0.000 OA
ATOM     46  C   UNL     1     109.206 127.751 136.423  0.00  0.00    +0.000 C 
ENDBRANCH  42  45
ENDBRANCH  30  39
ENDBRANCH  25  29
ENDBRANCH   8  25
BRANCH   4  47
ATOM     47  C   UNL     1     110.672 129.359 140.196  0.00  0.00    +0.000 C 
BRANCH  47  48
ATOM     48  O   UNL     1     110.319 128.680 139.888  0.00  0.00    +0.000 OA
BRANCH  48  54
ATOM     49  O   UNL     1     111.192 127.772 140.562  0.00  0.00    +0.000 OA
ATOM     50  O   UNL     1     109.100 127.572 139.971  0.00  0.00    +0.000 OA
ATOM     51  O   UNL     1     109.363 126.108 140.687  0.00  0.00    +0.000 OA
ATOM     52  O   UNL     1     110.846 125.754 141.319  0.00  0.00    +0.000 OA
ATOM     53  C   UNL     1     109.842 127.394 140.288  0.00  0.00    +0.000 C 
ATOM     54  C   UNL     1     110.452 127.949 140.246  0.00  0.00    +0.000 C 
ATOM     55  C   UNL     1     109.973 126.663 140.645  0.00  0.00    +0.000 C 
ATOM     56  C   UNL     1     110.714 126.486 140.961  0.00  0.00    +0.000 C 
ATOM     57  C   UNL     1     111.324 127.041 140.920  0.00  0.00    +0.000 C 
BRANCH  57  59
ATOM     58  O   UNL     1     112.524 127.461 141.571  0.00  0.00    +0.000 OA
ATOM     59  C   UNL     1     112.065 126.863 141.236  0.00  0.00    +0.000 C 
ENDBRANCH  57  59
ENDBRANCH  48  54
ENDBRANCH  47  48
ENDBRANCH   4  47
TORSDOF 14
ENDMDL
MODEL 2
REMARK VINA RESULT:     -10.1      2.741      6.105
REMARK  Name = 14757905
REMARK  14 active torsions:
REMARK  status: ('A' for Active; 'I' for Inactive)
REMARK    1  A    between atoms: O_2  and  C_26
REMARK    2  A    between atoms: O_2  and  C_30
REMARK    3  A    between atoms: O_4  and  C_22
REMARK    4  A    between atoms: O_4  and  C_34
REMARK    5  A    between atoms: O_6  and  C_29
REMARK    6  A    between atoms: O_6  and  C_33
REMARK    7  A    between atoms: O_16  and  C_49
REMARK    8  A    between atoms: O_18  and  C_54
REMARK    9  A    between atoms: O_19  and  C_55
REMARK   10  A    between atoms: C_21  and  C_30
REMARK   11  A    between atoms: C_31  and  C_32
REMARK   12  A    between atoms: C_34  and  C_37
REMARK   13  A    between atoms: C_35  and  C_39
REMARK   14  A    between atoms: C_41  and  C_48
REMARK                            x       y       z     vdW  Elec       q    Type
REMARK                         _______ _______ _______ _____ _____    ______ ____
ROOT
ATOM      1  O   UNL     1     110.971 127.533 136.852  0.00  0.00    +0.000 OA
ATOM      2  O   UNL     1     108.785 127.923 135.758  0.00  0.00    +0.000 OA
ATOM      3  O   UNL     1     109.064 126.510 136.564  0.00  0.00    +0.000 OA
ATOM      4  C   UNL     1     110.832 128.239 136.450  0.00  0.00    +0.000 C 
ATOM      5  C   UNL     1     110.103 128.369 136.085  0.00  0.00    +0.000 C 
ATOM      6  C   UNL     1     109.514 127.793 136.123  0.00  0.00    +0.000 C 
ATOM      7  C   UNL     1     109.654 127.087 136.526  0.00  0.00    +0.000 C 
ATOM      8  C   UNL     1     110.382 126.957 136.890  0.00  0.00    +0.000 C 
ENDROOT
BRANCH   5   9
ATOM      9  O   UNL     1     109.963 129.076 135.682  0.00  0.00    +0.000 OA
BRANCH   9  11
ATOM     10  O   UNL     1     108.619 129.558 135.725  0.00  0.00    +0.000 OA
ATOM     11  C   UNL     1     109.406 129.611 135.969  0.00  0.00    +0.000 C 
BRANCH  11  12
ATOM     12  C   UNL     1     109.634 130.199 136.501  0.00  0.00    +0.000 C 
ATOM     13  C   UNL     1     109.243 130.926 136.505  0.00  0.00    +0.000 C 
BRANCH  13  15
ATOM     14  O   UNL     1     110.156 133.279 138.631  0.00  0.00    +0.000 OA
ATOM     15  C   UNL     1     109.471 131.514 137.036  0.00  0.00    +0.000 A 
ATOM     16  C   UNL     1     109.337 131.414 137.844  0.00  0.00    +0.000 A 
ATOM     17  C   UNL     1     109.833 132.202 136.760  0.00  0.00    +0.000 A 
ATOM     18  C   UNL     1     110.061 132.790 137.292  0.00  0.00    +0.000 A 
ATOM     19  C   UNL     1     109.565 132.002 138.376  0.00  0.00    +0.000 A 
ATOM     20  C   UNL     1     109.927 132.691 138.100  0.00  0.00    +0.000 A 
BRANCH  18  21
ATOM     21  O   UNL     1     110.423 133.479 137.015  0.00  0.00    +0.000 OA
ATOM     22  C   UNL     1     110.768 133.490 136.266  0.00  0.00    +0.000 C 
ENDBRANCH  18  21
BRANCH  19  23
ATOM     23  O   UNL     1     109.432 131.903 139.184  0.00  0.00    +0.000 OA
ATOM     24  C   UNL     1     109.610 131.184 139.547  0.00  0.00    +0.000 C 
ENDBRANCH  19  23
ENDBRANCH  13  15
ENDBRANCH  11  12
ENDBRANCH   9  11
ENDBRANCH   5   9
BRANCH   8  25
ATOM     25  O   UNL     1     110.521 126.250 137.293  0.00  0.00    +0.000 OA
BRANCH  25  29
ATOM     26  O   UNL     1     111.389 125.776 139.239  0.00  0.00    +0.000 OA
ATOM     27  O   UNL     1     109.347 127.793 139.577  0.00  0.00    +0.000 OA
ATOM     28  O   UNL     1     110.817 126.811 141.902  0.00  0.00    +0.000 OA
ATOM     29  C   UNL     1     110.666 126.260 138.106  0.00  0.00    +0.000 A 
ATOM     30  C   UNL     1     111.244 125.766 138.427  0.00  0.00    +0.000 A 
ATOM     31  C   UNL     1     110.234 126.764 138.595  0.00  0.00    +0.000 A 
ATOM     32  C   UNL     1     110.379 126.773 139.408  0.00  0.00    +0.000 A 
ATOM     33  C   UNL     1     110.957 126.279 139.730  0.00  0.00    +0.000 A 
ATOM     34  C   UNL     1     109.923 127.302 139.908  0.00  0.00    +0.000 A 
ATOM     35  C   UNL     1     111.117 126.280 140.574  0.00  0.00    +0.000 A 
ATOM     36  C   UNL     1     110.069 127.317 140.755  0.00  0.00    +0.000 A 
ATOM     37  C   UNL     1     110.670 126.803 141.090  0.00  0.00    +0.000 A 
BRANCH  30  39
ATOM     38  O   UNL     1     112.969 123.751 136.464  0.00  0.00    +0.000 OA
ATOM     39  C   UNL     1     111.676 125.263 137.937  0.00  0.00    +0.000 A 
ATOM     40  C   UNL     1     112.440 125.467 137.705  0.00  0.00    +0.000 A 
ATOM     41  C   UNL     1     111.342 124.554 137.677  0.00  0.00    +0.000 A 
ATOM     42  C   UNL     1     112.872 124.964 137.214  0.00  0.00    +0.000 A 
ATOM     43  C   UNL     1     111.773 124.050 137.187  0.00  0.00    +0.000 A 
ATOM     44  C   UNL     1     112.538 124.255 136.955  0.00  0.00    +0.000 A 
BRANCH  42  45
ATOM     45  O   UNL     1     113.636 125.168 136.983  0.00  0.00    +0.000 OA
ATOM     46  C   UNL     1     114.108 125.630 137.478  0.00  0.00    +0.000 C 
ENDBRANCH  42  45
ENDBRANCH  30  39
ENDBRANCH  25  29
ENDBRANCH   8  25
BRANCH   4  47
ATOM     47  C   UNL     1     111.421 128.816 136.411  0.00  0.00    +0.000 C 
BRANCH  47  48
ATOM     48  O   UNL     1     112.216 128.596 136.421  0.00  0.00    +0.000 OA
BRANCH  48  54
ATOM     49  O   UNL     1     112.742 129.798 136.986  0.00  0.00    +0.000 OA
ATOM     50  O   UNL     1     113.513 128.505 135.406  0.00  0.00    +0.000 OA
ATOM     51  O   UNL     1     114.689 129.661 135.464  0.00  0.00    +0.000 OA
ATOM     52  O   UNL     1     114.566 130.909 136.536  0.00  0.00    +0.000 OA
ATOM     53  C   UNL     1     113.452 129.129 135.943  0.00  0.00    +0.000 C 
ATOM     54  C   UNL     1     112.803 129.175 136.450  0.00  0.00    +0.000 C 
ATOM     55  C   UNL     1     114.040 129.707 135.971  0.00  0.00    +0.000 C 
ATOM     56  C   UNL     1     113.978 130.331 136.508  0.00  0.00    +0.000 C 
ATOM     57  C   UNL     1     113.329 130.376 137.015  0.00  0.00    +0.000 C 
BRANCH  57  59
ATOM     58  O   UNL     1     112.895 130.885 138.278  0.00  0.00    +0.000 OA
ATOM     59  C   UNL     1     113.268 131.000 137.551  0.00  0.00    +0.000 C 
ENDBRANCH  57  59
ENDBRANCH  48  54
ENDBRANCH  47  48
ENDBRANCH   4  47
TORSDOF 14
ENDMDL
MODEL 3
REMARK VINA RESULT:     -10.0      1.470      2.884
REMARK  Name = 14757905
REMARK  14 active torsions:
REMARK  status: ('A' for Active; 'I' for Inactive)
REMARK    1  A    between atoms: O_2  and  C_26
REMARK    2  A    between atoms: O_2  and  C_30
REMARK    3  A    between atoms: O_4  and  C_22
REMARK    4  A    between atoms: O_4  and  C_34
REMARK    5  A    between atoms: O_6  and  C_29
REMARK    6  A    between atoms: O_6  and  C_33
REMARK    7  A    between atoms: O_16  and  C_49
REMARK    8  A    between atoms: O_18  and  C_54
REMARK    9  A    between atoms: O_19  and  C_55
REMARK   10  A    between atoms: C_21  and  C_30
REMARK   11  A    between atoms: C_31  and  C_32
REMARK   12  A    between atoms: C_34  and  C_37
REMARK   13  A    between atoms: C_35  and  C_39
REMARK   14  A    between atoms: C_41  and  C_48
REMARK                            x       y       z     vdW  Elec       q    Type
REMARK                         _______ _______ _______ _____ _____    ______ ____
ROOT
ATOM      1  O   UNL     1     112.415 129.191 139.261  0.00  0.00    +0.000 OA
ATOM      2  O   UNL     1     113.895 130.733 140.512  0.00  0.00    +0.000 OA
ATOM      3  O   UNL     1     114.085 130.546 138.884  0.00  0.00    +0.000 OA
ATOM      4  C   UNL     1     112.320 129.284 140.075  0.00  0.00    +0.000 C 
ATOM      5  C   UNL     1     112.814 129.798 140.493  0.00  0.00    +0.000 C 
ATOM      6  C   UNL     1     113.401 130.218 140.095  0.00  0.00    +0.000 C 
ATOM      7  C   UNL     1     113.496 130.125 139.281  0.00  0.00    +0.000 C 
ATOM      8  C   UNL     1     113.004 129.612 138.864  0.00  0.00    +0.000 C 
ENDROOT
BRANCH   5   9
ATOM      9  O   UNL     1     112.718 129.891 141.307  0.00  0.00    +0.000 OA
BRANCH   9  11
ATOM     10  O   UNL     1     111.857 131.014 141.107  0.00  0.00    +0.000 OA
ATOM     11  C   UNL     1     112.333 130.557 141.603  0.00  0.00    +0.000 C 
BRANCH  11  12
ATOM     12  C   UNL     1     112.424 130.767 142.396  0.00  0.00    +0.000 C 
ATOM     13  C   UNL     1     111.811 131.152 142.794  0.00  0.00    +0.000 C 
BRANCH  13  15
ATOM     14  O   UNL     1     112.172 131.992 145.964  0.00  0.00    +0.000 OA
ATOM     15  C   UNL     1     111.901 131.362 143.586  0.00  0.00    +0.000 A 
ATOM     16  C   UNL     1     112.145 132.124 143.785  0.00  0.00    +0.000 A 
ATOM     17  C   UNL     1     111.748 130.810 144.179  0.00  0.00    +0.000 A 
ATOM     18  C   UNL     1     111.838 131.020 144.972  0.00  0.00    +0.000 A 
ATOM     19  C   UNL     1     112.236 132.335 144.578  0.00  0.00    +0.000 A 
ATOM     20  C   UNL     1     112.082 131.782 145.172  0.00  0.00    +0.000 A 
BRANCH  18  21
ATOM     21  O   UNL     1     111.684 130.467 145.565  0.00  0.00    +0.000 OA
ATOM     22  C   UNL     1     111.480 129.694 145.365  0.00  0.00    +0.000 C 
ENDBRANCH  18  21
BRANCH  19  23
ATOM     23  O   UNL     1     112.480 133.097 144.778  0.00  0.00    +0.000 OA
ATOM     24  C   UNL     1     112.141 133.750 144.405  0.00  0.00    +0.000 C 
ENDBRANCH  19  23
ENDBRANCH  13  15
ENDBRANCH  11  12
ENDBRANCH   9  11
ENDBRANCH   5   9
BRANCH   8  25
ATOM     25  O   UNL     1     113.099 129.519 138.050  0.00  0.00    +0.000 OA
BRANCH  25  29
ATOM     26  O   UNL     1     111.723 129.493 136.356  0.00  0.00    +0.000 OA
ATOM     27  O   UNL     1     111.141 131.786 138.014  0.00  0.00    +0.000 OA
ATOM     28  O   UNL     1     109.566 131.300 135.603  0.00  0.00    +0.000 OA
ATOM     29  C   UNL     1     112.490 129.735 137.536  0.00  0.00    +0.000 A 
ATOM     30  C   UNL     1     112.331 129.276 136.869  0.00  0.00    +0.000 A 
ATOM     31  C   UNL     1     112.043 130.411 137.689  0.00  0.00    +0.000 A 
ATOM     32  C   UNL     1     111.434 130.627 137.175  0.00  0.00    +0.000 A 
ATOM     33  C   UNL     1     111.274 130.168 136.508  0.00  0.00    +0.000 A 
ATOM     34  C   UNL     1     110.975 131.333 137.345  0.00  0.00    +0.000 A 
ATOM     35  C   UNL     1     110.644 130.383 135.965  0.00  0.00    +0.000 A 
ATOM     36  C   UNL     1     110.340 131.564 136.813  0.00  0.00    +0.000 A 
ATOM     37  C   UNL     1     110.173 131.086 136.119  0.00  0.00    +0.000 A 
BRANCH  30  39
ATOM     38  O   UNL     1     114.127 126.576 136.259  0.00  0.00    +0.000 OA
ATOM     39  C   UNL     1     112.780 128.601 136.717  0.00  0.00    +0.000 A 
ATOM     40  C   UNL     1     112.506 127.860 136.955  0.00  0.00    +0.000 A 
ATOM     41  C   UNL     1     113.503 128.666 136.326  0.00  0.00    +0.000 A 
ATOM     42  C   UNL     1     112.954 127.185 136.803  0.00  0.00    +0.000 A 
ATOM     43  C   UNL     1     113.953 127.992 136.173  0.00  0.00    +0.000 A 
ATOM     44  C   UNL     1     113.678 127.250 136.412  0.00  0.00    +0.000 A 
BRANCH  42  45
ATOM     45  O   UNL     1     112.681 126.445 137.041  0.00  0.00    +0.000 OA
ATOM     46  C   UNL     1     111.870 126.307 137.113  0.00  0.00    +0.000 C 
ENDBRANCH  42  45
ENDBRANCH  30  39
ENDBRANCH  25  29
ENDBRANCH   8  25
BRANCH   4  47
ATOM     47  C   UNL     1     111.733 128.864 140.473  0.00  0.00    +0.000 C 
BRANCH  47  48
ATOM     48  O   UNL     1     111.562 128.086 140.256  0.00  0.00    +0.000 OA
BRANCH  48  54
ATOM     49  O   UNL     1     110.232 128.071 140.780  0.00  0.00    +0.000 OA
ATOM     50  O   UNL     1     111.746 126.501 140.676  0.00  0.00    +0.000 OA
ATOM     51  O   UNL     1     110.509 125.693 141.410  0.00  0.00    +0.000 OA
ATOM     52  O   UNL     1     109.088 126.470 141.724  0.00  0.00    +0.000 OA
ATOM     53  C   UNL     1     111.035 126.890 140.833  0.00  0.00    +0.000 C 
ATOM     54  C   UNL     1     110.943 127.683 140.623  0.00  0.00    +0.000 C 
ATOM     55  C   UNL     1     110.417 126.486 141.200  0.00  0.00    +0.000 C 
ATOM     56  C   UNL     1     109.706 126.874 141.357  0.00  0.00    +0.000 C 
ATOM     57  C   UNL     1     109.614 127.667 141.147  0.00  0.00    +0.000 C 
BRANCH  57  59
ATOM     58  O   UNL     1     108.539 128.503 140.716  0.00  0.00    +0.000 OA
ATOM     59  C   UNL     1     108.903 128.055 141.305  0.00  0.00    +0.000 C 
ENDBRANCH  57  59
ENDBRANCH  48  54
ENDBRANCH  47  48
ENDBRANCH   4  47
TORSDOF 14
ENDMDL
MODEL 4
REMARK VINA RESULT:     -10.0      2.952      5.641
REMARK  Name = 14757905
REMARK  14 active torsions:
REMARK  status: ('A' for Active; 'I' for Inactive)
REMARK    1  A    between atoms: O_2  and  C_26
REMARK    2  A    between atoms: O_2  and  C_30
REMARK    3  A    between atoms: O_4  and  C_22
REMARK    4  A    between atoms: O_4  and  C_34
REMARK    5  A    between atoms: O_6  and  C_29
REMARK    6  A    between atoms: O_6  and  C_33
REMARK    7  A    between atoms: O_16  and  C_49
REMARK    8  A    between atoms: O_18  and  C_54
REMARK    9  A    between atoms: O_19  and  C_55
REMARK   10  A    between atoms: C_21  and  C_30
REMARK   11  A    between atoms: C_31  and  C_32
REMARK   12  A    between atoms: C_34  and  C_37
REMARK   13  A    between atoms: C_35  and  C_39
REMARK   14  A    between atoms: C_41  and  C_48
REMARK                            x       y       z     vdW  Elec       q    Type
REMARK                         _______ _______ _______ _____ _____    ______ ____
ROOT
ATOM      1  O   UNL     1     109.857 128.523 137.178  0.00  0.00    +0.000 OA
ATOM      2  O   UNL     1     109.137 127.360 135.114  0.00  0.00    +0.000 OA
ATOM      3  O   UNL     1     109.221 129.008 135.146  0.00  0.00    +0.000 OA
ATOM      4  C   UNL     1     109.815 127.699 137.162  0.00  0.00    +0.000 C 
ATOM      5  C   UNL     1     109.575 127.311 136.474  0.00  0.00    +0.000 C 
ATOM      6  C   UNL     1     109.377 127.748 135.802  0.00  0.00    +0.000 C 
ATOM      7  C   UNL     1     109.419 128.572 135.818  0.00  0.00    +0.000 C 
ATOM      8  C   UNL     1     109.659 128.959 136.506  0.00  0.00    +0.000 C 
ENDROOT
BRANCH   5   9
ATOM      9  O   UNL     1     109.533 126.488 136.458  0.00  0.00    +0.000 OA
BRANCH   9  11
ATOM     10  O   UNL     1     109.917 125.931 135.199  0.00  0.00    +0.000 OA
ATOM     11  C   UNL     1     110.066 126.057 136.001  0.00  0.00    +0.000 C 
BRANCH  11  12
ATOM     12  C   UNL     1     110.751 125.751 136.345  0.00  0.00    +0.000 C 
ATOM     13  C   UNL     1     111.237 125.241 135.914  0.00  0.00    +0.000 C 
BRANCH  13  15
ATOM     14  O   UNL     1     113.975 124.017 137.291  0.00  0.00    +0.000 OA
ATOM     15  C   UNL     1     111.922 124.935 136.258  0.00  0.00    +0.000 A 
ATOM     16  C   UNL     1     111.927 124.162 136.547  0.00  0.00    +0.000 A 
ATOM     17  C   UNL     1     112.599 125.401 136.313  0.00  0.00    +0.000 A 
ATOM     18  C   UNL     1     113.284 125.095 136.657  0.00  0.00    +0.000 A 
ATOM     19  C   UNL     1     112.612 123.856 136.891  0.00  0.00    +0.000 A 
ATOM     20  C   UNL     1     113.291 124.323 136.946  0.00  0.00    +0.000 A 
BRANCH  18  21
ATOM     21  O   UNL     1     113.963 125.562 136.712  0.00  0.00    +0.000 OA
ATOM     22  C   UNL     1     114.124 126.124 136.130  0.00  0.00    +0.000 C 
ENDBRANCH  18  21
BRANCH  19  23
ATOM     23  O   UNL     1     112.619 123.083 137.181  0.00  0.00    +0.000 OA
ATOM     24  C   UNL     1     111.921 122.739 137.456  0.00  0.00    +0.000 C 
ENDBRANCH  19  23
ENDBRANCH  13  15
ENDBRANCH  11  12
ENDBRANCH   9  11
ENDBRANCH   5   9
BRANCH   8  25
ATOM     25  O   UNL     1     109.701 129.783 136.522  0.00  0.00    +0.000 OA
BRANCH  25  29
ATOM     26  O   UNL     1     111.146 131.229 137.286  0.00  0.00    +0.000 OA
ATOM     27  O   UNL     1     112.552 129.155 135.847  0.00  0.00    +0.000 OA
ATOM     28  O   UNL     1     114.049 131.342 137.071  0.00  0.00    +0.000 OA
ATOM     29  C   UNL     1     110.419 130.157 136.685  0.00  0.00    +0.000 A 
ATOM     30  C   UNL     1     110.429 130.856 137.123  0.00  0.00    +0.000 A 
ATOM     31  C   UNL     1     111.125 129.830 136.411  0.00  0.00    +0.000 A 
ATOM     32  C   UNL     1     111.842 130.204 136.575  0.00  0.00    +0.000 A 
ATOM     33  C   UNL     1     111.853 130.903 137.012  0.00  0.00    +0.000 A 
ATOM     34  C   UNL     1     112.571 129.854 136.284  0.00  0.00    +0.000 A 
ATOM     35  C   UNL     1     112.593 131.302 137.189  0.00  0.00    +0.000 A 
ATOM     36  C   UNL     1     113.322 130.239 136.451  0.00  0.00    +0.000 A 
ATOM     37  C   UNL     1     113.333 130.967 136.907  0.00  0.00    +0.000 A 
BRANCH  30  39
ATOM     38  O   UNL     1     107.601 132.159 138.215  0.00  0.00    +0.000 OA
ATOM     39  C   UNL     1     109.722 131.182 137.397  0.00  0.00    +0.000 A 
ATOM     40  C   UNL     1     109.465 131.025 138.164  0.00  0.00    +0.000 A 
ATOM     41  C   UNL     1     109.272 131.664 136.901  0.00  0.00    +0.000 A 
ATOM     42  C   UNL     1     108.758 131.351 138.438  0.00  0.00    +0.000 A 
ATOM     43  C   UNL     1     108.565 131.990 137.174  0.00  0.00    +0.000 A 
ATOM     44  C   UNL     1     108.308 131.833 137.943  0.00  0.00    +0.000 A 
BRANCH  42  45
ATOM     45  O   UNL     1     108.501 131.195 139.205  0.00  0.00    +0.000 OA
ATOM     46  C   UNL     1     109.017 130.854 139.753  0.00  0.00    +0.000 C 
ENDBRANCH  42  45
ENDBRANCH  30  39
ENDBRANCH  25  29
ENDBRANCH   8  25
BRANCH   4  47
ATOM     47  C   UNL     1     110.012 127.263 137.833  0.00  0.00    +0.000 C 
BRANCH  47  48
ATOM     48  O   UNL     1     109.872 127.574 138.584  0.00  0.00    +0.000 OA
BRANCH  48  54
ATOM     49  O   UNL     1     111.015 127.037 139.254  0.00  0.00    +0.000 OA
ATOM     50  O   UNL     1     108.937 127.222 139.898  0.00  0.00    +0.000 OA
ATOM     51  O   UNL     1     109.612 126.510 141.224  0.00  0.00    +0.000 OA
ATOM     52  O   UNL     1     111.222 126.149 141.237  0.00  0.00    +0.000 OA
ATOM     53  C   UNL     1     109.743 127.042 139.904  0.00  0.00    +0.000 C 
ATOM     54  C   UNL     1     110.210 127.218 139.248  0.00  0.00    +0.000 C 
ATOM     55  C   UNL     1     110.079 126.686 140.568  0.00  0.00    +0.000 C 
ATOM     56  C   UNL     1     110.884 126.506 140.574  0.00  0.00    +0.000 C 
ATOM     57  C   UNL     1     111.352 126.682 139.917  0.00  0.00    +0.000 C 
BRANCH  57  59
ATOM     58  O   UNL     1     112.691 126.982 139.518  0.00  0.00    +0.000 OA
ATOM     59  C   UNL     1     112.157 126.501 139.924  0.00  0.00    +0.000 C 
ENDBRANCH  57  59
ENDBRANCH  48  54
ENDBRANCH  47  48
ENDBRANCH   4  47
TORSDOF 14
ENDMDL
MODEL 5
REMARK VINA RESULT:     -10.0      2.797      5.999
REMARK  Name = 14757905
REMARK  14 active torsions:
REMARK  status: ('A' for Active; 'I' for Inactive)
REMARK    1  A    between atoms: O_2  and  C_26
REMARK    2  A    between atoms: O_2  and  C_30
REMARK    3  A    between atoms: O_4  and  C_22
REMARK    4  A    between atoms: O_4  and  C_34
REMARK    5  A    between atoms: O_6  and  C_29
REMARK    6  A    between atoms: O_6  and  C_33
REMARK    7  A    between atoms: O_16  and  C_49
REMARK    8  A    between atoms: O_18  and  C_54
REMARK    9  A    between atoms: O_19  and  C_55
REMARK   10  A    between atoms: C_21  and  C_30
REMARK   11  A    between atoms: C_31  and  C_32
REMARK   12  A    between atoms: C_34  and  C_37
REMARK   13  A    between atoms: C_35  and  C_39
REMARK   14  A    between atoms: C_41  and  C_48
REMARK                            x       y       z     vdW  Elec       q    Type
REMARK                         _______ _______ _______ _____ _____    ______ ____
ROOT
ATOM      1  O   UNL     1     110.476 127.676 137.207  0.00  0.00    +0.000 OA
ATOM      2  O   UNL     1     108.406 128.148 135.933  0.00  0.00    +0.000 OA
ATOM      3  O   UNL     1     108.452 126.885 136.994  0.00  0.00    +0.000 OA
ATOM      4  C   UNL     1     110.453 128.307 136.677  0.00  0.00    +0.000 C 
ATOM      5  C   UNL     1     109.763 128.465 136.252  0.00  0.00    +0.000 C 
ATOM      6  C   UNL     1     109.096 127.990 136.358  0.00  0.00    +0.000 C 
ATOM      7  C   UNL     1     109.119 127.359 136.889  0.00  0.00    +0.000 C 
ATOM      8  C   UNL     1     109.809 127.202 137.313  0.00  0.00    +0.000 C 
ENDROOT
BRANCH   5   9
ATOM      9  O   UNL     1     109.740 129.096 135.721  0.00  0.00    +0.000 OA
BRANCH   9  11
ATOM     10  O   UNL     1     108.530 129.823 135.497  0.00  0.00    +0.000 OA
ATOM     11  C   UNL     1     109.259 129.748 135.876  0.00  0.00    +0.000 C 
BRANCH  11  12
ATOM     12  C   UNL     1     109.506 130.325 136.412  0.00  0.00    +0.000 C 
ATOM     13  C   UNL     1     109.218 131.096 136.350  0.00  0.00    +0.000 C 
BRANCH  13  15
ATOM     14  O   UNL     1     110.209 133.404 138.490  0.00  0.00    +0.000 OA
ATOM     15  C   UNL     1     109.466 131.673 136.885  0.00  0.00    +0.000 A 
ATOM     16  C   UNL     1     109.326 131.573 137.692  0.00  0.00    +0.000 A 
ATOM     17  C   UNL     1     109.852 132.348 136.613  0.00  0.00    +0.000 A 
ATOM     18  C   UNL     1     110.100 132.925 137.148  0.00  0.00    +0.000 A 
ATOM     19  C   UNL     1     109.574 132.151 138.227  0.00  0.00    +0.000 A 
ATOM     20  C   UNL     1     109.961 132.827 137.955  0.00  0.00    +0.000 A 
BRANCH  18  21
ATOM     21  O   UNL     1     110.487 133.602 136.876  0.00  0.00    +0.000 OA
ATOM     22  C   UNL     1     111.003 133.551 136.234  0.00  0.00    +0.000 C 
ENDBRANCH  18  21
BRANCH  19  23
ATOM     23  O   UNL     1     109.435 132.052 139.034  0.00  0.00    +0.000 OA
ATOM     24  C   UNL     1     109.607 131.332 139.399  0.00  0.00    +0.000 C 
ENDBRANCH  19  23
ENDBRANCH  13  15
ENDBRANCH  11  12
ENDBRANCH   9  11
ENDBRANCH   5   9
BRANCH   8  25
ATOM     25  O   UNL     1     109.832 126.571 137.843  0.00  0.00    +0.000 OA
BRANCH  25  29
ATOM     26  O   UNL     1     111.338 125.068 138.331  0.00  0.00    +0.000 OA
ATOM     27  O   UNL     1     110.981 125.156 135.465  0.00  0.00    +0.000 OA
ATOM     28  O   UNL     1     112.902 123.292 136.633  0.00  0.00    +0.000 OA
ATOM     29  C   UNL     1     110.399 125.978 137.755  0.00  0.00    +0.000 A 
ATOM     30  C   UNL     1     110.771 125.660 138.420  0.00  0.00    +0.000 A 
ATOM     31  C   UNL     1     110.595 125.703 137.002  0.00  0.00    +0.000 A 
ATOM     32  C   UNL     1     111.163 125.110 136.914  0.00  0.00    +0.000 A 
ATOM     33  C   UNL     1     111.534 124.793 137.578  0.00  0.00    +0.000 A 
ATOM     34  C   UNL     1     111.357 124.833 136.125  0.00  0.00    +0.000 A 
ATOM     35  C   UNL     1     112.126 124.175 137.500  0.00  0.00    +0.000 A 
ATOM     36  C   UNL     1     111.948 124.216 136.026  0.00  0.00    +0.000 A 
ATOM     37  C   UNL     1     112.335 123.885 136.718  0.00  0.00    +0.000 A 
BRANCH  30  39
ATOM     38  O   UNL     1     109.983 126.760 141.430  0.00  0.00    +0.000 OA
ATOM     39  C   UNL     1     110.575 125.935 139.172  0.00  0.00    +0.000 A 
ATOM     40  C   UNL     1     111.093 126.430 139.579  0.00  0.00    +0.000 A 
ATOM     41  C   UNL     1     109.858 125.715 139.518  0.00  0.00    +0.000 A 
ATOM     42  C   UNL     1     110.897 126.705 140.332  0.00  0.00    +0.000 A 
ATOM     43  C   UNL     1     109.661 125.989 140.270  0.00  0.00    +0.000 A 
ATOM     44  C   UNL     1     110.181 126.485 140.677  0.00  0.00    +0.000 A 
BRANCH  42  45
ATOM     45  O   UNL     1     111.416 127.200 140.739  0.00  0.00    +0.000 OA
ATOM     46  C   UNL     1     111.771 127.836 140.351  0.00  0.00    +0.000 C 
ENDBRANCH  42  45
ENDBRANCH  30  39
ENDBRANCH  25  29
ENDBRANCH   8  25
BRANCH   4  47
ATOM     47  C   UNL     1     111.119 128.782 136.570  0.00  0.00    +0.000 C 
BRANCH  47  48
ATOM     48  O   UNL     1     111.871 128.479 136.724  0.00  0.00    +0.000 OA
BRANCH  48  54
ATOM     49  O   UNL     1     112.534 129.678 137.132  0.00  0.00    +0.000 OA
ATOM     50  O   UNL     1     113.177 128.070 135.804  0.00  0.00    +0.000 OA
ATOM     51  O   UNL     1     114.494 129.063 135.751  0.00  0.00    +0.000 OA
ATOM     52  O   UNL     1     114.503 130.467 136.619  0.00  0.00    +0.000 OA
ATOM     53  C   UNL     1     113.182 128.772 136.238  0.00  0.00    +0.000 C 
ATOM     54  C   UNL     1     112.529 128.976 136.698  0.00  0.00    +0.000 C 
ATOM     55  C   UNL     1     113.840 129.268 136.211  0.00  0.00    +0.000 C 
ATOM     56  C   UNL     1     113.844 129.969 136.645  0.00  0.00    +0.000 C 
ATOM     57  C   UNL     1     113.191 130.174 137.106  0.00  0.00    +0.000 C 
BRANCH  57  59
ATOM     58  O   UNL     1     112.880 130.892 138.301  0.00  0.00    +0.000 OA
ATOM     59  C   UNL     1     113.196 130.876 137.540  0.00  0.00    +0.000 C 
ENDBRANCH  57  59
ENDBRANCH  48  54
ENDBRANCH  47  48
ENDBRANCH   4  47
TORSDOF 14
ENDMDL
MODEL 6
REMARK VINA RESULT:      -9.9      2.974      6.518
REMARK  Name = 14757905
REMARK  14 active torsions:
REMARK  status: ('A' for Active; 'I' for Inactive)
REMARK    1  A    between atoms: O_2  and  C_26
REMARK    2  A    between atoms: O_2  and  C_30
REMARK    3  A    between atoms: O_4  and  C_22
REMARK    4  A    between atoms: O_4  and  C_34
REMARK    5  A    between atoms: O_6  and  C_29
REMARK    6  A    between atoms: O_6  and  C_33
REMARK    7  A    between atoms: O_16  and  C_49
REMARK    8  A    between atoms: O_18  and  C_54
REMARK    9  A    between atoms: O_19  and  C_55
REMARK   10  A    between atoms: C_21  and  C_30
REMARK   11  A    between atoms: C_31  and  C_32
REMARK   12  A    between atoms: C_34  and  C_37
REMARK   13  A    between atoms: C_35  and  C_39
REMARK   14  A    between atoms: C_41  and  C_48
REMARK                            x       y       z     vdW  Elec       q    Type
REMARK                         _______ _______ _______ _____ _____    ______ ____
ROOT
ATOM      1  O   UNL     1     110.909 126.722 139.892  0.00  0.00    +0.000 OA
ATOM      2  O   UNL     1     109.422 126.208 141.804  0.00  0.00    +0.000 OA
ATOM      3  O   UNL     1     110.618 127.333 141.968  0.00  0.00    +0.000 OA
ATOM      4  C   UNL     1     110.311 126.160 139.810  0.00  0.00    +0.000 C 
ATOM      5  C   UNL     1     109.815 125.988 140.448  0.00  0.00    +0.000 C 
ATOM      6  C   UNL     1     109.918 126.380 141.167  0.00  0.00    +0.000 C 
ATOM      7  C   UNL     1     110.516 126.942 141.248  0.00  0.00    +0.000 C 
ATOM      8  C   UNL     1     111.011 127.113 140.612  0.00  0.00    +0.000 C 
ENDROOT
BRANCH   5   9
ATOM      9  O   UNL     1     109.217 125.426 140.366  0.00  0.00    +0.000 OA
BRANCH   9  11
ATOM     10  O   UNL     1     108.225 126.411 140.068  0.00  0.00    +0.000 OA
ATOM     11  C   UNL     1     108.427 125.663 140.353  0.00  0.00    +0.000 C 
BRANCH  11  12
ATOM     12  C   UNL     1     107.839 125.153 140.625  0.00  0.00    +0.000 C 
ATOM     13  C   UNL     1     107.051 125.280 140.413  0.00  0.00    +0.000 C 
BRANCH  13  15
ATOM     14  O   UNL     1     104.698 123.239 141.502  0.00  0.00    +0.000 OA
ATOM     15  C   UNL     1     106.463 124.770 140.685  0.00  0.00    +0.000 A 
ATOM     16  C   UNL     1     106.234 124.790 141.478  0.00  0.00    +0.000 A 
ATOM     17  C   UNL     1     106.103 124.241 140.165  0.00  0.00    +0.000 A 
ATOM     18  C   UNL     1     105.515 123.731 140.438  0.00  0.00    +0.000 A 
ATOM     19  C   UNL     1     105.646 124.280 141.750  0.00  0.00    +0.000 A 
ATOM     20  C   UNL     1     105.286 123.750 141.230  0.00  0.00    +0.000 A 
BRANCH  18  21
ATOM     21  O   UNL     1     105.155 123.200 139.917  0.00  0.00    +0.000 OA
ATOM     22  C   UNL     1     104.981 123.435 139.146  0.00  0.00    +0.000 C 
ENDBRANCH  18  21
BRANCH  19  23
ATOM     23  O   UNL     1     105.417 124.299 142.542  0.00  0.00    +0.000 OA
ATOM     24  C   UNL     1     105.746 124.856 143.054  0.00  0.00    +0.000 C 
ENDBRANCH  19  23
ENDBRANCH  13  15
ENDBRANCH  11  12
ENDBRANCH   9  11
ENDBRANCH   5   9
BRANCH   8  25
ATOM     25  O   UNL     1     111.609 127.675 140.694  0.00  0.00    +0.000 OA
BRANCH  25  29
ATOM     26  O   UNL     1     112.520 129.091 139.304  0.00  0.00    +0.000 OA
ATOM     27  O   UNL     1     109.652 129.442 139.272  0.00  0.00    +0.000 OA
ATOM     28  O   UNL     1     111.338 131.112 137.570  0.00  0.00    +0.000 OA
ATOM     29  C   UNL     1     111.690 128.277 140.134  0.00  0.00    +0.000 A 
ATOM     30  C   UNL     1     112.439 128.490 139.863  0.00  0.00    +0.000 A 
ATOM     31  C   UNL     1     111.021 128.664 139.847  0.00  0.00    +0.000 A 
ATOM     32  C   UNL     1     111.102 129.266 139.287  0.00  0.00    +0.000 A 
ATOM     33  C   UNL     1     111.851 129.479 139.016  0.00  0.00    +0.000 A 
ATOM     34  C   UNL     1     110.398 129.662 138.995  0.00  0.00    +0.000 A 
ATOM     35  C   UNL     1     111.948 130.103 138.434  0.00  0.00    +0.000 A 
ATOM     36  C   UNL     1     110.475 130.289 138.412  0.00  0.00    +0.000 A 
ATOM     37  C   UNL     1     111.255 130.511 138.130  0.00  0.00    +0.000 A 
BRANCH  30  39
ATOM     38  O   UNL     1     115.113 126.939 141.018  0.00  0.00    +0.000 OA
ATOM     39  C   UNL     1     113.108 128.102 140.151  0.00  0.00    +0.000 A 
ATOM     40  C   UNL     1     113.412 127.449 139.749  0.00  0.00    +0.000 A 
ATOM     41  C   UNL     1     113.472 128.367 140.842  0.00  0.00    +0.000 A 
ATOM     42  C   UNL     1     114.080 127.061 140.038  0.00  0.00    +0.000 A 
ATOM     43  C   UNL     1     114.141 127.980 141.131  0.00  0.00    +0.000 A 
ATOM     44  C   UNL     1     114.445 127.326 140.729  0.00  0.00    +0.000 A 
BRANCH  42  45
ATOM     45  O   UNL     1     114.384 126.408 139.636  0.00  0.00    +0.000 OA
ATOM     46  C   UNL     1     114.260 126.328 138.824  0.00  0.00    +0.000 C 
ENDBRANCH  42  45
ENDBRANCH  30  39
ENDBRANCH  25  29
ENDBRANCH   8  25
BRANCH   4  47
ATOM     47  C   UNL     1     110.207 125.768 139.092  0.00  0.00    +0.000 C 
BRANCH  47  48
ATOM     48  O   UNL     1     110.863 125.497 138.671  0.00  0.00    +0.000 OA
BRANCH  48  54
ATOM     49  O   UNL     1     110.421 126.014 137.414  0.00  0.00    +0.000 OA
ATOM     50  O   UNL     1     111.625 124.257 137.893  0.00  0.00    +0.000 OA
ATOM     51  O   UNL     1     111.563 124.154 136.247  0.00  0.00    +0.000 OA
ATOM     52  O   UNL     1     110.741 125.291 135.379  0.00  0.00    +0.000 OA
ATOM     53  C   UNL     1     111.213 124.826 137.459  0.00  0.00    +0.000 C 
ATOM     54  C   UNL     1     110.832 125.446 137.848  0.00  0.00    +0.000 C 
ATOM     55  C   UNL     1     111.183 124.774 136.636  0.00  0.00    +0.000 C 
ATOM     56  C   UNL     1     110.771 125.343 136.203  0.00  0.00    +0.000 C 
ATOM     57  C   UNL     1     110.390 125.963 136.592  0.00  0.00    +0.000 C 
BRANCH  57  59
ATOM     58  O   UNL     1     109.967 127.316 136.413  0.00  0.00    +0.000 OA
ATOM     59  C   UNL     1     109.979 126.531 136.157  0.00  0.00    +0.000 C 
ENDBRANCH  57  59
ENDBRANCH  48  54
ENDBRANCH  47  48
ENDBRANCH   4  47
TORSDOF 14
ENDMDL
MODEL 7
REMARK VINA RESULT:      -9.9      1.839      3.621
REMARK  Name = 14757905
REMARK  14 active torsions:
REMARK  status: ('A' for Active; 'I' for Inactive)
REMARK    1  A    between atoms: O_2  and  C_26
REMARK    2  A    between atoms: O_2  and  C_30
REMARK    3  A    between atoms: O_4  and  C_22
REMARK    4  A    between atoms: O_4  and  C_34
REMARK    5  A    between atoms: O_6  and  C_29
REMARK    6  A    between atoms: O_6  and  C_33
REMARK    7  A    between atoms: O_16  and  C_49
REMARK    8  A    between atoms: O_18  and  C_54
REMARK    9  A    between atoms: O_19  and  C_55
REMARK   10  A    between atoms: C_21  and  C_30
REMARK   11  A    between atoms: C_31  and  C_32
REMARK   12  A    between atoms: C_34  and  C_37
REMARK   13  A    between atoms: C_35  and  C_39
REMARK   14  A    between atoms: C_41  and  C_48
REMARK                            x       y       z     vdW  Elec       q    Type
REMARK                         _______ _______ _______ _____ _____    ______ ____
ROOT
ATOM      1  O   UNL     1     111.843 128.974 138.345  0.00  0.00    +0.000 OA
ATOM      2  O   UNL     1     112.496 128.571 140.699  0.00  0.00    +0.000 OA
ATOM      3  O   UNL     1     113.225 127.725 139.484  0.00  0.00    +0.000 OA
ATOM      4  C   UNL     1     111.478 129.397 138.953  0.00  0.00    +0.000 C 
ATOM      5  C   UNL     1     111.696 129.263 139.738  0.00  0.00    +0.000 C 
ATOM      6  C   UNL     1     112.278 128.706 139.914  0.00  0.00    +0.000 C 
ATOM      7  C   UNL     1     112.643 128.283 139.307  0.00  0.00    +0.000 C 
ATOM      8  C   UNL     1     112.425 128.417 138.523  0.00  0.00    +0.000 C 
ENDROOT
BRANCH   5   9
ATOM      9  O   UNL     1     111.332 129.686 140.345  0.00  0.00    +0.000 OA
BRANCH   9  11
ATOM     10  O   UNL     1     112.304 130.733 140.364  0.00  0.00    +0.000 OA
ATOM     11  C   UNL     1     111.755 130.260 140.758  0.00  0.00    +0.000 C 
BRANCH  11  12
ATOM     12  C   UNL     1     111.630 130.362 141.567  0.00  0.00    +0.000 C 
ATOM     13  C   UNL     1     111.345 131.083 141.854  0.00  0.00    +0.000 C 
BRANCH  13  15
ATOM     14  O   UNL     1     110.844 131.491 145.090  0.00  0.00    +0.000 OA
ATOM     15  C   UNL     1     111.220 131.185 142.663  0.00  0.00    +0.000 A 
ATOM     16  C   UNL     1     111.792 131.560 143.124  0.00  0.00    +0.000 A 
ATOM     17  C   UNL     1     110.523 130.912 143.009  0.00  0.00    +0.000 A 
ATOM     18  C   UNL     1     110.398 131.014 143.818  0.00  0.00    +0.000 A 
ATOM     19  C   UNL     1     111.666 131.663 143.933  0.00  0.00    +0.000 A 
ATOM     20  C   UNL     1     110.969 131.389 144.281  0.00  0.00    +0.000 A 
BRANCH  18  21
ATOM     21  O   UNL     1     109.701 130.740 144.166  0.00  0.00    +0.000 OA
ATOM     22  C   UNL     1     108.981 130.834 143.774  0.00  0.00    +0.000 C 
ENDBRANCH  18  21
BRANCH  19  23
ATOM     23  O   UNL     1     112.237 132.038 144.395  0.00  0.00    +0.000 OA
ATOM     24  C   UNL     1     112.657 132.680 144.092  0.00  0.00    +0.000 C 
ENDBRANCH  19  23
ENDBRANCH  13  15
ENDBRANCH  11  12
ENDBRANCH   9  11
ENDBRANCH   5   9
BRANCH   8  25
ATOM     25  O   UNL     1     112.789 127.994 137.916  0.00  0.00    +0.000 OA
BRANCH  25  29
ATOM     26  O   UNL     1     113.488 128.477 135.905  0.00  0.00    +0.000 OA
ATOM     27  O   UNL     1     114.284 130.582 137.717  0.00  0.00    +0.000 OA
ATOM     28  O   UNL     1     114.986 130.760 134.888  0.00  0.00    +0.000 OA
ATOM     29  C   UNL     1     113.148 128.396 137.290  0.00  0.00    +0.000 A 
ATOM     30  C   UNL     1     113.130 128.076 136.530  0.00  0.00    +0.000 A 
ATOM     31  C   UNL     1     113.524 129.117 137.426  0.00  0.00    +0.000 A 
ATOM     32  C   UNL     1     113.883 129.519 136.800  0.00  0.00    +0.000 A 
ATOM     33  C   UNL     1     113.865 129.199 136.040  0.00  0.00    +0.000 A 
ATOM     34  C   UNL     1     114.271 130.270 136.954  0.00  0.00    +0.000 A 
ATOM     35  C   UNL     1     114.234 129.608 135.381  0.00  0.00    +0.000 A 
ATOM     36  C   UNL     1     114.646 130.693 136.306  0.00  0.00    +0.000 A 
ATOM     37  C   UNL     1     114.628 130.360 135.515  0.00  0.00    +0.000 A 
BRANCH  30  39
ATOM     38  O   UNL     1     111.627 125.188 135.992  0.00  0.00    +0.000 OA
ATOM     39  C   UNL     1     112.754 127.354 136.395  0.00  0.00    +0.000 A 
ATOM     40  C   UNL     1     111.980 127.338 136.110  0.00  0.00    +0.000 A 
ATOM     41  C   UNL     1     113.152 126.647 136.546  0.00  0.00    +0.000 A 
ATOM     42  C   UNL     1     111.604 126.616 135.975  0.00  0.00    +0.000 A 
ATOM     43  C   UNL     1     112.776 125.925 136.412  0.00  0.00    +0.000 A 
ATOM     44  C   UNL     1     112.002 125.910 136.126  0.00  0.00    +0.000 A 
BRANCH  42  45
ATOM     45  O   UNL     1     110.830 126.601 135.690  0.00  0.00    +0.000 OA
ATOM     46  C   UNL     1     110.565 127.194 135.181  0.00  0.00    +0.000 C 
ENDBRANCH  42  45
ENDBRANCH  30  39
ENDBRANCH  25  29
ENDBRANCH   8  25
BRANCH   4  47
ATOM     47  C   UNL     1     110.896 129.954 138.777  0.00  0.00    +0.000 C 
BRANCH  47  48
ATOM     48  O   UNL     1     110.424 129.861 138.107  0.00  0.00    +0.000 OA
BRANCH  48  54
ATOM     49  O   UNL     1     110.157 131.260 138.000  0.00  0.00    +0.000 OA
ATOM     50  O   UNL     1     109.015 129.531 137.314  0.00  0.00    +0.000 OA
ATOM     51  O   UNL     1     108.043 130.766 136.811  0.00  0.00    +0.000 OA
ATOM     52  O   UNL     1     108.480 132.330 137.101  0.00  0.00    +0.000 OA
ATOM     53  C   UNL     1     109.234 130.314 137.459  0.00  0.00    +0.000 C 
ATOM     54  C   UNL     1     109.938 130.479 137.855  0.00  0.00    +0.000 C 
ATOM     55  C   UNL     1     108.747 130.931 137.208  0.00  0.00    +0.000 C 
ATOM     56  C   UNL     1     108.966 131.713 137.353  0.00  0.00    +0.000 C 
ATOM     57  C   UNL     1     109.671 131.877 137.749  0.00  0.00    +0.000 C 
BRANCH  57  59
ATOM     58  O   UNL     1     110.157 132.882 138.641  0.00  0.00    +0.000 OA
ATOM     59  C   UNL     1     109.889 132.660 137.893  0.00  0.00    +0.000 C 
ENDBRANCH  57  59
ENDBRANCH  48  54
ENDBRANCH  47  48
ENDBRANCH   4  47
TORSDOF 14
ENDMDL
MODEL 8
REMARK VINA RESULT:      -9.9      1.866      3.718
REMARK  Name = 14757905
REMARK  14 active torsions:
REMARK  status: ('A' for Active; 'I' for Inactive)
REMARK    1  A    between atoms: O_2  and  C_26
REMARK    2  A    between atoms: O_2  and  C_30
REMARK    3  A    between atoms: O_4  and  C_22
REMARK    4  A    between atoms: O_4  and  C_34
REMARK    5  A    between atoms: O_6  and  C_29
REMARK    6  A    between atoms: O_6  and  C_33
REMARK    7  A    between atoms: O_16  and  C_49
REMARK    8  A    between atoms: O_18  and  C_54
REMARK    9  A    between atoms: O_19  and  C_55
REMARK   10  A    between atoms: C_21  and  C_30
REMARK   11  A    between atoms: C_31  and  C_32
REMARK   12  A    between atoms: C_34  and  C_37
REMARK   13  A    between atoms: C_35  and  C_39
REMARK   14  A    between atoms: C_41  and  C_48
REMARK                            x       y       z     vdW  Elec       q    Type
REMARK                         _______ _______ _______ _____ _____    ______ ____
ROOT
ATOM      1  O   UNL     1     111.115 127.556 138.185  0.00  0.00    +0.000 OA
ATOM      2  O   UNL     1     112.072 125.915 139.773  0.00  0.00    +0.000 OA
ATOM      3  O   UNL     1     112.144 125.630 138.150  0.00  0.00    +0.000 OA
ATOM      4  C   UNL     1     111.080 127.698 138.997  0.00  0.00    +0.000 C 
ATOM      5  C   UNL     1     111.398 127.151 139.527  0.00  0.00    +0.000 C 
ATOM      6  C   UNL     1     111.753 126.462 139.244  0.00  0.00    +0.000 C 
ATOM      7  C   UNL     1     111.789 126.320 138.432  0.00  0.00    +0.000 C 
ATOM      8  C   UNL     1     111.470 126.866 137.903  0.00  0.00    +0.000 C 
ENDROOT
BRANCH   5   9
ATOM      9  O   UNL     1     111.363 127.294 140.339  0.00  0.00    +0.000 OA
BRANCH   9  11
ATOM     10  O   UNL     1     112.579 126.955 141.008  0.00  0.00    +0.000 OA
ATOM     11  C   UNL     1     112.041 127.524 140.747  0.00  0.00    +0.000 C 
BRANCH  11  12
ATOM     12  C   UNL     1     112.182 128.323 140.895  0.00  0.00    +0.000 C 
ATOM     13  C   UNL     1     112.613 128.549 141.562  0.00  0.00    +0.000 C 
BRANCH  13  15
ATOM     14  O   UNL     1     113.177 131.746 142.155  0.00  0.00    +0.000 OA
ATOM     15  C   UNL     1     112.754 129.348 141.710  0.00  0.00    +0.000 A 
ATOM     16  C   UNL     1     113.403 129.724 141.365  0.00  0.00    +0.000 A 
ATOM     17  C   UNL     1     112.247 129.772 142.203  0.00  0.00    +0.000 A 
ATOM     18  C   UNL     1     112.388 130.571 142.352  0.00  0.00    +0.000 A 
ATOM     19  C   UNL     1     113.544 130.523 141.513  0.00  0.00    +0.000 A 
ATOM     20  C   UNL     1     113.036 130.947 142.007  0.00  0.00    +0.000 A 
BRANCH  18  21
ATOM     21  O   UNL     1     111.880 130.995 142.846  0.00  0.00    +0.000 OA
ATOM     22  C   UNL     1     111.088 131.093 142.635  0.00  0.00    +0.000 C 
ENDBRANCH  18  21
BRANCH  19  23
ATOM     23  O   UNL     1     114.192 130.899 141.168  0.00  0.00    +0.000 OA
ATOM     24  C   UNL     1     114.569 130.559 140.518  0.00  0.00    +0.000 C 
ENDBRANCH  19  23
ENDBRANCH  13  15
ENDBRANCH  11  12
ENDBRANCH   9  11
ENDBRANCH   5   9
BRANCH   8  25
ATOM     25  O   UNL     1     111.506 126.724 137.091  0.00  0.00    +0.000 OA
BRANCH  25  29
ATOM     26  O   UNL     1     111.928 127.936 135.326  0.00  0.00    +0.000 OA
ATOM     27  O   UNL     1     113.811 128.611 137.410  0.00  0.00    +0.000 OA
ATOM     28  O   UNL     1     113.956 129.966 134.827  0.00  0.00    +0.000 OA
ATOM     29  C   UNL     1     111.861 127.276 136.591  0.00  0.00    +0.000 A 
ATOM     30  C   UNL     1     111.573 127.385 135.825  0.00  0.00    +0.000 A 
ATOM     31  C   UNL     1     112.505 127.719 136.856  0.00  0.00    +0.000 A 
ATOM     32  C   UNL     1     112.860 128.271 136.355  0.00  0.00    +0.000 A 
ATOM     33  C   UNL     1     112.571 128.379 135.590  0.00  0.00    +0.000 A 
ATOM     34  C   UNL     1     113.529 128.726 136.643  0.00  0.00    +0.000 A 
ATOM     35  C   UNL     1     112.932 128.951 135.060  0.00  0.00    +0.000 A 
ATOM     36  C   UNL     1     113.903 129.303 136.127  0.00  0.00    +0.000 A 
ATOM     37  C   UNL     1     113.603 129.415 135.330  0.00  0.00    +0.000 A 
BRANCH  30  39
ATOM     38  O   UNL     1     109.001 125.609 134.767  0.00  0.00    +0.000 OA
ATOM     39  C   UNL     1     110.929 126.941 135.561  0.00  0.00    +0.000 A 
ATOM     40  C   UNL     1     110.167 127.252 135.607  0.00  0.00    +0.000 A 
ATOM     41  C   UNL     1     111.049 126.186 135.250  0.00  0.00    +0.000 A 
ATOM     42  C   UNL     1     109.523 126.808 135.342  0.00  0.00    +0.000 A 
ATOM     43  C   UNL     1     110.407 125.742 134.986  0.00  0.00    +0.000 A 
ATOM     44  C   UNL     1     109.643 126.053 135.032  0.00  0.00    +0.000 A 
BRANCH  42  45
ATOM     45  O   UNL     1     108.761 127.118 135.388  0.00  0.00    +0.000 OA
ATOM     46  C   UNL     1     108.632 127.844 135.760  0.00  0.00    +0.000 C 
ENDBRANCH  42  45
ENDBRANCH  30  39
ENDBRANCH  25  29
ENDBRANCH   8  25
BRANCH   4  47
ATOM     47  C   UNL     1     110.725 128.387 139.280  0.00  0.00    +0.000 C 
BRANCH  47  48
ATOM     48  O   UNL     1     110.162 128.780 138.823  0.00  0.00    +0.000 OA
BRANCH  48  54
ATOM     49  O   UNL     1     110.652 130.122 138.821  0.00  0.00    +0.000 OA
ATOM     50  O   UNL     1     108.667 129.326 139.260  0.00  0.00    +0.000 OA
ATOM     51  O   UNL     1     108.410 130.942 139.476  0.00  0.00    +0.000 OA
ATOM     52  O   UNL     1     109.647 132.011 139.256  0.00  0.00    +0.000 OA
ATOM     53  C   UNL     1     109.286 129.861 139.150  0.00  0.00    +0.000 C 
ATOM     54  C   UNL     1     110.034 129.588 138.931  0.00  0.00    +0.000 C 
ATOM     55  C   UNL     1     109.157 130.668 139.258  0.00  0.00    +0.000 C 
ATOM     56  C   UNL     1     109.776 131.202 139.148  0.00  0.00    +0.000 C 
ATOM     57  C   UNL     1     110.523 130.929 138.929  0.00  0.00    +0.000 C 
BRANCH  57  59
ATOM     58  O   UNL     1     111.787 131.258 138.348  0.00  0.00    +0.000 OA
ATOM     59  C   UNL     1     111.142 131.464 138.819  0.00  0.00    +0.000 C 
ENDBRANCH  57  59
ENDBRANCH  48  54
ENDBRANCH  47  48
ENDBRANCH   4  47
TORSDOF 14
ENDMDL
MODEL 9
REMARK VINA RESULT:      -9.9      1.884      3.523
REMARK  Name = 14757905
REMARK  14 active torsions:
REMARK  status: ('A' for Active; 'I' for Inactive)
REMARK    1  A    between atoms: O_2  and  C_26
REMARK    2  A    between atoms: O_2  and  C_30
REMARK    3  A    between atoms: O_4  and  C_22
REMARK    4  A    between atoms: O_4  and  C_34
REMARK    5  A    between atoms: O_6  and  C_29
REMARK    6  A    between atoms: O_6  and  C_33
REMARK    7  A    between atoms: O_16  and  C_49
REMARK    8  A    between atoms: O_18  and  C_54
REMARK    9  A    between atoms: O_19  and  C_55
REMARK   10  A    between atoms: C_21  and  C_30
REMARK   11  A    between atoms: C_31  and  C_32
REMARK   12  A    between atoms: C_34  and  C_37
REMARK   13  A    between atoms: C_35  and  C_39
REMARK   14  A    between atoms: C_41  and  C_48
REMARK                            x       y       z     vdW  Elec       q    Type
REMARK                         _______ _______ _______ _____ _____    ______ ____
ROOT
ATOM      1  O   UNL     1     111.764 129.552 140.231  0.00  0.00    +0.000 OA
ATOM      2  O   UNL     1     112.603 129.590 142.560  0.00  0.00    +0.000 OA
ATOM      3  O   UNL     1     113.219 128.507 141.479  0.00  0.00    +0.000 OA
ATOM      4  C   UNL     1     111.456 130.094 140.772  0.00  0.00    +0.000 C 
ATOM      5  C   UNL     1     111.736 130.107 141.548  0.00  0.00    +0.000 C 
ATOM      6  C   UNL     1     112.323 129.577 141.783  0.00  0.00    +0.000 C 
ATOM      7  C   UNL     1     112.631 129.036 141.243  0.00  0.00    +0.000 C 
ATOM      8  C   UNL     1     112.352 129.023 140.467  0.00  0.00    +0.000 C 
ENDROOT
BRANCH   5   9
ATOM      9  O   UNL     1     111.427 130.648 142.089  0.00  0.00    +0.000 OA
BRANCH   9  11
ATOM     10  O   UNL     1     112.504 131.560 141.858  0.00  0.00    +0.000 OA
ATOM     11  C   UNL     1     111.880 131.294 142.329  0.00  0.00    +0.000 C 
BRANCH  11  12
ATOM     12  C   UNL     1     111.710 131.675 143.041  0.00  0.00    +0.000 C 
ATOM     13  C   UNL     1     112.195 132.288 143.307  0.00  0.00    +0.000 C 
BRANCH  13  15
ATOM     14  O   UNL     1     111.515 133.812 146.154  0.00  0.00    +0.000 OA
ATOM     15  C   UNL     1     112.025 132.669 144.019  0.00  0.00    +0.000 A 
ATOM     16  C   UNL     1     112.005 132.238 144.722  0.00  0.00    +0.000 A 
ATOM     17  C   UNL     1     111.876 133.480 144.027  0.00  0.00    +0.000 A 
ATOM     18  C   UNL     1     111.706 133.861 144.738  0.00  0.00    +0.000 A 
ATOM     19  C   UNL     1     111.835 132.619 145.434  0.00  0.00    +0.000 A 
ATOM     20  C   UNL     1     111.685 133.431 145.442  0.00  0.00    +0.000 A 
BRANCH  18  21
ATOM     21  O   UNL     1     111.556 134.673 144.747  0.00  0.00    +0.000 OA
ATOM     22  C   UNL     1     111.871 135.155 144.157  0.00  0.00    +0.000 C 
ENDBRANCH  18  21
BRANCH  19  23
ATOM     23  O   UNL     1     111.814 132.190 146.138  0.00  0.00    +0.000 OA
ATOM     24  C   UNL     1     112.443 131.694 146.338  0.00  0.00    +0.000 C 
ENDBRANCH  19  23
ENDBRANCH  13  15
ENDBRANCH  11  12
ENDBRANCH   9  11
ENDBRANCH   5   9
BRANCH   8  25
ATOM     25  O   UNL     1     112.660 128.482 139.926  0.00  0.00    +0.000 OA
BRANCH  25  29
ATOM     26  O   UNL     1     113.025 128.529 137.775  0.00  0.00    +0.000 OA
ATOM     27  O   UNL     1     114.098 130.930 138.970  0.00  0.00    +0.000 OA
ATOM     28  O   UNL     1     114.334 130.512 136.090  0.00  0.00    +0.000 OA
ATOM     29  C   UNL     1     112.912 128.738 139.183  0.00  0.00    +0.000 A 
ATOM     30  C   UNL     1     112.773 128.272 138.517  0.00  0.00    +0.000 A 
ATOM     31  C   UNL     1     113.304 129.460 139.108  0.00  0.00    +0.000 A 
ATOM     32  C   UNL     1     113.556 129.717 138.365  0.00  0.00    +0.000 A 
ATOM     33  C   UNL     1     113.417 129.251 137.698  0.00  0.00    +0.000 A 
ATOM     34  C   UNL     1     113.963 130.471 138.299  0.00  0.00    +0.000 A 
ATOM     35  C   UNL     1     113.674 129.507 136.920  0.00  0.00    +0.000 A 
ATOM     36  C   UNL     1     114.228 130.743 137.528  0.00  0.00    +0.000 A 
ATOM     37  C   UNL     1     114.083 130.258 136.834  0.00  0.00    +0.000 A 
BRANCH  30  39
ATOM     38  O   UNL     1     111.209 125.383 138.825  0.00  0.00    +0.000 OA
ATOM     39  C   UNL     1     112.381 127.550 138.594  0.00  0.00    +0.000 A 
ATOM     40  C   UNL     1     111.575 127.498 138.429  0.00  0.00    +0.000 A 
ATOM     41  C   UNL     1     112.797 126.880 138.836  0.00  0.00    +0.000 A 
ATOM     42  C   UNL     1     111.184 126.776 138.505  0.00  0.00    +0.000 A 
ATOM     43  C   UNL     1     112.407 126.157 138.913  0.00  0.00    +0.000 A 
ATOM     44  C   UNL     1     111.599 126.105 138.747  0.00  0.00    +0.000 A 
BRANCH  42  45
ATOM     45  O   UNL     1     110.378 126.723 138.340  0.00  0.00    +0.000 OA
ATOM     46  C   UNL     1     109.963 127.391 138.088  0.00  0.00    +0.000 C 
ENDBRANCH  42  45
ENDBRANCH  30  39
ENDBRANCH  25  29
ENDBRANCH   8  25
BRANCH   4  47
ATOM     47  C   UNL     1     110.869 130.623 140.537  0.00  0.00    +0.000 C 
BRANCH  47  48
ATOM     48  O   UNL     1     110.259 130.371 140.042  0.00  0.00    +0.000 OA
BRANCH  48  54
ATOM     49  O   UNL     1     110.352 131.431 139.089  0.00  0.00    +0.000 OA
ATOM     50  O   UNL     1     108.615 130.390 139.904  0.00  0.00    +0.000 OA
ATOM     51  O   UNL     1     107.885 131.461 138.882  0.00  0.00    +0.000 OA
ATOM     52  O   UNL     1     108.800 132.512 137.998  0.00  0.00    +0.000 OA
ATOM     53  C   UNL     1     109.073 130.916 139.461  0.00  0.00    +0.000 C 
ATOM     54  C   UNL     1     109.895 130.906 139.530  0.00  0.00    +0.000 C 
ATOM     55  C   UNL     1     108.707 131.451 138.951  0.00  0.00    +0.000 C 
ATOM     56  C   UNL     1     109.165 131.976 138.509  0.00  0.00    +0.000 C 
ATOM     57  C   UNL     1     109.987 131.966 138.578  0.00  0.00    +0.000 C 
BRANCH  57  59
ATOM     58  O   UNL     1     111.107 132.219 137.727  0.00  0.00    +0.000 OA
ATOM     59  C   UNL     1     110.444 132.492 138.136  0.00  0.00    +0.000 C 
ENDBRANCH  57  59
ENDBRANCH  48  54
ENDBRANCH  47  48
ENDBRANCH   4  47
TORSDOF 14
ENDMDL
MODEL 10
REMARK VINA RESULT:      -9.9      2.585      4.470
REMARK  Name = 14757905
REMARK  14 active torsions:
REMARK  status: ('A' for Active; 'I' for Inactive)
REMARK    1  A    between atoms: O_2  and  C_26
REMARK    2  A    between atoms: O_2  and  C_30
REMARK    3  A    between atoms: O_4  and  C_22
REMARK    4  A    between atoms: O_4  and  C_34
REMARK    5  A    between atoms: O_6  and  C_29
REMARK    6  A    between atoms: O_6  and  C_33
REMARK    7  A    between atoms: O_16  and  C_49
REMARK    8  A    between atoms: O_18  and  C_54
REMARK    9  A    between atoms: O_19  and  C_55
REMARK   10  A    between atoms: C_21  and  C_30
REMARK   11  A    between atoms: C_31  and  C_32
REMARK   12  A    between atoms: C_34  and  C_37
REMARK   13  A    between atoms: C_35  and  C_39
REMARK   14  A    between atoms: C_41  and  C_48
REMARK                            x       y       z     vdW  Elec       q    Type
REMARK                         _______ _______ _______ _____ _____    ______ ____
ROOT
ATOM      1  O   UNL     1     111.420 127.285 138.126  0.00  0.00    +0.000 OA
ATOM      2  O   UNL     1     110.673 126.521 140.360  0.00  0.00    +0.000 OA
ATOM      3  O   UNL     1     110.759 125.450 139.108  0.00  0.00    +0.000 OA
ATOM      4  C   UNL     1     111.377 127.821 138.753  0.00  0.00    +0.000 C 
ATOM      5  C   UNL     1     111.128 127.566 139.497  0.00  0.00    +0.000 C 
ATOM      6  C   UNL     1     110.922 126.776 139.615  0.00  0.00    +0.000 C 
ATOM      7  C   UNL     1     110.965 126.240 138.989  0.00  0.00    +0.000 C 
ATOM      8  C   UNL     1     111.214 126.495 138.245  0.00  0.00    +0.000 C 
ENDROOT
BRANCH   5   9
ATOM      9  O   UNL     1     111.085 128.102 140.124  0.00  0.00    +0.000 OA
BRANCH   9  11
ATOM     10  O   UNL     1     112.172 127.534 140.859  0.00  0.00    +0.000 OA
ATOM     11  C   UNL     1     111.727 128.192 140.633  0.00  0.00    +0.000 C 
BRANCH  11  12
ATOM     12  C   UNL     1     111.925 128.940 140.918  0.00  0.00    +0.000 C 
ATOM     13  C   UNL     1     112.415 129.015 141.579  0.00  0.00    +0.000 C 
BRANCH  13  15
ATOM     14  O   UNL     1     113.207 132.008 142.719  0.00  0.00    +0.000 OA
ATOM     15  C   UNL     1     112.613 129.763 141.864  0.00  0.00    +0.000 A 
ATOM     16  C   UNL     1     113.255 130.170 141.542  0.00  0.00    +0.000 A 
ATOM     17  C   UNL     1     112.169 130.104 142.469  0.00  0.00    +0.000 A 
ATOM     18  C   UNL     1     112.367 130.852 142.754  0.00  0.00    +0.000 A 
ATOM     19  C   UNL     1     113.453 130.918 141.827  0.00  0.00    +0.000 A 
ATOM     20  C   UNL     1     113.009 131.260 142.434  0.00  0.00    +0.000 A 
BRANCH  18  21
ATOM     21  O   UNL     1     111.923 131.194 143.361  0.00  0.00    +0.000 OA
ATOM     22  C   UNL     1     111.760 130.763 144.045  0.00  0.00    +0.000 C 
ENDBRANCH  18  21
BRANCH  19  23
ATOM     23  O   UNL     1     114.094 131.326 141.507  0.00  0.00    +0.000 OA
ATOM     24  C   UNL     1     114.665 130.920 141.070  0.00  0.00    +0.000 C 
ENDBRANCH  19  23
ENDBRANCH  13  15
ENDBRANCH  11  12
ENDBRANCH   9  11
ENDBRANCH   5   9
BRANCH   8  25
ATOM     25  O   UNL     1     111.257 125.960 137.619  0.00  0.00    +0.000 OA
BRANCH  25  29
ATOM     26  O   UNL     1     112.746 125.581 136.069  0.00  0.00    +0.000 OA
ATOM     27  O   UNL     1     114.045 125.584 138.650  0.00  0.00    +0.000 OA
ATOM     28  O   UNL     1     115.618 125.119 136.235  0.00  0.00    +0.000 OA
ATOM     29  C   UNL     1     111.982 125.808 137.254  0.00  0.00    +0.000 A 
ATOM     30  C   UNL     1     112.023 125.732 136.433  0.00  0.00    +0.000 A 
ATOM     31  C   UNL     1     112.665 125.733 137.710  0.00  0.00    +0.000 A 
ATOM     32  C   UNL     1     113.390 125.582 137.345  0.00  0.00    +0.000 A 
ATOM     33  C   UNL     1     113.431 125.506 136.524  0.00  0.00    +0.000 A 
ATOM     34  C   UNL     1     114.094 125.506 137.830  0.00  0.00    +0.000 A 
ATOM     35  C   UNL     1     114.179 125.349 136.133  0.00  0.00    +0.000 A 
ATOM     36  C   UNL     1     114.852 125.349 137.456  0.00  0.00    +0.000 A 
ATOM     37  C   UNL     1     114.895 125.270 136.602  0.00  0.00    +0.000 A 
BRANCH  30  39
ATOM     38  O   UNL     1     109.286 126.030 134.613  0.00  0.00    +0.000 OA
ATOM     39  C   UNL     1     111.338 125.807 135.978  0.00  0.00    +0.000 A 
ATOM     40  C   UNL     1     111.130 126.541 135.664  0.00  0.00    +0.000 A 
ATOM     41  C   UNL     1     110.863 125.148 135.837  0.00  0.00    +0.000 A 
ATOM     42  C   UNL     1     110.446 126.616 135.209  0.00  0.00    +0.000 A 
ATOM     43  C   UNL     1     110.179 125.222 135.383  0.00  0.00    +0.000 A 
ATOM     44  C   UNL     1     109.970 125.956 135.068  0.00  0.00    +0.000 A 
BRANCH  42  45
ATOM     45  O   UNL     1     110.237 127.349 134.895  0.00  0.00    +0.000 OA
ATOM     46  C   UNL     1     110.821 127.859 134.613  0.00  0.00    +0.000 C 
ENDBRANCH  42  45
ENDBRANCH  30  39
ENDBRANCH  25  29
ENDBRANCH   8  25
BRANCH   4  47
ATOM     47  C   UNL     1     111.583 128.611 138.635  0.00  0.00    +0.000 C 
BRANCH  47  48
ATOM     48  O   UNL     1     111.980 128.836 137.948  0.00  0.00    +0.000 OA
BRANCH  48  54
ATOM     49  O   UNL     1     111.387 130.123 137.763  0.00  0.00    +0.000 OA
ATOM     50  O   UNL     1     113.456 129.460 137.554  0.00  0.00    +0.000 OA
ATOM     51  O   UNL     1     113.601 131.059 137.173  0.00  0.00    +0.000 OA
ATOM     52  O   UNL     1     112.269 132.034 137.185  0.00  0.00    +0.000 OA
ATOM     53  C   UNL     1     112.790 129.948 137.561  0.00  0.00    +0.000 C 
ATOM     54  C   UNL     1     112.052 129.636 137.757  0.00  0.00    +0.000 C 
ATOM     55  C   UNL     1     112.863 130.747 137.370  0.00  0.00    +0.000 C 
ATOM     56  C   UNL     1     112.197 131.234 137.376  0.00  0.00    +0.000 C 
ATOM     57  C   UNL     1     111.459 130.922 137.573  0.00  0.00    +0.000 C 
BRANCH  57  59
ATOM     58  O   UNL     1     110.098 131.163 137.210  0.00  0.00    +0.000 OA
ATOM     59  C   UNL     1     110.794 131.410 137.579  0.00  0.00    +0.000 C 
ENDBRANCH  57  59
ENDBRANCH  48  54
ENDBRANCH  47  48
ENDBRANCH   4  47
TORSDOF 14
ENDMDL
