MODEL 1
REMARK VINA RESULT:      -9.4      0.000      0.000
REMARK  Name = 
REMARK  3 active torsions:
REMARK  status: ('A' for Active; 'I' for Inactive)
REMARK    1  A    between atoms: C_13  and  C_16
REMARK    2  A    between atoms: C_15  and  C_17
REMARK    3  A    between atoms: C_24  and  C_26
REMARK                            x       y       z     vdW  Elec       q    Type
REMARK                         _______ _______ _______ _____ _____    ______ ____
ROOT
ATOM      1  O   UNL     1     104.423 127.583 140.845  0.00  0.00    +0.000 OA
ATOM      2  O   UNL     1     105.839 128.245 143.911  0.00  0.00    +0.000 OA
ATOM      3  O   UNL     1     103.504 130.451 142.600  0.00  0.00    +0.000 OA
ATOM      4  O   UNL     1     103.248 128.657 140.146  0.00  0.00    +0.000 OA
ATOM      5  C   UNL     1     105.131 127.913 142.378  0.00  0.00    +0.000 A 
ATOM      6  C   UNL     1     104.508 128.164 141.645  0.00  0.00    +0.000 A 
ATOM      7  C   UNL     1     105.217 128.496 143.179  0.00  0.00    +0.000 A 
ATOM      8  C   UNL     1     103.971 128.998 141.713  0.00  0.00    +0.000 A 
ATOM      9  C   UNL     1     104.679 129.329 143.247  0.00  0.00    +0.000 A 
ATOM     10  C   UNL     1     104.056 129.580 142.514  0.00  0.00    +0.000 A 
ATOM     11  C   UNL     1     103.327 129.246 140.942  0.00  0.00    +0.000 A 
ATOM     12  C   UNL     1     102.852 130.720 141.840  0.00  0.00    +0.000 A 
ATOM     13  C   UNL     1     102.763 130.113 141.006  0.00  0.00    +0.000 A 
ENDROOT
BRANCH   5  20
ATOM     14  O   UNL     1     105.332 126.238 142.715  0.00  0.00    +0.000 OA
ATOM     15  O   UNL     1     106.877 127.933 141.429  0.00  0.00    +0.000 OA
ATOM     16  O   UNL     1     107.953 126.266 141.292  0.00  0.00    +0.000 OA
ATOM     17  O   UNL     1     107.281 124.581 142.103  0.00  0.00    +0.000 OA
ATOM     18  C   UNL     1     106.541 127.090 141.835  0.00  0.00    +0.000 C 
ATOM     19  C   UNL     1     107.079 126.256 141.766  0.00  0.00    +0.000 C 
ATOM     20  C   UNL     1     105.668 127.080 142.309  0.00  0.00    +0.000 C 
ATOM     21  C   UNL     1     106.743 125.414 142.171  0.00  0.00    +0.000 C 
ATOM     22  C   UNL     1     105.870 125.405 142.646  0.00  0.00    +0.000 C 
BRANCH  22  24
ATOM     23  O   UNL     1     105.141 124.572 143.964  0.00  0.00    +0.000 OA
ATOM     24  C   UNL     1     105.534 124.562 143.052  0.00  0.00    +0.000 C 
ENDBRANCH  22  24
ENDBRANCH   5  20
BRANCH  12  26
ATOM     25  O   UNL     1     100.710 134.056 142.125  0.00  0.00    +0.000 OA
ATOM     26  C   UNL     1     102.317 131.554 141.912  0.00  0.00    +0.000 A 
ATOM     27  C   UNL     1     102.715 132.424 141.644  0.00  0.00    +0.000 A 
ATOM     28  C   UNL     1     101.383 131.518 142.251  0.00  0.00    +0.000 A 
ATOM     29  C   UNL     1     102.179 133.259 141.715  0.00  0.00    +0.000 A 
ATOM     30  C   UNL     1     100.848 132.352 142.322  0.00  0.00    +0.000 A 
ATOM     31  C   UNL     1     101.245 133.223 142.054  0.00  0.00    +0.000 A 
ENDBRANCH  12  26
TORSDOF 3
ENDMDL
MODEL 2
REMARK VINA RESULT:      -8.9      7.600     10.021
REMARK  Name = 
REMARK  3 active torsions:
REMARK  status: ('A' for Active; 'I' for Inactive)
REMARK    1  A    between atoms: C_13  and  C_16
REMARK    2  A    between atoms: C_15  and  C_17
REMARK    3  A    between atoms: C_24  and  C_26
REMARK                            x       y       z     vdW  Elec       q    Type
REMARK                         _______ _______ _______ _____ _____    ______ ____
ROOT
ATOM      1  O   UNL     1     112.495 131.978 143.285  0.00  0.00    +0.000 OA
ATOM      2  O   UNL     1     110.736 129.721 145.198  0.00  0.00    +0.000 OA
ATOM      3  O   UNL     1     112.235 128.658 142.254  0.00  0.00    +0.000 OA
ATOM      4  O   UNL     1     113.264 131.494 141.803  0.00  0.00    +0.000 OA
ATOM      5  C   UNL     1     111.616 130.850 144.242  0.00  0.00    +0.000 A 
ATOM      6  C   UNL     1     112.159 131.056 143.435  0.00  0.00    +0.000 A 
ATOM      7  C   UNL     1     111.279 129.927 144.392  0.00  0.00    +0.000 A 
ATOM      8  C   UNL     1     112.365 130.339 142.778  0.00  0.00    +0.000 A 
ATOM      9  C   UNL     1     111.485 129.210 143.735  0.00  0.00    +0.000 A 
ATOM     10  C   UNL     1     112.029 129.415 142.929  0.00  0.00    +0.000 A 
ATOM     11  C   UNL     1     112.932 130.568 141.944  0.00  0.00    +0.000 A 
ATOM     12  C   UNL     1     112.800 128.864 141.411  0.00  0.00    +0.000 A 
ATOM     13  C   UNL     1     113.151 129.826 141.255  0.00  0.00    +0.000 A 
ENDROOT
BRANCH   5  20
ATOM     14  O   UNL     1     112.006 131.713 145.678  0.00  0.00    +0.000 OA
ATOM     15  O   UNL     1     110.009 131.992 143.992  0.00  0.00    +0.000 OA
ATOM     16  O   UNL     1     109.595 133.428 145.304  0.00  0.00    +0.000 OA
ATOM     17  O   UNL     1     110.789 133.720 146.865  0.00  0.00    +0.000 OA
ATOM     18  C   UNL     1     110.606 132.139 144.773  0.00  0.00    +0.000 C 
ATOM     19  C   UNL     1     110.399 132.856 145.429  0.00  0.00    +0.000 C 
ATOM     20  C   UNL     1     111.410 131.567 144.898  0.00  0.00    +0.000 C 
ATOM     21  C   UNL     1     110.996 133.003 146.209  0.00  0.00    +0.000 C 
ATOM     22  C   UNL     1     111.800 132.431 146.334  0.00  0.00    +0.000 C 
BRANCH  22  24
ATOM     23  O   UNL     1     113.307 132.178 147.126  0.00  0.00    +0.000 OA
ATOM     24  C   UNL     1     112.397 132.578 147.115  0.00  0.00    +0.000 C 
ENDBRANCH  22  24
ENDBRANCH   5  20
BRANCH  12  26
ATOM     25  O   UNL     1     113.617 125.987 138.793  0.00  0.00    +0.000 OA
ATOM     26  C   UNL     1     113.005 128.145 140.757  0.00  0.00    +0.000 A 
ATOM     27  C   UNL     1     112.349 127.921 140.044  0.00  0.00    +0.000 A 
ATOM     28  C   UNL     1     113.865 127.649 140.815  0.00  0.00    +0.000 A 
ATOM     29  C   UNL     1     112.553 127.201 139.389  0.00  0.00    +0.000 A 
ATOM     30  C   UNL     1     114.069 126.931 140.161  0.00  0.00    +0.000 A 
ATOM     31  C   UNL     1     113.414 126.706 139.447  0.00  0.00    +0.000 A 
ENDBRANCH  12  26
TORSDOF 3
ENDMDL
MODEL 3
REMARK VINA RESULT:      -8.8      6.817      8.694
REMARK  Name = 
REMARK  3 active torsions:
REMARK  status: ('A' for Active; 'I' for Inactive)
REMARK    1  A    between atoms: C_13  and  C_16
REMARK    2  A    between atoms: C_15  and  C_17
REMARK    3  A    between atoms: C_24  and  C_26
REMARK                            x       y       z     vdW  Elec       q    Type
REMARK                         _______ _______ _______ _____ _____    ______ ____
ROOT
ATOM      1  O   UNL     1     111.675 131.466 141.813  0.00  0.00    +0.000 OA
ATOM      2  O   UNL     1     111.348 128.272 143.052  0.00  0.00    +0.000 OA
ATOM      3  O   UNL     1     111.832 130.912 145.252  0.00  0.00    +0.000 OA
ATOM      4  O   UNL     1     111.919 132.822 142.874  0.00  0.00    +0.000 OA
ATOM      5  C   UNL     1     111.512 129.869 142.432  0.00  0.00    +0.000 A 
ATOM      6  C   UNL     1     111.646 130.842 142.585  0.00  0.00    +0.000 A 
ATOM      7  C   UNL     1     111.483 129.244 143.204  0.00  0.00    +0.000 A 
ATOM      8  C   UNL     1     111.752 131.190 143.510  0.00  0.00    +0.000 A 
ATOM      9  C   UNL     1     111.589 129.592 144.130  0.00  0.00    +0.000 A 
ATOM     10  C   UNL     1     111.724 130.565 144.282  0.00  0.00    +0.000 A 
ATOM     11  C   UNL     1     111.892 132.205 143.653  0.00  0.00    +0.000 A 
ATOM     12  C   UNL     1     111.973 131.924 145.419  0.00  0.00    +0.000 A 
ATOM     13  C   UNL     1     112.003 132.575 144.614  0.00  0.00    +0.000 A 
ENDROOT
BRANCH   5  20
ATOM     14  O   UNL     1     110.502 129.457 141.102  0.00  0.00    +0.000 OA
ATOM     15  O   UNL     1     113.110 129.304 141.395  0.00  0.00    +0.000 OA
ATOM     16  O   UNL     1     112.899 128.608 139.544  0.00  0.00    +0.000 OA
ATOM     17  O   UNL     1     111.090 128.479 138.732  0.00  0.00    +0.000 OA
ATOM     18  C   UNL     1     112.205 129.239 140.989  0.00  0.00    +0.000 C 
ATOM     19  C   UNL     1     112.100 128.891 140.063  0.00  0.00    +0.000 C 
ATOM     20  C   UNL     1     111.406 129.522 141.508  0.00  0.00    +0.000 C 
ATOM     21  C   UNL     1     111.196 128.827 139.657  0.00  0.00    +0.000 C 
ATOM     22  C   UNL     1     110.396 129.109 140.176  0.00  0.00    +0.000 C 
BRANCH  22  24
ATOM     23  O   UNL     1     108.688 128.985 140.352  0.00  0.00    +0.000 OA
ATOM     24  C   UNL     1     109.492 129.045 139.770  0.00  0.00    +0.000 C 
ENDBRANCH  22  24
ENDBRANCH   5  20
BRANCH  12  26
ATOM     25  O   UNL     1     112.395 133.303 149.123  0.00  0.00    +0.000 OA
ATOM     26  C   UNL     1     112.079 132.269 146.345  0.00  0.00    +0.000 A 
ATOM     27  C   UNL     1     111.374 132.845 146.744  0.00  0.00    +0.000 A 
ATOM     28  C   UNL     1     112.889 132.038 146.873  0.00  0.00    +0.000 A 
ATOM     29  C   UNL     1     111.479 133.190 147.670  0.00  0.00    +0.000 A 
ATOM     30  C   UNL     1     112.994 132.382 147.798  0.00  0.00    +0.000 A 
ATOM     31  C   UNL     1     112.290 132.959 148.198  0.00  0.00    +0.000 A 
ENDBRANCH  12  26
TORSDOF 3
ENDMDL
MODEL 4
REMARK VINA RESULT:      -8.8      6.854      9.904
REMARK  Name = 
REMARK  3 active torsions:
REMARK  status: ('A' for Active; 'I' for Inactive)
REMARK    1  A    between atoms: C_13  and  C_16
REMARK    2  A    between atoms: C_15  and  C_17
REMARK    3  A    between atoms: C_24  and  C_26
REMARK                            x       y       z     vdW  Elec       q    Type
REMARK                         _______ _______ _______ _____ _____    ______ ____
ROOT
ATOM      1  O   UNL     1     113.013 129.261 141.719  0.00  0.00    +0.000 OA
ATOM      2  O   UNL     1     110.138 127.500 142.412  0.00  0.00    +0.000 OA
ATOM      3  O   UNL     1     112.170 126.482 139.790  0.00  0.00    +0.000 OA
ATOM      4  O   UNL     1     114.064 128.791 140.416  0.00  0.00    +0.000 OA
ATOM      5  C   UNL     1     111.576 128.381 142.066  0.00  0.00    +0.000 A 
ATOM      6  C   UNL     1     112.395 128.511 141.518  0.00  0.00    +0.000 A 
ATOM      7  C   UNL     1     110.957 127.630 141.865  0.00  0.00    +0.000 A 
ATOM      8  C   UNL     1     112.595 127.889 140.768  0.00  0.00    +0.000 A 
ATOM      9  C   UNL     1     111.157 127.008 141.115  0.00  0.00    +0.000 A 
ATOM     10  C   UNL     1     111.976 127.138 140.567  0.00  0.00    +0.000 A 
ATOM     11  C   UNL     1     113.451 128.037 140.206  0.00  0.00    +0.000 A 
ATOM     12  C   UNL     1     113.021 126.611 139.214  0.00  0.00    +0.000 A 
ATOM     13  C   UNL     1     113.666 127.393 139.424  0.00  0.00    +0.000 A 
ENDROOT
BRANCH   5  20
ATOM     14  O   UNL     1     111.691 128.791 143.733  0.00  0.00    +0.000 OA
ATOM     15  O   UNL     1     110.547 130.047 141.727  0.00  0.00    +0.000 OA
ATOM     16  O   UNL     1     110.147 131.291 143.225  0.00  0.00    +0.000 OA
ATOM     17  O   UNL     1     110.777 130.869 145.062  0.00  0.00    +0.000 OA
ATOM     18  C   UNL     1     110.862 129.836 142.646  0.00  0.00    +0.000 C 
ATOM     19  C   UNL     1     110.662 130.458 143.395  0.00  0.00    +0.000 C 
ATOM     20  C   UNL     1     111.377 129.002 142.815  0.00  0.00    +0.000 C 
ATOM     21  C   UNL     1     110.977 130.247 144.313  0.00  0.00    +0.000 C 
ATOM     22  C   UNL     1     111.492 129.413 144.482  0.00  0.00    +0.000 C 
BRANCH  22  24
ATOM     23  O   UNL     1     111.940 128.256 145.675  0.00  0.00    +0.000 OA
ATOM     24  C   UNL     1     111.807 129.202 145.401  0.00  0.00    +0.000 C 
ENDBRANCH  22  24
ENDBRANCH   5  20
BRANCH  12  26
ATOM     25  O   UNL     1     113.807 124.118 136.219  0.00  0.00    +0.000 OA
ATOM     26  C   UNL     1     113.218 125.988 138.465  0.00  0.00    +0.000 A 
ATOM     27  C   UNL     1     112.476 125.632 137.907  0.00  0.00    +0.000 A 
ATOM     28  C   UNL     1     114.156 125.719 138.274  0.00  0.00    +0.000 A 
ATOM     29  C   UNL     1     112.672 125.009 137.157  0.00  0.00    +0.000 A 
ATOM     30  C   UNL     1     114.352 125.096 137.526  0.00  0.00    +0.000 A 
ATOM     31  C   UNL     1     113.611 124.741 136.967  0.00  0.00    +0.000 A 
ENDBRANCH  12  26
TORSDOF 3
ENDMDL
MODEL 5
REMARK VINA RESULT:      -8.7      7.690      8.583
REMARK  Name = 
REMARK  3 active torsions:
REMARK  status: ('A' for Active; 'I' for Inactive)
REMARK    1  A    between atoms: C_13  and  C_16
REMARK    2  A    between atoms: C_15  and  C_17
REMARK    3  A    between atoms: C_24  and  C_26
REMARK                            x       y       z     vdW  Elec       q    Type
REMARK                         _______ _______ _______ _____ _____    ______ ____
ROOT
ATOM      1  O   UNL     1     111.669 128.184 142.924  0.00  0.00    +0.000 OA
ATOM      2  O   UNL     1     112.971 130.609 140.857  0.00  0.00    +0.000 OA
ATOM      3  O   UNL     1     111.976 131.462 144.070  0.00  0.00    +0.000 OA
ATOM      4  O   UNL     1     111.156 128.561 144.541  0.00  0.00    +0.000 OA
ATOM      5  C   UNL     1     112.320 129.396 141.890  0.00  0.00    +0.000 A 
ATOM      6  C   UNL     1     111.937 129.127 142.767  0.00  0.00    +0.000 A 
ATOM      7  C   UNL     1     112.588 130.340 141.733  0.00  0.00    +0.000 A 
ATOM      8  C   UNL     1     111.821 129.803 143.487  0.00  0.00    +0.000 A 
ATOM      9  C   UNL     1     112.473 131.016 142.453  0.00  0.00    +0.000 A 
ATOM     10  C   UNL     1     112.089 130.747 143.330  0.00  0.00    +0.000 A 
ATOM     11  C   UNL     1     111.421 129.508 144.395  0.00  0.00    +0.000 A 
ATOM     12  C   UNL     1     111.577 131.189 144.987  0.00  0.00    +0.000 A 
ATOM     13  C   UNL     1     111.298 130.206 145.150  0.00  0.00    +0.000 A 
ENDROOT
BRANCH   5  20
ATOM     14  O   UNL     1     113.268 128.182 141.123  0.00  0.00    +0.000 OA
ATOM     15  O   UNL     1     110.882 129.123 140.546  0.00  0.00    +0.000 OA
ATOM     16  O   UNL     1     111.111 127.772 139.105  0.00  0.00    +0.000 OA
ATOM     17  O   UNL     1     112.778 126.694 139.010  0.00  0.00    +0.000 OA
ATOM     18  C   UNL     1     111.716 128.584 140.498  0.00  0.00    +0.000 C 
ATOM     19  C   UNL     1     111.830 127.908 139.778  0.00  0.00    +0.000 C 
ATOM     20  C   UNL     1     112.435 128.721 141.171  0.00  0.00    +0.000 C 
ATOM     21  C   UNL     1     112.663 127.370 139.730  0.00  0.00    +0.000 C 
ATOM     22  C   UNL     1     113.382 127.507 140.403  0.00  0.00    +0.000 C 
BRANCH  22  24
ATOM     23  O   UNL     1     114.942 127.116 141.018  0.00  0.00    +0.000 OA
ATOM     24  C   UNL     1     114.216 126.968 140.355  0.00  0.00    +0.000 C 
ENDBRANCH  22  24
ENDBRANCH   5  20
BRANCH  12  26
ATOM     25  O   UNL     1     111.123 133.900 147.858  0.00  0.00    +0.000 OA
ATOM     26  C   UNL     1     111.463 131.867 145.705  0.00  0.00    +0.000 A 
ATOM     27  C   UNL     1     112.212 132.059 146.330  0.00  0.00    +0.000 A 
ATOM     28  C   UNL     1     110.602 132.354 145.798  0.00  0.00    +0.000 A 
ATOM     29  C   UNL     1     112.098 132.737 147.049  0.00  0.00    +0.000 A 
ATOM     30  C   UNL     1     110.488 133.031 146.515  0.00  0.00    +0.000 A 
ATOM     31  C   UNL     1     111.236 133.223 147.141  0.00  0.00    +0.000 A 
ENDBRANCH  12  26
TORSDOF 3
ENDMDL
MODEL 6
REMARK VINA RESULT:      -8.7      6.436      8.372
REMARK  Name = 
REMARK  3 active torsions:
REMARK  status: ('A' for Active; 'I' for Inactive)
REMARK    1  A    between atoms: C_13  and  C_16
REMARK    2  A    between atoms: C_15  and  C_17
REMARK    3  A    between atoms: C_24  and  C_26
REMARK                            x       y       z     vdW  Elec       q    Type
REMARK                         _______ _______ _______ _____ _____    ______ ____
ROOT
ATOM      1  O   UNL     1     111.060 131.725 141.781  0.00  0.00    +0.000 OA
ATOM      2  O   UNL     1     109.444 128.971 143.068  0.00  0.00    +0.000 OA
ATOM      3  O   UNL     1     111.102 131.134 145.217  0.00  0.00    +0.000 OA
ATOM      4  O   UNL     1     111.904 132.837 142.816  0.00  0.00    +0.000 OA
ATOM      5  C   UNL     1     110.252 130.348 142.424  0.00  0.00    +0.000 A 
ATOM      6  C   UNL     1     110.797 131.168 142.560  0.00  0.00    +0.000 A 
ATOM      7  C   UNL     1     109.989 129.791 143.204  0.00  0.00    +0.000 A 
ATOM      8  C   UNL     1     111.079 131.431 143.477  0.00  0.00    +0.000 A 
ATOM      9  C   UNL     1     110.271 130.053 144.120  0.00  0.00    +0.000 A 
ATOM     10  C   UNL     1     110.816 130.873 144.256  0.00  0.00    +0.000 A 
ATOM     11  C   UNL     1     111.647 132.287 143.603  0.00  0.00    +0.000 A 
ATOM     12  C   UNL     1     111.670 131.987 145.367  0.00  0.00    +0.000 A 
ATOM     13  C   UNL     1     111.944 132.567 144.555  0.00  0.00    +0.000 A 
ENDROOT
BRANCH   5  20
ATOM     14  O   UNL     1     110.532 129.465 140.974  0.00  0.00    +0.000 OA
ATOM     15  O   UNL     1     108.564 131.067 141.660  0.00  0.00    +0.000 OA
ATOM     16  O   UNL     1     107.999 130.543 139.827  0.00  0.00    +0.000 OA
ATOM     17  O   UNL     1     109.123 129.300 138.759  0.00  0.00    +0.000 OA
ATOM     18  C   UNL     1     109.126 130.445 141.126  0.00  0.00    +0.000 C 
ATOM     19  C   UNL     1     108.844 130.183 140.209  0.00  0.00    +0.000 C 
ATOM     20  C   UNL     1     109.971 130.086 141.508  0.00  0.00    +0.000 C 
ATOM     21  C   UNL     1     109.405 129.562 139.676  0.00  0.00    +0.000 C 
ATOM     22  C   UNL     1     110.250 129.202 140.058  0.00  0.00    +0.000 C 
BRANCH  22  24
ATOM     23  O   UNL     1     111.622 128.170 139.928  0.00  0.00    +0.000 OA
ATOM     24  C   UNL     1     110.812 128.581 139.523  0.00  0.00    +0.000 C 
ENDBRANCH  22  24
ENDBRANCH   5  20
BRANCH  12  26
ATOM     25  O   UNL     1     112.790 133.027 149.036  0.00  0.00    +0.000 OA
ATOM     26  C   UNL     1     111.951 132.246 146.284  0.00  0.00    +0.000 A 
ATOM     27  C   UNL     1     111.385 132.863 146.820  0.00  0.00    +0.000 A 
ATOM     28  C   UNL     1     112.796 131.890 146.666  0.00  0.00    +0.000 A 
ATOM     29  C   UNL     1     111.665 133.124 147.738  0.00  0.00    +0.000 A 
ATOM     30  C   UNL     1     113.076 132.150 147.583  0.00  0.00    +0.000 A 
ATOM     31  C   UNL     1     112.511 132.767 148.120  0.00  0.00    +0.000 A 
ENDBRANCH  12  26
TORSDOF 3
ENDMDL
MODEL 7
REMARK VINA RESULT:      -8.7      4.995      9.079
REMARK  Name = 
REMARK  3 active torsions:
REMARK  status: ('A' for Active; 'I' for Inactive)
REMARK    1  A    between atoms: C_13  and  C_16
REMARK    2  A    between atoms: C_15  and  C_17
REMARK    3  A    between atoms: C_24  and  C_26
REMARK                            x       y       z     vdW  Elec       q    Type
REMARK                         _______ _______ _______ _____ _____    ______ ____
ROOT
ATOM      1  O   UNL     1     108.695 126.516 139.083  0.00  0.00    +0.000 OA
ATOM      2  O   UNL     1     110.561 126.903 141.949  0.00  0.00    +0.000 OA
ATOM      3  O   UNL     1     112.159 126.140 138.964  0.00  0.00    +0.000 OA
ATOM      4  O   UNL     1     109.448 126.134 137.563  0.00  0.00    +0.000 OA
ATOM      5  C   UNL     1     109.627 126.710 140.516  0.00  0.00    +0.000 A 
ATOM      6  C   UNL     1     109.575 126.519 139.541  0.00  0.00    +0.000 A 
ATOM      7  C   UNL     1     110.509 126.713 140.975  0.00  0.00    +0.000 A 
ATOM      8  C   UNL     1     110.405 126.331 139.027  0.00  0.00    +0.000 A 
ATOM      9  C   UNL     1     111.338 126.525 140.460  0.00  0.00    +0.000 A 
ATOM     10  C   UNL     1     111.286 126.334 139.486  0.00  0.00    +0.000 A 
ATOM     11  C   UNL     1     110.335 126.134 138.013  0.00  0.00    +0.000 A 
ATOM     12  C   UNL     1     112.112 125.940 137.949  0.00  0.00    +0.000 A 
ATOM     13  C   UNL     1     111.195 125.937 137.470  0.00  0.00    +0.000 A 
ENDROOT
BRANCH   5  20
ATOM     14  O   UNL     1     108.473 127.831 141.123  0.00  0.00    +0.000 OA
ATOM     15  O   UNL     1     108.621 125.216 141.357  0.00  0.00    +0.000 OA
ATOM     16  O   UNL     1     106.961 125.591 142.386  0.00  0.00    +0.000 OA
ATOM     17  O   UNL     1     106.310 127.459 142.573  0.00  0.00    +0.000 OA
ATOM     18  C   UNL     1     108.295 126.151 141.450  0.00  0.00    +0.000 C 
ATOM     19  C   UNL     1     107.465 126.338 141.965  0.00  0.00    +0.000 C 
ATOM     20  C   UNL     1     108.798 126.898 141.030  0.00  0.00    +0.000 C 
ATOM     21  C   UNL     1     107.139 127.272 142.059  0.00  0.00    +0.000 C 
ATOM     22  C   UNL     1     107.643 128.018 141.638  0.00  0.00    +0.000 C 
BRANCH  22  24
ATOM     23  O   UNL     1     107.367 129.577 140.959  0.00  0.00    +0.000 OA
ATOM     24  C   UNL     1     107.317 128.953 141.732  0.00  0.00    +0.000 C 
ENDBRANCH  22  24
ENDBRANCH   5  20
BRANCH  12  26
ATOM     25  O   UNL     1     115.437 125.191 135.902  0.00  0.00    +0.000 OA
ATOM     26  C   UNL     1     112.943 125.753 137.437  0.00  0.00    +0.000 A 
ATOM     27  C   UNL     1     113.452 126.500 137.024  0.00  0.00    +0.000 A 
ATOM     28  C   UNL     1     113.267 124.818 137.338  0.00  0.00    +0.000 A 
ATOM     29  C   UNL     1     114.284 126.313 136.512  0.00  0.00    +0.000 A 
ATOM     30  C   UNL     1     114.097 124.631 136.826  0.00  0.00    +0.000 A 
ATOM     31  C   UNL     1     114.606 125.378 136.413  0.00  0.00    +0.000 A 
ENDBRANCH  12  26
TORSDOF 3
ENDMDL
MODEL 8
REMARK VINA RESULT:      -8.7      6.999      9.964
REMARK  Name = 
REMARK  3 active torsions:
REMARK  status: ('A' for Active; 'I' for Inactive)
REMARK    1  A    between atoms: C_13  and  C_16
REMARK    2  A    between atoms: C_15  and  C_17
REMARK    3  A    between atoms: C_24  and  C_26
REMARK                            x       y       z     vdW  Elec       q    Type
REMARK                         _______ _______ _______ _____ _____    ______ ____
ROOT
ATOM      1  O   UNL     1     110.972 127.688 141.959  0.00  0.00    +0.000 OA
ATOM      2  O   UNL     1     113.219 130.292 141.820  0.00  0.00    +0.000 OA
ATOM      3  O   UNL     1     113.436 127.726 139.494  0.00  0.00    +0.000 OA
ATOM      4  O   UNL     1     111.039 126.380 140.817  0.00  0.00    +0.000 OA
ATOM      5  C   UNL     1     112.095 128.990 141.890  0.00  0.00    +0.000 A 
ATOM      6  C   UNL     1     111.751 128.129 141.531  0.00  0.00    +0.000 A 
ATOM      7  C   UNL     1     112.875 129.432 141.461  0.00  0.00    +0.000 A 
ATOM      8  C   UNL     1     112.189 127.709 140.743  0.00  0.00    +0.000 A 
ATOM      9  C   UNL     1     113.313 129.012 140.673  0.00  0.00    +0.000 A 
ATOM     10  C   UNL     1     112.970 128.151 140.314  0.00  0.00    +0.000 A 
ATOM     11  C   UNL     1     111.821 126.813 140.381  0.00  0.00    +0.000 A 
ATOM     12  C   UNL     1     113.084 126.829 139.114  0.00  0.00    +0.000 A 
ATOM     13  C   UNL     1     112.271 126.369 139.561  0.00  0.00    +0.000 A 
ENDROOT
BRANCH   5  20
ATOM     14  O   UNL     1     111.940 129.158 143.595  0.00  0.00    +0.000 OA
ATOM     15  O   UNL     1     110.654 130.334 141.627  0.00  0.00    +0.000 OA
ATOM     16  O   UNL     1     109.777 131.173 143.202  0.00  0.00    +0.000 OA
ATOM     17  O   UNL     1     110.343 130.669 145.039  0.00  0.00    +0.000 OA
ATOM     18  C   UNL     1     110.936 130.082 142.546  0.00  0.00    +0.000 C 
ATOM     19  C   UNL     1     110.498 130.501 143.333  0.00  0.00    +0.000 C 
ATOM     20  C   UNL     1     111.657 129.410 142.677  0.00  0.00    +0.000 C 
ATOM     21  C   UNL     1     110.781 130.250 144.251  0.00  0.00    +0.000 C 
ATOM     22  C   UNL     1     111.502 129.578 144.383  0.00  0.00    +0.000 C 
BRANCH  22  24
ATOM     23  O   UNL     1     111.965 128.373 145.522  0.00  0.00    +0.000 OA
ATOM     24  C   UNL     1     111.784 129.326 145.302  0.00  0.00    +0.000 C 
ENDBRANCH  22  24
ENDBRANCH   5  20
BRANCH  12  26
ATOM     25  O   UNL     1     114.842 125.162 135.963  0.00  0.00    +0.000 OA
ATOM     26  C   UNL     1     113.524 126.412 138.326  0.00  0.00    +0.000 A 
ATOM     27  C   UNL     1     113.333 126.753 137.412  0.00  0.00    +0.000 A 
ATOM     28  C   UNL     1     114.155 125.654 138.452  0.00  0.00    +0.000 A 
ATOM     29  C   UNL     1     113.772 126.336 136.624  0.00  0.00    +0.000 A 
ATOM     30  C   UNL     1     114.594 125.238 137.664  0.00  0.00    +0.000 A 
ATOM     31  C   UNL     1     114.403 125.578 136.750  0.00  0.00    +0.000 A 
ENDBRANCH  12  26
TORSDOF 3
ENDMDL
MODEL 9
REMARK VINA RESULT:      -8.6      5.398      9.611
REMARK  Name = 
REMARK  3 active torsions:
REMARK  status: ('A' for Active; 'I' for Inactive)
REMARK    1  A    between atoms: C_13  and  C_16
REMARK    2  A    between atoms: C_15  and  C_17
REMARK    3  A    between atoms: C_24  and  C_26
REMARK                            x       y       z     vdW  Elec       q    Type
REMARK                         _______ _______ _______ _____ _____    ______ ____
ROOT
ATOM      1  O   UNL     1     111.085 127.315 141.143  0.00  0.00    +0.000 OA
ATOM      2  O   UNL     1     108.616 126.437 138.911  0.00  0.00    +0.000 OA
ATOM      3  O   UNL     1     111.944 126.025 138.020  0.00  0.00    +0.000 OA
ATOM      4  O   UNL     1     112.766 127.127 140.744  0.00  0.00    +0.000 OA
ATOM      5  C   UNL     1     109.850 126.876 140.028  0.00  0.00    +0.000 A 
ATOM      6  C   UNL     1     110.814 126.956 140.258  0.00  0.00    +0.000 A 
ATOM      7  C   UNL     1     109.579 126.517 139.141  0.00  0.00    +0.000 A 
ATOM      8  C   UNL     1     111.506 126.678 139.601  0.00  0.00    +0.000 A 
ATOM      9  C   UNL     1     110.271 126.239 138.485  0.00  0.00    +0.000 A 
ATOM     10  C   UNL     1     111.235 126.319 138.715  0.00  0.00    +0.000 A 
ATOM     11  C   UNL     1     112.506 126.767 139.855  0.00  0.00    +0.000 A 
ATOM     12  C   UNL     1     112.951 126.106 138.253  0.00  0.00    +0.000 A 
ATOM     13  C   UNL     1     113.233 126.479 139.176  0.00  0.00    +0.000 A 
ENDROOT
BRANCH   5  20
ATOM     14  O   UNL     1     108.842 128.096 140.704  0.00  0.00    +0.000 OA
ATOM     15  O   UNL     1     109.098 125.548 141.301  0.00  0.00    +0.000 OA
ATOM     16  O   UNL     1     107.713 126.104 142.615  0.00  0.00    +0.000 OA
ATOM     17  O   UNL     1     107.082 127.988 142.655  0.00  0.00    +0.000 OA
ATOM     18  C   UNL     1     108.782 126.490 141.321  0.00  0.00    +0.000 C 
ATOM     19  C   UNL     1     108.090 126.768 141.978  0.00  0.00    +0.000 C 
ATOM     20  C   UNL     1     109.158 127.154 140.684  0.00  0.00    +0.000 C 
ATOM     21  C   UNL     1     107.774 127.709 141.998  0.00  0.00    +0.000 C 
ATOM     22  C   UNL     1     108.150 128.374 141.361  0.00  0.00    +0.000 C 
BRANCH  22  24
ATOM     23  O   UNL     1     107.792 129.844 140.540  0.00  0.00    +0.000 OA
ATOM     24  C   UNL     1     107.834 129.316 141.381  0.00  0.00    +0.000 C 
ENDBRANCH  22  24
ENDBRANCH   5  20
BRANCH  12  26
ATOM     25  O   UNL     1     115.710 124.990 135.617  0.00  0.00    +0.000 OA
ATOM     26  C   UNL     1     113.640 125.827 137.594  0.00  0.00    +0.000 A 
ATOM     27  C   UNL     1     113.916 126.449 136.869  0.00  0.00    +0.000 A 
ATOM     28  C   UNL     1     114.056 124.926 137.659  0.00  0.00    +0.000 A 
ATOM     29  C   UNL     1     114.606 126.170 136.210  0.00  0.00    +0.000 A 
ATOM     30  C   UNL     1     114.745 124.647 137.001  0.00  0.00    +0.000 A 
ATOM     31  C   UNL     1     115.021 125.269 136.276  0.00  0.00    +0.000 A 
ENDBRANCH  12  26
TORSDOF 3
ENDMDL
MODEL 10
REMARK VINA RESULT:      -8.6      7.594      8.655
REMARK  Name = 
REMARK  3 active torsions:
REMARK  status: ('A' for Active; 'I' for Inactive)
REMARK    1  A    between atoms: C_13  and  C_16
REMARK    2  A    between atoms: C_15  and  C_17
REMARK    3  A    between atoms: C_24  and  C_26
REMARK                            x       y       z     vdW  Elec       q    Type
REMARK                         _______ _______ _______ _____ _____    ______ ____
ROOT
ATOM      1  O   UNL     1     112.825 130.663 141.563  0.00  0.00    +0.000 OA
ATOM      2  O   UNL     1     111.221 127.908 142.860  0.00  0.00    +0.000 OA
ATOM      3  O   UNL     1     111.499 130.782 144.785  0.00  0.00    +0.000 OA
ATOM      4  O   UNL     1     112.990 132.126 142.488  0.00  0.00    +0.000 OA
ATOM      5  C   UNL     1     112.023 129.285 142.211  0.00  0.00    +0.000 A 
ATOM      6  C   UNL     1     112.340 130.223 142.309  0.00  0.00    +0.000 A 
ATOM      7  C   UNL     1     111.537 128.844 142.957  0.00  0.00    +0.000 A 
ATOM      8  C   UNL     1     112.170 130.719 143.153  0.00  0.00    +0.000 A 
ATOM      9  C   UNL     1     111.367 129.341 143.802  0.00  0.00    +0.000 A 
ATOM     10  C   UNL     1     111.684 130.278 143.900  0.00  0.00    +0.000 A 
ATOM     11  C   UNL     1     112.505 131.694 143.240  0.00  0.00    +0.000 A 
ATOM     12  C   UNL     1     111.826 131.758 144.894  0.00  0.00    +0.000 A 
ATOM     13  C   UNL     1     112.332 132.218 144.117  0.00  0.00    +0.000 A 
ENDROOT
BRANCH   5  20
ATOM     14  O   UNL     1     113.013 128.237 141.272  0.00  0.00    +0.000 OA
ATOM     15  O   UNL     1     110.722 129.400 140.713  0.00  0.00    +0.000 OA
ATOM     16  O   UNL     1     111.061 128.408 139.024  0.00  0.00    +0.000 OA
ATOM     17  O   UNL     1     112.701 127.303 138.833  0.00  0.00    +0.000 OA
ATOM     18  C   UNL     1     111.543 128.847 140.618  0.00  0.00    +0.000 C 
ATOM     19  C   UNL     1     111.712 128.351 139.773  0.00  0.00    +0.000 C 
ATOM     20  C   UNL     1     112.193 128.790 141.367  0.00  0.00    +0.000 C 
ATOM     21  C   UNL     1     112.532 127.798 139.678  0.00  0.00    +0.000 C 
ATOM     22  C   UNL     1     113.183 127.741 140.427  0.00  0.00    +0.000 C 
BRANCH  22  24
ATOM     23  O   UNL     1     114.744 127.281 140.988  0.00  0.00    +0.000 OA
ATOM     24  C   UNL     1     114.003 127.188 140.331  0.00  0.00    +0.000 C 
ENDBRANCH  22  24
ENDBRANCH   5  20
BRANCH  12  26
ATOM     25  O   UNL     1     111.141 133.732 148.277  0.00  0.00    +0.000 OA
ATOM     26  C   UNL     1     111.654 132.252 145.740  0.00  0.00    +0.000 A 
ATOM     27  C   UNL     1     112.337 132.251 146.463  0.00  0.00    +0.000 A 
ATOM     28  C   UNL     1     110.801 132.746 145.864  0.00  0.00    +0.000 A 
ATOM     29  C   UNL     1     112.166 132.744 147.309  0.00  0.00    +0.000 A 
ATOM     30  C   UNL     1     110.630 133.239 146.709  0.00  0.00    +0.000 A 
ATOM     31  C   UNL     1     111.312 133.239 147.432  0.00  0.00    +0.000 A 
ENDBRANCH  12  26
TORSDOF 3
ENDMDL
