MODEL 1
REMARK VINA RESULT:      -9.2      0.000      0.000
REMARK  Name = 131832977
REMARK  4 active torsions:
REMARK  status: ('A' for Active; 'I' for Inactive)
REMARK    1  A    between atoms: S_1  and  O_7
REMARK    2  A    between atoms: O_5  and  C_22
REMARK    3  A    between atoms: O_7  and  C_24
REMARK    4  A    between atoms: C_12  and  C_14
REMARK                            x       y       z     vdW  Elec       q    Type
REMARK                         _______ _______ _______ _____ _____    ______ ____
ROOT
ATOM      1  O   UNL     1     105.535 124.458 147.889  0.00  0.00    +0.000 OA
ATOM      2  O   UNL     1     105.260 125.186 145.850  0.00  0.00    +0.000 OA
ATOM      3  O   UNL     1     106.858 125.521 146.087  0.00  0.00    +0.000 OA
ATOM      4  O   UNL     1     108.041 125.514 146.912  0.00  0.00    +0.000 OA
ATOM      5  O   UNL     1     107.882 124.410 149.612  0.00  0.00    +0.000 OA
ATOM      6  C   UNL     1     105.177 124.645 147.169  0.00  0.00    +0.000 C 
ATOM      7  C   UNL     1     105.618 124.999 146.568  0.00  0.00    +0.000 C 
ATOM      8  C   UNL     1     106.417 125.167 146.688  0.00  0.00    +0.000 C 
ATOM      9  C   UNL     1     106.775 124.980 147.407  0.00  0.00    +0.000 A 
ATOM     10  C   UNL     1     106.334 124.626 148.007  0.00  0.00    +0.000 A 
ATOM     11  C   UNL     1     107.608 125.160 147.519  0.00  0.00    +0.000 A 
ATOM     12  C   UNL     1     106.696 124.426 148.761  0.00  0.00    +0.000 A 
ATOM     13  C   UNL     1     107.986 124.968 148.265  0.00  0.00    +0.000 A 
ATOM     14  C   UNL     1     107.527 124.599 148.891  0.00  0.00    +0.000 A 
ENDROOT
BRANCH   6  15
ATOM     15  C   UNL     1     104.378 124.477 147.051  0.00  0.00    +0.000 A 
ATOM     16  C   UNL     1     103.800 124.954 147.396  0.00  0.00    +0.000 A 
ATOM     17  C   UNL     1     104.157 123.831 146.586  0.00  0.00    +0.000 A 
ATOM     18  C   UNL     1     103.001 124.785 147.276  0.00  0.00    +0.000 A 
ATOM     19  C   UNL     1     103.358 123.663 146.468  0.00  0.00    +0.000 A 
ATOM     20  C   UNL     1     102.780 124.140 146.813  0.00  0.00    +0.000 A 
BRANCH  18  21
ATOM     21  O   UNL     1     102.423 125.262 147.621  0.00  0.00    +0.000 OA
ATOM     22  C   UNL     1     102.621 125.762 148.248  0.00  0.00    +0.000 C 
ENDBRANCH  18  21
BRANCH  20  23
ATOM     23  O   UNL     1     101.981 123.971 146.694  0.00  0.00    +0.000 OA
BRANCH  23  24
ATOM     24  S   UNL     1     101.759 123.357 146.191  0.00  0.00    +0.000 S 
ATOM     25  O   UNL     1     101.538 122.741 145.687  0.00  0.00    +0.000 OA
ATOM     26  O   UNL     1     101.750 123.881 145.554  0.00  0.00    +0.000 OA
ATOM     27  O   UNL     1     101.769 122.831 146.827  0.00  0.00    +0.000 OA
ENDBRANCH  23  24
ENDBRANCH  20  23
ENDBRANCH   6  15
TORSDOF 4
ENDMDL
MODEL 2
REMARK VINA RESULT:      -8.1     13.536     14.369
REMARK  Name = 131832977
REMARK  4 active torsions:
REMARK  status: ('A' for Active; 'I' for Inactive)
REMARK    1  A    between atoms: S_1  and  O_7
REMARK    2  A    between atoms: O_5  and  C_22
REMARK    3  A    between atoms: O_7  and  C_24
REMARK    4  A    between atoms: C_12  and  C_14
REMARK                            x       y       z     vdW  Elec       q    Type
REMARK                         _______ _______ _______ _____ _____    ______ ____
ROOT
ATOM      1  O   UNL     1     113.707 126.823 136.905  0.00  0.00    +0.000 OA
ATOM      2  O   UNL     1     111.793 127.341 135.993  0.00  0.00    +0.000 OA
ATOM      3  O   UNL     1     111.704 125.693 135.991  0.00  0.00    +0.000 OA
ATOM      4  O   UNL     1     112.265 124.397 136.286  0.00  0.00    +0.000 OA
ATOM      5  O   UNL     1     114.904 124.243 137.529  0.00  0.00    +0.000 OA
ATOM      6  C   UNL     1     113.083 127.271 136.601  0.00  0.00    +0.000 C 
ATOM      7  C   UNL     1     112.416 126.894 136.297  0.00  0.00    +0.000 C 
ATOM      8  C   UNL     1     112.372 126.070 136.296  0.00  0.00    +0.000 C 
ATOM      9  C   UNL     1     112.995 125.623 136.599  0.00  0.00    +0.000 A 
ATOM     10  C   UNL     1     113.662 126.000 136.904  0.00  0.00    +0.000 A 
ATOM     11  C   UNL     1     112.937 124.765 136.592  0.00  0.00    +0.000 A 
ATOM     12  C   UNL     1     114.318 125.545 137.223  0.00  0.00    +0.000 A 
ATOM     13  C   UNL     1     113.583 124.295 136.907  0.00  0.00    +0.000 A 
ATOM     14  C   UNL     1     114.278 124.687 137.225  0.00  0.00    +0.000 A 
ENDROOT
BRANCH   6  15
ATOM     15  C   UNL     1     113.128 128.094 136.603  0.00  0.00    +0.000 A 
ATOM     16  C   UNL     1     113.538 128.487 136.004  0.00  0.00    +0.000 A 
ATOM     17  C   UNL     1     112.763 128.526 137.204  0.00  0.00    +0.000 A 
ATOM     18  C   UNL     1     113.582 129.311 136.006  0.00  0.00    +0.000 A 
ATOM     19  C   UNL     1     112.808 129.350 137.206  0.00  0.00    +0.000 A 
ATOM     20  C   UNL     1     113.217 129.742 136.607  0.00  0.00    +0.000 A 
BRANCH  18  21
ATOM     21  O   UNL     1     113.992 129.703 135.407  0.00  0.00    +0.000 OA
ATOM     22  C   UNL     1     114.483 129.279 134.897  0.00  0.00    +0.000 C 
ENDBRANCH  18  21
BRANCH  20  23
ATOM     23  O   UNL     1     113.261 130.566 136.609  0.00  0.00    +0.000 OA
BRANCH  23  24
ATOM     24  S   UNL     1     112.872 130.999 137.193  0.00  0.00    +0.000 S 
ATOM     25  O   UNL     1     112.481 131.432 137.777  0.00  0.00    +0.000 OA
ATOM     26  O   UNL     1     112.193 131.021 136.724  0.00  0.00    +0.000 OA
ATOM     27  O   UNL     1     113.550 130.977 137.662  0.00  0.00    +0.000 OA
ENDBRANCH  23  24
ENDBRANCH  20  23
ENDBRANCH   6  15
TORSDOF 4
ENDMDL
MODEL 3
REMARK VINA RESULT:      -8.1      1.721      4.702
REMARK  Name = 131832977
REMARK  4 active torsions:
REMARK  status: ('A' for Active; 'I' for Inactive)
REMARK    1  A    between atoms: S_1  and  O_7
REMARK    2  A    between atoms: O_5  and  C_22
REMARK    3  A    between atoms: O_7  and  C_24
REMARK    4  A    between atoms: C_12  and  C_14
REMARK                            x       y       z     vdW  Elec       q    Type
REMARK                         _______ _______ _______ _____ _____    ______ ____
ROOT
ATOM      1  O   UNL     1     103.452 124.280 147.306  0.00  0.00    +0.000 OA
ATOM      2  O   UNL     1     104.633 123.888 145.513  0.00  0.00    +0.000 OA
ATOM      3  O   UNL     1     103.218 123.130 145.127  0.00  0.00    +0.000 OA
ATOM      4  O   UNL     1     101.867 122.739 145.445  0.00  0.00    +0.000 OA
ATOM      5  O   UNL     1     100.730 123.526 148.018  0.00  0.00    +0.000 OA
ATOM      6  C   UNL     1     104.081 124.275 146.772  0.00  0.00    +0.000 C 
ATOM      7  C   UNL     1     104.004 123.892 146.046  0.00  0.00    +0.000 C 
ATOM      8  C   UNL     1     103.296 123.513 145.853  0.00  0.00    +0.000 C 
ATOM      9  C   UNL     1     102.667 123.518 146.386  0.00  0.00    +0.000 A 
ATOM     10  C   UNL     1     102.745 123.901 147.113  0.00  0.00    +0.000 A 
ATOM     11  C   UNL     1     101.935 123.120 146.174  0.00  0.00    +0.000 A 
ATOM     12  C   UNL     1     102.096 123.912 147.677  0.00  0.00    +0.000 A 
ATOM     13  C   UNL     1     101.277 123.121 146.725  0.00  0.00    +0.000 A 
ATOM     14  C   UNL     1     101.358 123.520 147.482  0.00  0.00    +0.000 A 
ENDROOT
BRANCH   6  15
ATOM     15  C   UNL     1     104.788 124.654 146.966  0.00  0.00    +0.000 A 
ATOM     16  C   UNL     1     104.869 125.466 146.842  0.00  0.00    +0.000 A 
ATOM     17  C   UNL     1     105.415 124.220 147.284  0.00  0.00    +0.000 A 
ATOM     18  C   UNL     1     105.577 125.843 147.037  0.00  0.00    +0.000 A 
ATOM     19  C   UNL     1     106.121 124.599 147.477  0.00  0.00    +0.000 A 
ATOM     20  C   UNL     1     106.202 125.410 147.354  0.00  0.00    +0.000 A 
BRANCH  18  21
ATOM     21  O   UNL     1     105.657 126.655 146.913  0.00  0.00    +0.000 OA
ATOM     22  C   UNL     1     104.988 127.123 146.791  0.00  0.00    +0.000 C 
ENDBRANCH  18  21
BRANCH  20  23
ATOM     23  O   UNL     1     106.910 125.788 147.548  0.00  0.00    +0.000 OA
BRANCH  23  24
ATOM     24  S   UNL     1     107.570 125.343 147.761  0.00  0.00    +0.000 S 
ATOM     25  O   UNL     1     108.232 124.898 147.974  0.00  0.00    +0.000 OA
ATOM     26  O   UNL     1     107.820 125.337 146.975  0.00  0.00    +0.000 OA
ATOM     27  O   UNL     1     107.322 125.349 148.547  0.00  0.00    +0.000 OA
ENDBRANCH  23  24
ENDBRANCH  20  23
ENDBRANCH   6  15
TORSDOF 4
ENDMDL
MODEL 4
REMARK VINA RESULT:      -8.1     10.799     11.466
REMARK  Name = 131832977
REMARK  4 active torsions:
REMARK  status: ('A' for Active; 'I' for Inactive)
REMARK    1  A    between atoms: S_1  and  O_7
REMARK    2  A    between atoms: O_5  and  C_22
REMARK    3  A    between atoms: O_7  and  C_24
REMARK    4  A    between atoms: C_12  and  C_14
REMARK                            x       y       z     vdW  Elec       q    Type
REMARK                         _______ _______ _______ _____ _____    ______ ____
ROOT
ATOM      1  O   UNL     1     111.309 133.172 146.751  0.00  0.00    +0.000 OA
ATOM      2  O   UNL     1     113.259 132.294 146.313  0.00  0.00    +0.000 OA
ATOM      3  O   UNL     1     113.320 132.382 147.960  0.00  0.00    +0.000 OA
ATOM      4  O   UNL     1     112.728 132.727 149.229  0.00  0.00    +0.000 OA
ATOM      5  O   UNL     1     110.050 133.894 149.276  0.00  0.00    +0.000 OA
ATOM      6  C   UNL     1     111.950 132.864 146.331  0.00  0.00    +0.000 C 
ATOM      7  C   UNL     1     112.620 132.601 146.733  0.00  0.00    +0.000 C 
ATOM      8  C   UNL     1     112.649 132.645 147.557  0.00  0.00    +0.000 C 
ATOM      9  C   UNL     1     112.010 132.952 147.977  0.00  0.00    +0.000 A 
ATOM     10  C   UNL     1     111.340 133.216 147.574  0.00  0.00    +0.000 A 
ATOM     11  C   UNL     1     112.053 132.993 148.835  0.00  0.00    +0.000 A 
ATOM     12  C   UNL     1     110.667 133.538 148.001  0.00  0.00    +0.000 A 
ATOM     13  C   UNL     1     111.390 133.312 149.278  0.00  0.00    +0.000 A 
ATOM     14  C   UNL     1     110.693 133.586 148.859  0.00  0.00    +0.000 A 
ENDROOT
BRANCH   6  15
ATOM     15  C   UNL     1     111.919 132.821 145.507  0.00  0.00    +0.000 A 
ATOM     16  C   UNL     1     111.965 133.509 145.055  0.00  0.00    +0.000 A 
ATOM     17  C   UNL     1     111.842 132.087 145.136  0.00  0.00    +0.000 A 
ATOM     18  C   UNL     1     111.934 133.464 144.232  0.00  0.00    +0.000 A 
ATOM     19  C   UNL     1     111.811 132.043 144.313  0.00  0.00    +0.000 A 
ATOM     20  C   UNL     1     111.857 132.732 143.861  0.00  0.00    +0.000 A 
BRANCH  18  21
ATOM     21  O   UNL     1     111.980 134.153 143.780  0.00  0.00    +0.000 OA
ATOM     22  C   UNL     1     111.947 134.891 144.147  0.00  0.00    +0.000 C 
ENDBRANCH  18  21
BRANCH  20  23
ATOM     23  O   UNL     1     111.826 132.687 143.038  0.00  0.00    +0.000 OA
BRANCH  23  24
ATOM     24  S   UNL     1     111.852 131.953 142.663  0.00  0.00    +0.000 S 
ATOM     25  O   UNL     1     111.879 131.218 142.288  0.00  0.00    +0.000 OA
ATOM     26  O   UNL     1     111.028 131.919 142.670  0.00  0.00    +0.000 OA
ATOM     27  O   UNL     1     112.677 131.986 142.655  0.00  0.00    +0.000 OA
ENDBRANCH  23  24
ENDBRANCH  20  23
ENDBRANCH   6  15
TORSDOF 4
ENDMDL
MODEL 5
REMARK VINA RESULT:      -8.0     12.795     13.977
REMARK  Name = 131832977
REMARK  4 active torsions:
REMARK  status: ('A' for Active; 'I' for Inactive)
REMARK    1  A    between atoms: S_1  and  O_7
REMARK    2  A    between atoms: O_5  and  C_22
REMARK    3  A    between atoms: O_7  and  C_24
REMARK    4  A    between atoms: C_12  and  C_14
REMARK                            x       y       z     vdW  Elec       q    Type
REMARK                         _______ _______ _______ _____ _____    ______ ____
ROOT
ATOM      1  O   UNL     1     113.459 127.828 135.929  0.00  0.00    +0.000 OA
ATOM      2  O   UNL     1     112.262 127.785 137.754  0.00  0.00    +0.000 OA
ATOM      3  O   UNL     1     112.892 129.308 137.830  0.00  0.00    +0.000 OA
ATOM      4  O   UNL     1     113.713 130.364 137.289  0.00  0.00    +0.000 OA
ATOM      5  O   UNL     1     115.135 129.913 134.778  0.00  0.00    +0.000 OA
ATOM      6  C   UNL     1     112.955 127.560 136.525  0.00  0.00    +0.000 C 
ATOM      7  C   UNL     1     112.766 128.053 137.159  0.00  0.00    +0.000 C 
ATOM      8  C   UNL     1     113.081 128.815 137.196  0.00  0.00    +0.000 C 
ATOM      9  C   UNL     1     113.585 129.082 136.601  0.00  0.00    +0.000 A 
ATOM     10  C   UNL     1     113.774 128.589 135.968  0.00  0.00    +0.000 A 
ATOM     11  C   UNL     1     113.908 129.878 136.652  0.00  0.00    +0.000 A 
ATOM     12  C   UNL     1     114.299 128.857 135.341  0.00  0.00    +0.000 A 
ATOM     13  C   UNL     1     114.434 130.162 136.035  0.00  0.00    +0.000 A 
ATOM     14  C   UNL     1     114.630 129.648 135.376  0.00  0.00    +0.000 A 
ENDROOT
BRANCH   6  15
ATOM     15  C   UNL     1     112.640 126.798 136.487  0.00  0.00    +0.000 A 
ATOM     16  C   UNL     1     111.963 126.654 136.038  0.00  0.00    +0.000 A 
ATOM     17  C   UNL     1     113.002 126.181 136.898  0.00  0.00    +0.000 A 
ATOM     18  C   UNL     1     111.649 125.891 136.000  0.00  0.00    +0.000 A 
ATOM     19  C   UNL     1     112.687 125.420 136.859  0.00  0.00    +0.000 A 
ATOM     20  C   UNL     1     112.010 125.275 136.410  0.00  0.00    +0.000 A 
BRANCH  18  21
ATOM     21  O   UNL     1     110.972 125.747 135.551  0.00  0.00    +0.000 OA
ATOM     22  C   UNL     1     110.715 126.305 134.999  0.00  0.00    +0.000 C 
ENDBRANCH  18  21
BRANCH  20  23
ATOM     23  O   UNL     1     111.696 124.513 136.372  0.00  0.00    +0.000 OA
BRANCH  23  24
ATOM     24  S   UNL     1     112.031 123.905 136.818  0.00  0.00    +0.000 S 
ATOM     25  O   UNL     1     112.367 123.297 137.264  0.00  0.00    +0.000 OA
ATOM     26  O   UNL     1     111.522 124.081 137.442  0.00  0.00    +0.000 OA
ATOM     27  O   UNL     1     112.541 123.728 136.194  0.00  0.00    +0.000 OA
ENDBRANCH  23  24
ENDBRANCH  20  23
ENDBRANCH   6  15
TORSDOF 4
ENDMDL
MODEL 6
REMARK VINA RESULT:      -8.0     11.109     12.550
REMARK  Name = 131832977
REMARK  4 active torsions:
REMARK  status: ('A' for Active; 'I' for Inactive)
REMARK    1  A    between atoms: S_1  and  O_7
REMARK    2  A    between atoms: O_5  and  C_22
REMARK    3  A    between atoms: O_7  and  C_24
REMARK    4  A    between atoms: C_12  and  C_14
REMARK                            x       y       z     vdW  Elec       q    Type
REMARK                         _______ _______ _______ _____ _____    ______ ____
ROOT
ATOM      1  O   UNL     1     112.107 126.209 137.106  0.00  0.00    +0.000 OA
ATOM      2  O   UNL     1     110.461 125.185 136.102  0.00  0.00    +0.000 OA
ATOM      3  O   UNL     1     111.614 124.005 136.095  0.00  0.00    +0.000 OA
ATOM      4  O   UNL     1     112.937 123.529 136.415  0.00  0.00    +0.000 OA
ATOM      5  O   UNL     1     114.795 125.319 137.786  0.00  0.00    +0.000 OA
ATOM      6  C   UNL     1     111.366 126.064 136.773  0.00  0.00    +0.000 C 
ATOM      7  C   UNL     1     111.201 125.330 136.435  0.00  0.00    +0.000 C 
ATOM      8  C   UNL     1     111.778 124.740 136.432  0.00  0.00    +0.000 C 
ATOM      9  C   UNL     1     112.519 124.884 136.765  0.00  0.00    +0.000 A 
ATOM     10  C   UNL     1     112.683 125.619 137.102  0.00  0.00    +0.000 A 
ATOM     11  C   UNL     1     113.111 124.261 136.755  0.00  0.00    +0.000 A 
ATOM     12  C   UNL     1     113.451 125.781 137.453  0.00  0.00    +0.000 A 
ATOM     13  C   UNL     1     113.884 124.406 137.101  0.00  0.00    +0.000 A 
ATOM     14  C   UNL     1     114.055 125.171 137.452  0.00  0.00    +0.000 A 
ENDROOT
BRANCH   6  15
ATOM     15  C   UNL     1     110.790 126.655 136.777  0.00  0.00    +0.000 A 
ATOM     16  C   UNL     1     110.371 126.818 137.468  0.00  0.00    +0.000 A 
ATOM     17  C   UNL     1     110.633 127.083 136.088  0.00  0.00    +0.000 A 
ATOM     18  C   UNL     1     109.795 127.409 137.471  0.00  0.00    +0.000 A 
ATOM     19  C   UNL     1     110.057 127.673 136.092  0.00  0.00    +0.000 A 
ATOM     20  C   UNL     1     109.638 127.837 136.784  0.00  0.00    +0.000 A 
BRANCH  18  21
ATOM     21  O   UNL     1     109.375 127.572 138.163  0.00  0.00    +0.000 OA
ATOM     22  C   UNL     1     109.657 127.302 138.890  0.00  0.00    +0.000 C 
ENDBRANCH  18  21
BRANCH  20  23
ATOM     23  O   UNL     1     109.062 128.428 136.787  0.00  0.00    +0.000 OA
BRANCH  23  24
ATOM     24  S   UNL     1     108.856 128.807 136.085  0.00  0.00    +0.000 S 
ATOM     25  O   UNL     1     108.650 129.187 135.381  0.00  0.00    +0.000 OA
ATOM     26  O   UNL     1     108.275 128.238 135.947  0.00  0.00    +0.000 OA
ATOM     27  O   UNL     1     109.437 129.377 136.221  0.00  0.00    +0.000 OA
ENDBRANCH  23  24
ENDBRANCH  20  23
ENDBRANCH   6  15
TORSDOF 4
ENDMDL
MODEL 7
REMARK VINA RESULT:      -7.9     13.254     14.381
REMARK  Name = 131832977
REMARK  4 active torsions:
REMARK  status: ('A' for Active; 'I' for Inactive)
REMARK    1  A    between atoms: S_1  and  O_7
REMARK    2  A    between atoms: O_5  and  C_22
REMARK    3  A    between atoms: O_7  and  C_24
REMARK    4  A    between atoms: C_12  and  C_14
REMARK                            x       y       z     vdW  Elec       q    Type
REMARK                         _______ _______ _______ _____ _____    ______ ____
ROOT
ATOM      1  O   UNL     1     111.767 127.350 135.962  0.00  0.00    +0.000 OA
ATOM      2  O   UNL     1     113.402 126.693 137.250  0.00  0.00    +0.000 OA
ATOM      3  O   UNL     1     112.676 125.251 136.907  0.00  0.00    +0.000 OA
ATOM      4  O   UNL     1     111.649 124.478 136.253  0.00  0.00    +0.000 OA
ATOM      5  O   UNL     1     109.664 125.855 134.612  0.00  0.00    +0.000 OA
ATOM      6  C   UNL     1     112.433 127.371 136.449  0.00  0.00    +0.000 C 
ATOM      7  C   UNL     1     112.736 126.672 136.764  0.00  0.00    +0.000 C 
ATOM      8  C   UNL     1     112.373 125.951 136.592  0.00  0.00    +0.000 C 
ATOM      9  C   UNL     1     111.708 125.930 136.105  0.00  0.00    +0.000 A 
ATOM     10  C   UNL     1     111.405 126.629 135.791  0.00  0.00    +0.000 A 
ATOM     11  C   UNL     1     111.339 125.172 135.934  0.00  0.00    +0.000 A 
ATOM     12  C   UNL     1     110.711 126.620 135.282  0.00  0.00    +0.000 A 
ATOM     13  C   UNL     1     110.645 125.144 135.428  0.00  0.00    +0.000 A 
ATOM     14  C   UNL     1     110.330 125.873 135.100  0.00  0.00    +0.000 A 
ENDROOT
BRANCH   6  15
ATOM     15  C   UNL     1     112.795 128.092 136.621  0.00  0.00    +0.000 A 
ATOM     16  C   UNL     1     113.352 128.409 136.101  0.00  0.00    +0.000 A 
ATOM     17  C   UNL     1     112.600 128.497 137.313  0.00  0.00    +0.000 A 
ATOM     18  C   UNL     1     113.714 129.130 136.273  0.00  0.00    +0.000 A 
ATOM     19  C   UNL     1     112.962 129.218 137.485  0.00  0.00    +0.000 A 
ATOM     20  C   UNL     1     113.519 129.535 136.965  0.00  0.00    +0.000 A 
BRANCH  18  21
ATOM     21  O   UNL     1     114.271 129.447 135.753  0.00  0.00    +0.000 OA
ATOM     22  C   UNL     1     114.374 129.113 135.005  0.00  0.00    +0.000 C 
ENDBRANCH  18  21
BRANCH  20  23
ATOM     23  O   UNL     1     113.881 130.256 137.137  0.00  0.00    +0.000 OA
BRANCH  23  24
ATOM     24  S   UNL     1     113.687 130.660 137.829  0.00  0.00    +0.000 S 
ATOM     25  O   UNL     1     113.493 131.064 138.523  0.00  0.00    +0.000 OA
ATOM     26  O   UNL     1     113.084 131.057 137.430  0.00  0.00    +0.000 OA
ATOM     27  O   UNL     1     114.290 130.263 138.230  0.00  0.00    +0.000 OA
ENDBRANCH  23  24
ENDBRANCH  20  23
ENDBRANCH   6  15
TORSDOF 4
ENDMDL
MODEL 8
REMARK VINA RESULT:      -7.8     12.399     14.340
REMARK  Name = 131832977
REMARK  4 active torsions:
REMARK  status: ('A' for Active; 'I' for Inactive)
REMARK    1  A    between atoms: S_1  and  O_7
REMARK    2  A    between atoms: O_5  and  C_22
REMARK    3  A    between atoms: O_7  and  C_24
REMARK    4  A    between atoms: C_12  and  C_14
REMARK                            x       y       z     vdW  Elec       q    Type
REMARK                         _______ _______ _______ _____ _____    ______ ____
ROOT
ATOM      1  O   UNL     1     112.543 126.318 136.239  0.00  0.00    +0.000 OA
ATOM      2  O   UNL     1     112.192 127.847 137.757  0.00  0.00    +0.000 OA
ATOM      3  O   UNL     1     111.601 126.508 138.520  0.00  0.00    +0.000 OA
ATOM      4  O   UNL     1     111.311 125.096 138.550  0.00  0.00    +0.000 OA
ATOM      5  O   UNL     1     111.987 123.460 136.226  0.00  0.00    +0.000 OA
ATOM      6  C   UNL     1     112.524 127.051 136.618  0.00  0.00    +0.000 C 
ATOM      7  C   UNL     1     112.211 127.115 137.379  0.00  0.00    +0.000 C 
ATOM      8  C   UNL     1     111.915 126.445 137.760  0.00  0.00    +0.000 C 
ATOM      9  C   UNL     1     111.934 125.713 137.381  0.00  0.00    +0.000 A 
ATOM     10  C   UNL     1     112.248 125.649 136.621  0.00  0.00    +0.000 A 
ATOM     11  C   UNL     1     111.623 125.023 137.789  0.00  0.00    +0.000 A 
ATOM     12  C   UNL     1     112.273 124.891 136.216  0.00  0.00    +0.000 A 
ATOM     13  C   UNL     1     111.640 124.257 137.400  0.00  0.00    +0.000 A 
ATOM     14  C   UNL     1     111.966 124.191 136.608  0.00  0.00    +0.000 A 
ENDROOT
BRANCH   6  15
ATOM     15  C   UNL     1     112.820 127.720 136.236  0.00  0.00    +0.000 A 
ATOM     16  C   UNL     1     112.344 128.137 135.707  0.00  0.00    +0.000 A 
ATOM     17  C   UNL     1     113.592 127.972 136.384  0.00  0.00    +0.000 A 
ATOM     18  C   UNL     1     112.641 128.806 135.326  0.00  0.00    +0.000 A 
ATOM     19  C   UNL     1     113.888 128.640 136.002  0.00  0.00    +0.000 A 
ATOM     20  C   UNL     1     113.412 129.058 135.473  0.00  0.00    +0.000 A 
BRANCH  18  21
ATOM     21  O   UNL     1     112.165 129.223 134.796  0.00  0.00    +0.000 OA
ATOM     22  C   UNL     1     111.409 128.947 134.614  0.00  0.00    +0.000 C 
ENDBRANCH  18  21
BRANCH  20  23
ATOM     23  O   UNL     1     113.709 129.726 135.092  0.00  0.00    +0.000 OA
BRANCH  23  24
ATOM     24  S   UNL     1     114.473 129.990 135.254  0.00  0.00    +0.000 S 
ATOM     25  O   UNL     1     115.238 130.253 135.417  0.00  0.00    +0.000 OA
ATOM     26  O   UNL     1     114.182 130.459 135.867  0.00  0.00    +0.000 OA
ATOM     27  O   UNL     1     114.766 129.521 134.641  0.00  0.00    +0.000 OA
ENDBRANCH  23  24
ENDBRANCH  20  23
ENDBRANCH   6  15
TORSDOF 4
ENDMDL
MODEL 9
REMARK VINA RESULT:      -7.8      2.314      3.650
REMARK  Name = 131832977
REMARK  4 active torsions:
REMARK  status: ('A' for Active; 'I' for Inactive)
REMARK    1  A    between atoms: S_1  and  O_7
REMARK    2  A    between atoms: O_5  and  C_22
REMARK    3  A    between atoms: O_7  and  C_24
REMARK    4  A    between atoms: C_12  and  C_14
REMARK                            x       y       z     vdW  Elec       q    Type
REMARK                         _______ _______ _______ _____ _____    ______ ____
ROOT
ATOM      1  O   UNL     1     106.835 125.191 147.210  0.00  0.00    +0.000 OA
ATOM      2  O   UNL     1     104.714 125.485 146.787  0.00  0.00    +0.000 OA
ATOM      3  O   UNL     1     104.651 124.962 148.350  0.00  0.00    +0.000 OA
ATOM      4  O   UNL     1     105.296 124.507 149.557  0.00  0.00    +0.000 OA
ATOM      5  O   UNL     1     108.207 124.281 149.612  0.00  0.00    +0.000 OA
ATOM      6  C   UNL     1     106.138 125.377 146.808  0.00  0.00    +0.000 C 
ATOM      7  C   UNL     1     105.410 125.300 147.188  0.00  0.00    +0.000 C 
ATOM      8  C   UNL     1     105.379 125.038 147.970  0.00  0.00    +0.000 C 
ATOM      9  C   UNL     1     106.075 124.853 148.371  0.00  0.00    +0.000 A 
ATOM     10  C   UNL     1     106.803 124.929 147.991  0.00  0.00    +0.000 A 
ATOM     11  C   UNL     1     106.029 124.581 149.186  0.00  0.00    +0.000 A 
ATOM     12  C   UNL     1     107.535 124.739 148.399  0.00  0.00    +0.000 A 
ATOM     13  C   UNL     1     106.750 124.386 149.609  0.00  0.00    +0.000 A 
ATOM     14  C   UNL     1     107.509 124.466 149.213  0.00  0.00    +0.000 A 
ENDROOT
BRANCH   6  15
ATOM     15  C   UNL     1     106.171 125.639 146.027  0.00  0.00    +0.000 A 
ATOM     16  C   UNL     1     106.419 126.407 145.858  0.00  0.00    +0.000 A 
ATOM     17  C   UNL     1     105.954 125.131 145.412  0.00  0.00    +0.000 A 
ATOM     18  C   UNL     1     106.451 126.668 145.076  0.00  0.00    +0.000 A 
ATOM     19  C   UNL     1     105.987 125.393 144.631  0.00  0.00    +0.000 A 
ATOM     20  C   UNL     1     106.235 126.161 144.463  0.00  0.00    +0.000 A 
BRANCH  18  21
ATOM     21  O   UNL     1     106.700 127.436 144.908  0.00  0.00    +0.000 OA
ATOM     22  C   UNL     1     106.857 127.964 145.524  0.00  0.00    +0.000 C 
ENDBRANCH  18  21
BRANCH  20  23
ATOM     23  O   UNL     1     106.268 126.422 143.680  0.00  0.00    +0.000 OA
BRANCH  23  24
ATOM     24  S   UNL     1     105.996 125.937 143.072  0.00  0.00    +0.000 S 
ATOM     25  O   UNL     1     105.724 125.450 142.462  0.00  0.00    +0.000 OA
ATOM     26  O   UNL     1     105.246 126.272 143.138  0.00  0.00    +0.000 OA
ATOM     27  O   UNL     1     106.746 125.600 143.005  0.00  0.00    +0.000 OA
ENDBRANCH  23  24
ENDBRANCH  20  23
ENDBRANCH   6  15
TORSDOF 4
ENDMDL
MODEL 10
REMARK VINA RESULT:      -7.8     10.147     11.779
REMARK  Name = 131832977
REMARK  4 active torsions:
REMARK  status: ('A' for Active; 'I' for Inactive)
REMARK    1  A    between atoms: S_1  and  O_7
REMARK    2  A    between atoms: O_5  and  C_22
REMARK    3  A    between atoms: O_7  and  C_24
REMARK    4  A    between atoms: C_12  and  C_14
REMARK                            x       y       z     vdW  Elec       q    Type
REMARK                         _______ _______ _______ _____ _____    ______ ____
ROOT
ATOM      1  O   UNL     1     112.460 126.400 138.714  0.00  0.00    +0.000 OA
ATOM      2  O   UNL     1     110.435 125.651 139.031  0.00  0.00    +0.000 OA
ATOM      3  O   UNL     1     110.873 126.027 140.577  0.00  0.00    +0.000 OA
ATOM      4  O   UNL     1     111.831 126.528 141.532  0.00  0.00    +0.000 OA
ATOM      5  O   UNL     1     114.445 127.424 140.584  0.00  0.00    +0.000 OA
ATOM      6  C   UNL     1     111.711 126.087 138.563  0.00  0.00    +0.000 C 
ATOM      7  C   UNL     1     111.182 125.963 139.183  0.00  0.00    +0.000 C 
ATOM      8  C   UNL     1     111.402 126.151 139.956  0.00  0.00    +0.000 C 
ATOM      9  C   UNL     1     112.150 126.464 140.108  0.00  0.00    +0.000 A 
ATOM     10  C   UNL     1     112.679 126.588 139.487  0.00  0.00    +0.000 A 
ATOM     11  C   UNL     1     112.367 126.656 140.918  0.00  0.00    +0.000 A 
ATOM     12  C   UNL     1     113.461 126.913 139.633  0.00  0.00    +0.000 A 
ATOM     13  C   UNL     1     113.144 126.982 141.082  0.00  0.00    +0.000 A 
ATOM     14  C   UNL     1     113.695 127.111 140.436  0.00  0.00    +0.000 A 
ENDROOT
BRANCH   6  15
ATOM     15  C   UNL     1     111.493 125.899 137.790  0.00  0.00    +0.000 A 
ATOM     16  C   UNL     1     111.709 125.173 137.464  0.00  0.00    +0.000 A 
ATOM     17  C   UNL     1     111.057 126.439 137.342  0.00  0.00    +0.000 A 
ATOM     18  C   UNL     1     111.490 124.986 136.691  0.00  0.00    +0.000 A 
ATOM     19  C   UNL     1     110.838 126.251 136.569  0.00  0.00    +0.000 A 
ATOM     20  C   UNL     1     111.055 125.525 136.244  0.00  0.00    +0.000 A 
BRANCH  18  21
ATOM     21  O   UNL     1     111.707 124.260 136.365  0.00  0.00    +0.000 OA
ATOM     22  C   UNL     1     112.171 123.734 136.801  0.00  0.00    +0.000 C 
ENDBRANCH  18  21
BRANCH  20  23
ATOM     23  O   UNL     1     110.836 125.338 135.470  0.00  0.00    +0.000 OA
BRANCH  23  24
ATOM     24  S   UNL     1     110.354 125.852 135.042  0.00  0.00    +0.000 S 
ATOM     25  O   UNL     1     109.872 126.367 134.613  0.00  0.00    +0.000 OA
ATOM     26  O   UNL     1     111.023 126.235 134.748  0.00  0.00    +0.000 OA
ATOM     27  O   UNL     1     109.684 125.470 135.336  0.00  0.00    +0.000 OA
ENDBRANCH  23  24
ENDBRANCH  20  23
ENDBRANCH   6  15
TORSDOF 4
ENDMDL
