MODEL 1
REMARK VINA RESULT:     -10.5      0.000      0.000
REMARK  Name = 44257623
REMARK  5 active torsions:
REMARK  status: ('A' for Active; 'I' for Inactive)
REMARK    1  A    between atoms: O_1  and  C_13
REMARK    2  A    between atoms: O_1  and  C_16
REMARK    3  A    between atoms: O_5  and  C_19
REMARK    4  A    between atoms: O_5  and  C_23
REMARK    5  A    between atoms: C_31  and  C_33
REMARK                            x       y       z     vdW  Elec       q    Type
REMARK                         _______ _______ _______ _____ _____    ______ ____
ROOT
ATOM      1  O   UNL     1     109.341 127.117 135.504  0.00  0.00    +0.000 OA
ENDROOT
BRANCH   1   5
ATOM      2  O   UNL     1     111.310 126.621 137.548  0.00  0.00    +0.000 OA
ATOM      3  O   UNL     1     110.838 124.683 135.451  0.00  0.00    +0.000 OA
ATOM      4  O   UNL     1     111.833 124.396 136.457  0.00  0.00    +0.000 OA
ATOM      5  C   UNL     1     109.917 126.625 135.831  0.00  0.00    +0.000 A 
ATOM      6  C   UNL     1     110.090 125.899 135.477  0.00  0.00    +0.000 A 
ATOM      7  C   UNL     1     110.321 126.858 136.512  0.00  0.00    +0.000 A 
ATOM      8  C   UNL     1     110.666 125.408 135.805  0.00  0.00    +0.000 A 
ATOM      9  C   UNL     1     110.897 126.367 136.840  0.00  0.00    +0.000 A 
ATOM     10  C   UNL     1     111.069 125.641 136.486  0.00  0.00    +0.000 A 
ATOM     11  C   UNL     1     109.686 125.666 134.797  0.00  0.00    +0.000 C 
ATOM     12  C   UNL     1     111.667 125.120 136.817  0.00  0.00    +0.000 A 
ATOM     13  C   UNL     1     111.911 126.113 137.894  0.00  0.00    +0.000 A 
ATOM     14  C   UNL     1     112.091 125.357 137.526  0.00  0.00    +0.000 A 
BRANCH  13  15
ATOM     15  C   UNL     1     112.313 126.349 138.575  0.00  0.00    +0.000 A 
ATOM     16  C   UNL     1     113.092 126.614 138.523  0.00  0.00    +0.000 A 
ATOM     17  C   UNL     1     111.935 126.319 139.308  0.00  0.00    +0.000 A 
ATOM     18  C   UNL     1     113.494 126.850 139.203  0.00  0.00    +0.000 A 
ATOM     19  C   UNL     1     112.337 126.555 139.989  0.00  0.00    +0.000 A 
ATOM     20  C   UNL     1     113.116 126.821 139.937  0.00  0.00    +0.000 A 
ENDBRANCH  13  15
ENDBRANCH   1   5
BRANCH   1  27
ATOM     21  O   UNL     1     110.251 128.070 134.950  0.00  0.00    +0.000 OA
ATOM     22  O   UNL     1     108.268 128.328 135.824  0.00  0.00    +0.000 OA
ATOM     23  O   UNL     1     110.088 130.234 134.717  0.00  0.00    +0.000 OA
ATOM     24  C   UNL     1     109.177 129.281 135.271  0.00  0.00    +0.000 C 
ATOM     25  C   UNL     1     108.991 128.502 135.467  0.00  0.00    +0.000 C 
ATOM     26  C   UNL     1     109.901 129.454 134.914  0.00  0.00    +0.000 C 
ATOM     27  C   UNL     1     109.528 127.896 135.307  0.00  0.00    +0.000 C 
ATOM     28  C   UNL     1     110.437 128.848 134.754  0.00  0.00    +0.000 C 
BRANCH  24  29
ATOM     29  O   UNL     1     108.641 129.887 135.431  0.00  0.00    +0.000 OA
BRANCH  29  34
ATOM     30  O   UNL     1     109.259 130.100 136.701  0.00  0.00    +0.000 OA
ATOM     31  O   UNL     1     107.595 131.127 135.732  0.00  0.00    +0.000 OA
ATOM     32  O   UNL     1     107.690 131.960 137.153  0.00  0.00    +0.000 OA
ATOM     33  O   UNL     1     108.831 131.553 138.273  0.00  0.00    +0.000 OA
ATOM     34  C   UNL     1     108.689 130.303 136.142  0.00  0.00    +0.000 C 
ATOM     35  C   UNL     1     108.165 130.923 136.291  0.00  0.00    +0.000 C 
ATOM     36  C   UNL     1     108.213 131.340 137.003  0.00  0.00    +0.000 C 
ATOM     37  C   UNL     1     108.783 131.136 137.563  0.00  0.00    +0.000 C 
ATOM     38  C   UNL     1     109.306 130.517 137.413  0.00  0.00    +0.000 C 
ENDBRANCH  29  34
ENDBRANCH  24  29
ENDBRANCH   1  27
TORSDOF 5
ENDMDL
MODEL 2
REMARK VINA RESULT:     -10.3      2.417      3.154
REMARK  Name = 44257623
REMARK  5 active torsions:
REMARK  status: ('A' for Active; 'I' for Inactive)
REMARK    1  A    between atoms: O_1  and  C_13
REMARK    2  A    between atoms: O_1  and  C_16
REMARK    3  A    between atoms: O_5  and  C_19
REMARK    4  A    between atoms: O_5  and  C_23
REMARK    5  A    between atoms: C_31  and  C_33
REMARK                            x       y       z     vdW  Elec       q    Type
REMARK                         _______ _______ _______ _____ _____    ______ ____
ROOT
ATOM      1  O   UNL     1     110.201 127.944 136.321  0.00  0.00    +0.000 OA
ENDROOT
BRANCH   1   5
ATOM      2  O   UNL     1     112.848 128.995 135.886  0.00  0.00    +0.000 OA
ATOM      3  O   UNL     1     112.462 126.221 136.619  0.00  0.00    +0.000 OA
ATOM      4  O   UNL     1     113.805 126.709 136.410  0.00  0.00    +0.000 OA
ATOM      5  C   UNL     1     111.018 127.827 136.300  0.00  0.00    +0.000 A 
ATOM      6  C   UNL     1     111.332 127.082 136.470  0.00  0.00    +0.000 A 
ATOM      7  C   UNL     1     111.520 128.452 136.108  0.00  0.00    +0.000 A 
ATOM      8  C   UNL     1     112.148 126.965 136.449  0.00  0.00    +0.000 A 
ATOM      9  C   UNL     1     112.336 128.335 136.087  0.00  0.00    +0.000 A 
ATOM     10  C   UNL     1     112.651 127.591 136.257  0.00  0.00    +0.000 A 
ATOM     11  C   UNL     1     110.830 126.456 136.662  0.00  0.00    +0.000 C 
ATOM     12  C   UNL     1     113.499 127.455 136.239  0.00  0.00    +0.000 A 
ATOM     13  C   UNL     1     113.700 128.879 135.862  0.00  0.00    +0.000 A 
ATOM     14  C   UNL     1     114.027 128.104 136.040  0.00  0.00    +0.000 A 
BRANCH  13  15
ATOM     15  C   UNL     1     114.200 129.506 135.670  0.00  0.00    +0.000 A 
ATOM     16  C   UNL     1     114.308 130.125 136.205  0.00  0.00    +0.000 A 
ATOM     17  C   UNL     1     114.591 129.515 134.944  0.00  0.00    +0.000 A 
ATOM     18  C   UNL     1     114.807 130.753 136.013  0.00  0.00    +0.000 A 
ATOM     19  C   UNL     1     115.090 130.143 134.752  0.00  0.00    +0.000 A 
ATOM     20  C   UNL     1     115.199 130.762 135.286  0.00  0.00    +0.000 A 
ENDBRANCH  13  15
ENDBRANCH   1   5
BRANCH   1  27
ATOM     21  O   UNL     1     110.200 128.767 137.489  0.00  0.00    +0.000 OA
ATOM     22  O   UNL     1     108.944 128.817 135.705  0.00  0.00    +0.000 OA
ATOM     23  O   UNL     1     108.942 130.463 138.041  0.00  0.00    +0.000 OA
ATOM     24  C   UNL     1     108.943 129.640 136.872  0.00  0.00    +0.000 C 
ATOM     25  C   UNL     1     109.257 129.010 136.443  0.00  0.00    +0.000 C 
ATOM     26  C   UNL     1     109.257 129.833 137.611  0.00  0.00    +0.000 C 
ATOM     27  C   UNL     1     109.886 128.573 136.751  0.00  0.00    +0.000 C 
ATOM     28  C   UNL     1     109.885 129.396 137.918  0.00  0.00    +0.000 C 
BRANCH  24  29
ATOM     29  O   UNL     1     108.315 130.076 136.564  0.00  0.00    +0.000 OA
BRANCH  29  34
ATOM     30  O   UNL     1     109.235 131.007 135.993  0.00  0.00    +0.000 OA
ATOM     31  O   UNL     1     107.065 130.855 135.820  0.00  0.00    +0.000 OA
ATOM     32  O   UNL     1     107.360 132.175 134.876  0.00  0.00    +0.000 OA
ATOM     33  O   UNL     1     108.906 132.717 134.676  0.00  0.00    +0.000 OA
ATOM     34  C   UNL     1     108.462 130.737 136.092  0.00  0.00    +0.000 C 
ATOM     35  C   UNL     1     107.837 131.125 135.720  0.00  0.00    +0.000 C 
ATOM     36  C   UNL     1     107.985 131.786 135.247  0.00  0.00    +0.000 C 
ATOM     37  C   UNL     1     108.758 132.057 135.148  0.00  0.00    +0.000 C 
ATOM     38  C   UNL     1     109.383 131.668 135.520  0.00  0.00    +0.000 C 
ENDBRANCH  29  34
ENDBRANCH  24  29
ENDBRANCH   1  27
TORSDOF 5
ENDMDL
MODEL 3
REMARK VINA RESULT:     -10.2      2.260      4.155
REMARK  Name = 44257623
REMARK  5 active torsions:
REMARK  status: ('A' for Active; 'I' for Inactive)
REMARK    1  A    between atoms: O_1  and  C_13
REMARK    2  A    between atoms: O_1  and  C_16
REMARK    3  A    between atoms: O_5  and  C_19
REMARK    4  A    between atoms: O_5  and  C_23
REMARK    5  A    between atoms: C_31  and  C_33
REMARK                            x       y       z     vdW  Elec       q    Type
REMARK                         _______ _______ _______ _____ _____    ______ ____
ROOT
ATOM      1  O   UNL     1     112.774 127.826 139.484  0.00  0.00    +0.000 OA
ENDROOT
BRANCH   1   5
ATOM      2  O   UNL     1     111.712 126.696 137.056  0.00  0.00    +0.000 OA
ATOM      3  O   UNL     1     114.059 125.558 138.312  0.00  0.00    +0.000 OA
ATOM      4  O   UNL     1     113.559 124.963 137.096  0.00  0.00    +0.000 OA
ATOM      5  C   UNL     1     112.816 127.258 138.887  0.00  0.00    +0.000 A 
ATOM      6  C   UNL     1     113.417 126.692 138.898  0.00  0.00    +0.000 A 
ATOM      7  C   UNL     1     112.258 127.256 138.280  0.00  0.00    +0.000 A 
ATOM      8  C   UNL     1     113.459 126.124 138.301  0.00  0.00    +0.000 A 
ATOM      9  C   UNL     1     112.300 126.688 137.683  0.00  0.00    +0.000 A 
ATOM     10  C   UNL     1     112.901 126.121 137.693  0.00  0.00    +0.000 A 
ATOM     11  C   UNL     1     113.975 126.695 139.506  0.00  0.00    +0.000 C 
ATOM     12  C   UNL     1     112.955 125.525 137.078  0.00  0.00    +0.000 A 
ATOM     13  C   UNL     1     111.751 126.107 136.431  0.00  0.00    +0.000 A 
ATOM     14  C   UNL     1     112.377 125.517 136.442  0.00  0.00    +0.000 A 
BRANCH  13  15
ATOM     15  C   UNL     1     111.191 126.106 135.825  0.00  0.00    +0.000 A 
ATOM     16  C   UNL     1     111.195 126.708 135.260  0.00  0.00    +0.000 A 
ATOM     17  C   UNL     1     110.628 125.505 135.783  0.00  0.00    +0.000 A 
ATOM     18  C   UNL     1     110.637 126.708 134.654  0.00  0.00    +0.000 A 
ATOM     19  C   UNL     1     110.069 125.505 135.177  0.00  0.00    +0.000 A 
ATOM     20  C   UNL     1     110.073 126.106 134.612  0.00  0.00    +0.000 A 
ENDBRANCH  13  15
ENDBRANCH   1   5
BRANCH   1  27
ATOM     21  O   UNL     1     113.033 128.942 138.629  0.00  0.00    +0.000 OA
ATOM     22  O   UNL     1     111.797 128.771 140.420  0.00  0.00    +0.000 OA
ATOM     23  O   UNL     1     112.316 131.001 138.709  0.00  0.00    +0.000 OA
ATOM     24  C   UNL     1     112.056 129.885 139.565  0.00  0.00    +0.000 C 
ATOM     25  C   UNL     1     112.170 129.093 139.758  0.00  0.00    +0.000 C 
ATOM     26  C   UNL     1     112.430 130.207 138.903  0.00  0.00    +0.000 C 
ATOM     27  C   UNL     1     112.659 128.620 139.290  0.00  0.00    +0.000 C 
ATOM     28  C   UNL     1     112.919 129.734 138.436  0.00  0.00    +0.000 C 
BRANCH  24  29
ATOM     29  O   UNL     1     111.567 130.358 140.032  0.00  0.00    +0.000 OA
BRANCH  29  34
ATOM     30  O   UNL     1     110.442 129.984 139.237  0.00  0.00    +0.000 OA
ATOM     31  O   UNL     1     110.590 131.297 140.974  0.00  0.00    +0.000 OA
ATOM     32  O   UNL     1     108.975 131.391 140.649  0.00  0.00    +0.000 OA
ATOM     33  O   UNL     1     108.338 130.547 139.382  0.00  0.00    +0.000 OA
ATOM     34  C   UNL     1     110.760 130.405 139.870  0.00  0.00    +0.000 C 
ATOM     35  C   UNL     1     110.272 130.875 140.341  0.00  0.00    +0.000 C 
ATOM     36  C   UNL     1     109.463 130.922 140.178  0.00  0.00    +0.000 C 
ATOM     37  C   UNL     1     109.145 130.500 139.545  0.00  0.00    +0.000 C 
ATOM     38  C   UNL     1     109.633 130.031 139.074  0.00  0.00    +0.000 C 
ENDBRANCH  29  34
ENDBRANCH  24  29
ENDBRANCH   1  27
TORSDOF 5
ENDMDL
MODEL 4
REMARK VINA RESULT:     -10.0      2.096      5.145
REMARK  Name = 44257623
REMARK  5 active torsions:
REMARK  status: ('A' for Active; 'I' for Inactive)
REMARK    1  A    between atoms: O_1  and  C_13
REMARK    2  A    between atoms: O_1  and  C_16
REMARK    3  A    between atoms: O_5  and  C_19
REMARK    4  A    between atoms: O_5  and  C_23
REMARK    5  A    between atoms: C_31  and  C_33
REMARK                            x       y       z     vdW  Elec       q    Type
REMARK                         _______ _______ _______ _____ _____    ______ ____
ROOT
ATOM      1  O   UNL     1     112.582 125.662 137.907  0.00  0.00    +0.000 OA
ENDROOT
BRANCH   1   5
ATOM      2  O   UNL     1     110.817 127.296 136.320  0.00  0.00    +0.000 OA
ATOM      3  O   UNL     1     111.096 124.466 135.779  0.00  0.00    +0.000 OA
ATOM      4  O   UNL     1     110.201 125.249 134.961  0.00  0.00    +0.000 OA
ATOM      5  C   UNL     1     112.041 125.730 137.287  0.00  0.00    +0.000 A 
ATOM      6  C   UNL     1     111.838 125.064 136.842  0.00  0.00    +0.000 A 
ATOM      7  C   UNL     1     111.703 126.461 137.112  0.00  0.00    +0.000 A 
ATOM      8  C   UNL     1     111.298 125.131 136.223  0.00  0.00    +0.000 A 
ATOM      9  C   UNL     1     111.162 126.528 136.493  0.00  0.00    +0.000 A 
ATOM     10  C   UNL     1     110.959 125.863 136.048  0.00  0.00    +0.000 A 
ATOM     11  C   UNL     1     112.177 124.332 137.018  0.00  0.00    +0.000 C 
ATOM     12  C   UNL     1     110.398 125.919 135.400  0.00  0.00    +0.000 A 
ATOM     13  C   UNL     1     110.253 127.372 135.676  0.00  0.00    +0.000 A 
ATOM     14  C   UNL     1     110.042 126.679 135.213  0.00  0.00    +0.000 A 
BRANCH  13  15
ATOM     15  C   UNL     1     109.916 128.105 135.503  0.00  0.00    +0.000 A 
ATOM     16  C   UNL     1     110.271 128.601 134.947  0.00  0.00    +0.000 A 
ATOM     17  C   UNL     1     109.225 128.342 135.886  0.00  0.00    +0.000 A 
ATOM     18  C   UNL     1     109.935 129.333 134.774  0.00  0.00    +0.000 A 
ATOM     19  C   UNL     1     108.888 129.075 135.713  0.00  0.00    +0.000 A 
ATOM     20  C   UNL     1     109.243 129.571 135.157  0.00  0.00    +0.000 A 
ENDBRANCH  13  15
ENDBRANCH   1   5
BRANCH   1  27
ATOM     21  O   UNL     1     111.662 125.891 138.976  0.00  0.00    +0.000 OA
ATOM     22  O   UNL     1     113.732 126.530 138.711  0.00  0.00    +0.000 OA
ATOM     23  O   UNL     1     111.892 126.988 140.849  0.00  0.00    +0.000 OA
ATOM     24  C   UNL     1     112.812 126.759 139.779  0.00  0.00    +0.000 C 
ATOM     25  C   UNL     1     112.985 126.428 139.045  0.00  0.00    +0.000 C 
ATOM     26  C   UNL     1     112.064 126.657 140.113  0.00  0.00    +0.000 C 
ATOM     27  C   UNL     1     112.409 125.993 138.642  0.00  0.00    +0.000 C 
ATOM     28  C   UNL     1     111.490 126.222 139.711  0.00  0.00    +0.000 C 
BRANCH  24  29
ATOM     29  O   UNL     1     113.387 127.193 140.182  0.00  0.00    +0.000 OA
BRANCH  29  34
ATOM     30  O   UNL     1     112.876 128.400 139.613  0.00  0.00    +0.000 OA
ATOM     31  O   UNL     1     114.577 128.052 140.936  0.00  0.00    +0.000 OA
ATOM     32  O   UNL     1     114.661 129.689 140.744  0.00  0.00    +0.000 OA
ATOM     33  O   UNL     1     113.555 130.466 139.798  0.00  0.00    +0.000 OA
ATOM     34  C   UNL     1     113.429 128.011 140.086  0.00  0.00    +0.000 C 
ATOM     35  C   UNL     1     114.024 128.440 140.463  0.00  0.00    +0.000 C 
ATOM     36  C   UNL     1     114.066 129.260 140.367  0.00  0.00    +0.000 C 
ATOM     37  C   UNL     1     113.513 129.648 139.894  0.00  0.00    +0.000 C 
ATOM     38  C   UNL     1     112.918 129.219 139.517  0.00  0.00    +0.000 C 
ENDBRANCH  29  34
ENDBRANCH  24  29
ENDBRANCH   1  27
TORSDOF 5
ENDMDL
MODEL 5
REMARK VINA RESULT:     -10.0      3.178      5.142
REMARK  Name = 44257623
REMARK  5 active torsions:
REMARK  status: ('A' for Active; 'I' for Inactive)
REMARK    1  A    between atoms: O_1  and  C_13
REMARK    2  A    between atoms: O_1  and  C_16
REMARK    3  A    between atoms: O_5  and  C_19
REMARK    4  A    between atoms: O_5  and  C_23
REMARK    5  A    between atoms: C_31  and  C_33
REMARK                            x       y       z     vdW  Elec       q    Type
REMARK                         _______ _______ _______ _____ _____    ______ ____
ROOT
ATOM      1  O   UNL     1     111.013 128.368 139.331  0.00  0.00    +0.000 OA
ENDROOT
BRANCH   1   5
ATOM      2  O   UNL     1     112.704 126.526 137.899  0.00  0.00    +0.000 OA
ATOM      3  O   UNL     1     109.822 126.350 137.695  0.00  0.00    +0.000 OA
ATOM      4  O   UNL     1     110.633 125.408 136.962  0.00  0.00    +0.000 OA
ATOM      5  C   UNL     1     111.091 127.725 138.820  0.00  0.00    +0.000 A 
ATOM      6  C   UNL     1     110.417 127.358 138.513  0.00  0.00    +0.000 A 
ATOM      7  C   UNL     1     111.840 127.448 138.616  0.00  0.00    +0.000 A 
ATOM      8  C   UNL     1     110.494 126.716 138.002  0.00  0.00    +0.000 A 
ATOM      9  C   UNL     1     111.917 126.805 138.104  0.00  0.00    +0.000 A 
ATOM     10  C   UNL     1     111.244 126.438 137.797  0.00  0.00    +0.000 A 
ATOM     11  C   UNL     1     109.667 127.636 138.717  0.00  0.00    +0.000 C 
ATOM     12  C   UNL     1     111.311 125.768 137.264  0.00  0.00    +0.000 A 
ATOM     13  C   UNL     1     112.791 125.856 137.367  0.00  0.00    +0.000 A 
ATOM     14  C   UNL     1     112.089 125.475 137.047  0.00  0.00    +0.000 A 
BRANCH  13  15
ATOM     15  C   UNL     1     113.542 125.581 137.164  0.00  0.00    +0.000 A 
ATOM     16  C   UNL     1     113.898 124.987 137.612  0.00  0.00    +0.000 A 
ATOM     17  C   UNL     1     113.936 125.901 136.514  0.00  0.00    +0.000 A 
ATOM     18  C   UNL     1     114.648 124.712 137.410  0.00  0.00    +0.000 A 
ATOM     19  C   UNL     1     114.687 125.626 136.312  0.00  0.00    +0.000 A 
ATOM     20  C   UNL     1     115.043 125.031 136.759  0.00  0.00    +0.000 A 
ENDBRANCH  13  15
ENDBRANCH   1   5
BRANCH   1  27
ATOM     21  O   UNL     1     111.451 127.681 140.505  0.00  0.00    +0.000 OA
ATOM     22  O   UNL     1     111.728 129.752 139.875  0.00  0.00    +0.000 OA
ATOM     23  O   UNL     1     112.604 128.376 142.222  0.00  0.00    +0.000 OA
ATOM     24  C   UNL     1     112.166 129.064 141.048  0.00  0.00    +0.000 C 
ATOM     25  C   UNL     1     111.769 129.062 140.326  0.00  0.00    +0.000 C 
ATOM     26  C   UNL     1     112.206 128.374 141.499  0.00  0.00    +0.000 C 
ATOM     27  C   UNL     1     111.411 128.370 140.054  0.00  0.00    +0.000 C 
ATOM     28  C   UNL     1     111.849 127.683 141.227  0.00  0.00    +0.000 C 
BRANCH  24  29
ATOM     29  O   UNL     1     112.524 129.756 141.321  0.00  0.00    +0.000 OA
BRANCH  29  34
ATOM     30  O   UNL     1     113.745 129.378 140.684  0.00  0.00    +0.000 OA
ATOM     31  O   UNL     1     113.204 131.189 141.776  0.00  0.00    +0.000 OA
ATOM     32  O   UNL     1     114.766 131.527 141.367  0.00  0.00    +0.000 OA
ATOM     33  O   UNL     1     115.648 130.433 140.503  0.00  0.00    +0.000 OA
ATOM     34  C   UNL     1     113.305 129.925 141.116  0.00  0.00    +0.000 C 
ATOM     35  C   UNL     1     113.644 130.642 141.344  0.00  0.00    +0.000 C 
ATOM     36  C   UNL     1     114.427 130.811 141.139  0.00  0.00    +0.000 C 
ATOM     37  C   UNL     1     114.867 130.263 140.707  0.00  0.00    +0.000 C 
ATOM     38  C   UNL     1     114.528 129.548 140.480  0.00  0.00    +0.000 C 
ENDBRANCH  29  34
ENDBRANCH  24  29
ENDBRANCH   1  27
TORSDOF 5
ENDMDL
MODEL 6
REMARK VINA RESULT:     -10.0      2.599      4.219
REMARK  Name = 44257623
REMARK  5 active torsions:
REMARK  status: ('A' for Active; 'I' for Inactive)
REMARK    1  A    between atoms: O_1  and  C_13
REMARK    2  A    between atoms: O_1  and  C_16
REMARK    3  A    between atoms: O_5  and  C_19
REMARK    4  A    between atoms: O_5  and  C_23
REMARK    5  A    between atoms: C_31  and  C_33
REMARK                            x       y       z     vdW  Elec       q    Type
REMARK                         _______ _______ _______ _____ _____    ______ ____
ROOT
ATOM      1  O   UNL     1     110.972 129.246 136.830  0.00  0.00    +0.000 OA
ENDROOT
BRANCH   1   5
ATOM      2  O   UNL     1     111.618 126.452 136.554  0.00  0.00    +0.000 OA
ATOM      3  O   UNL     1     109.702 127.707 134.784  0.00  0.00    +0.000 OA
ATOM      4  O   UNL     1     109.998 126.305 134.612  0.00  0.00    +0.000 OA
ATOM      5  C   UNL     1     110.864 128.527 136.440  0.00  0.00    +0.000 A 
ATOM      6  C   UNL     1     110.337 128.476 135.806  0.00  0.00    +0.000 A 
ATOM      7  C   UNL     1     111.283 127.859 136.682  0.00  0.00    +0.000 A 
ATOM      8  C   UNL     1     110.229 127.758 135.416  0.00  0.00    +0.000 A 
ATOM      9  C   UNL     1     111.175 127.140 136.292  0.00  0.00    +0.000 A 
ATOM     10  C   UNL     1     110.648 127.089 135.658  0.00  0.00    +0.000 A 
ATOM     11  C   UNL     1     109.918 129.145 135.564  0.00  0.00    +0.000 C 
ATOM     12  C   UNL     1     110.527 126.347 135.244  0.00  0.00    +0.000 A 
ATOM     13  C   UNL     1     111.510 125.700 136.152  0.00  0.00    +0.000 A 
ATOM     14  C   UNL     1     110.960 125.647 135.492  0.00  0.00    +0.000 A 
BRANCH  13  15
ATOM     15  C   UNL     1     111.930 125.033 136.396  0.00  0.00    +0.000 A 
ATOM     16  C   UNL     1     111.542 124.425 136.796  0.00  0.00    +0.000 A 
ATOM     17  C   UNL     1     112.738 124.975 136.241  0.00  0.00    +0.000 A 
ATOM     18  C   UNL     1     111.961 123.759 137.040  0.00  0.00    +0.000 A 
ATOM     19  C   UNL     1     113.158 124.309 136.486  0.00  0.00    +0.000 A 
ATOM     20  C   UNL     1     112.770 123.700 136.885  0.00  0.00    +0.000 A 
ENDBRANCH  13  15
ENDBRANCH   1   5
BRANCH   1  27
ATOM     21  O   UNL     1     112.313 129.501 136.407  0.00  0.00    +0.000 OA
ATOM     22  O   UNL     1     111.339 129.815 138.334  0.00  0.00    +0.000 OA
ATOM     23  O   UNL     1     114.021 130.324 137.488  0.00  0.00    +0.000 OA
ATOM     24  C   UNL     1     112.679 130.069 137.912  0.00  0.00    +0.000 C 
ATOM     25  C   UNL     1     111.918 129.800 137.747  0.00  0.00    +0.000 C 
ATOM     26  C   UNL     1     113.259 130.054 137.323  0.00  0.00    +0.000 C 
ATOM     27  C   UNL     1     111.734 129.516 136.994  0.00  0.00    +0.000 C 
ATOM     28  C   UNL     1     113.074 129.770 136.571  0.00  0.00    +0.000 C 
BRANCH  24  29
ATOM     29  O   UNL     1     112.864 130.353 138.664  0.00  0.00    +0.000 OA
BRANCH  29  34
ATOM     30  O   UNL     1     113.248 129.039 139.068  0.00  0.00    +0.000 OA
ATOM     31  O   UNL     1     113.271 130.931 140.155  0.00  0.00    +0.000 OA
ATOM     32  O   UNL     1     113.859 129.905 141.305  0.00  0.00    +0.000 OA
ATOM     33  O   UNL     1     114.040 128.300 140.964  0.00  0.00    +0.000 OA
ATOM     34  C   UNL     1     113.158 129.840 139.239  0.00  0.00    +0.000 C 
ATOM     35  C   UNL     1     113.361 130.130 139.984  0.00  0.00    +0.000 C 
ATOM     36  C   UNL     1     113.656 129.616 140.560  0.00  0.00    +0.000 C 
ATOM     37  C   UNL     1     113.746 128.814 140.389  0.00  0.00    +0.000 C 
ATOM     38  C   UNL     1     113.543 128.525 139.644  0.00  0.00    +0.000 C 
ENDBRANCH  29  34
ENDBRANCH  24  29
ENDBRANCH   1  27
TORSDOF 5
ENDMDL
MODEL 7
REMARK VINA RESULT:      -9.9      7.797      9.496
REMARK  Name = 44257623
REMARK  5 active torsions:
REMARK  status: ('A' for Active; 'I' for Inactive)
REMARK    1  A    between atoms: O_1  and  C_13
REMARK    2  A    between atoms: O_1  and  C_16
REMARK    3  A    between atoms: O_5  and  C_19
REMARK    4  A    between atoms: O_5  and  C_23
REMARK    5  A    between atoms: C_31  and  C_33
REMARK                            x       y       z     vdW  Elec       q    Type
REMARK                         _______ _______ _______ _____ _____    ______ ____
ROOT
ATOM      1  O   UNL     1     105.471 126.351 143.370  0.00  0.00    +0.000 OA
ENDROOT
BRANCH   1   5
ATOM      2  O   UNL     1     106.571 125.887 145.992  0.00  0.00    +0.000 OA
ATOM      3  O   UNL     1     105.730 128.538 145.192  0.00  0.00    +0.000 OA
ATOM      4  O   UNL     1     106.276 128.348 146.514  0.00  0.00    +0.000 OA
ATOM      5  C   UNL     1     105.696 126.643 144.108  0.00  0.00    +0.000 A 
ATOM      6  C   UNL     1     105.601 127.445 144.281  0.00  0.00    +0.000 A 
ATOM      7  C   UNL     1     106.015 126.135 144.673  0.00  0.00    +0.000 A 
ATOM      8  C   UNL     1     105.825 127.737 145.019  0.00  0.00    +0.000 A 
ATOM      9  C   UNL     1     106.240 126.427 145.412  0.00  0.00    +0.000 A 
ATOM     10  C   UNL     1     106.145 127.229 145.585  0.00  0.00    +0.000 A 
ATOM     11  C   UNL     1     105.281 127.954 143.715  0.00  0.00    +0.000 C 
ATOM     12  C   UNL     1     106.374 127.545 146.350  0.00  0.00    +0.000 A 
ATOM     13  C   UNL     1     106.807 126.185 146.763  0.00  0.00    +0.000 A 
ATOM     14  C   UNL     1     106.708 127.020 146.943  0.00  0.00    +0.000 A 
BRANCH  13  15
ATOM     15  C   UNL     1     107.126 125.674 147.327  0.00  0.00    +0.000 A 
ATOM     16  C   UNL     1     107.942 125.560 147.364  0.00  0.00    +0.000 A 
ATOM     17  C   UNL     1     106.629 125.277 147.852  0.00  0.00    +0.000 A 
ATOM     18  C   UNL     1     108.262 125.049 147.927  0.00  0.00    +0.000 A 
ATOM     19  C   UNL     1     106.948 124.766 148.416  0.00  0.00    +0.000 A 
ATOM     20  C   UNL     1     107.765 124.652 148.454  0.00  0.00    +0.000 A 
ENDBRANCH  13  15
ENDBRANCH   1   5
BRANCH   1  27
ATOM     21  O   UNL     1     106.773 126.360 142.779  0.00  0.00    +0.000 OA
ATOM     22  O   UNL     1     105.119 124.951 142.572  0.00  0.00    +0.000 OA
ATOM     23  O   UNL     1     107.721 124.969 141.391  0.00  0.00    +0.000 OA
ATOM     24  C   UNL     1     106.420 124.960 141.981  0.00  0.00    +0.000 C 
ATOM     25  C   UNL     1     105.858 125.305 142.475  0.00  0.00    +0.000 C 
ATOM     26  C   UNL     1     107.159 125.315 141.885  0.00  0.00    +0.000 C 
ATOM     27  C   UNL     1     106.034 126.006 142.875  0.00  0.00    +0.000 C 
ATOM     28  C   UNL     1     107.334 126.015 142.285  0.00  0.00    +0.000 C 
BRANCH  24  29
ATOM     29  O   UNL     1     106.244 124.260 141.582  0.00  0.00    +0.000 OA
BRANCH  29  34
ATOM     30  O   UNL     1     105.701 125.013 140.497  0.00  0.00    +0.000 OA
ATOM     31  O   UNL     1     105.916 122.859 140.773  0.00  0.00    +0.000 OA
ATOM     32  O   UNL     1     105.209 122.913 139.284  0.00  0.00    +0.000 OA
ATOM     33  O   UNL     1     104.829 124.367 138.603  0.00  0.00    +0.000 OA
ATOM     34  C   UNL     1     105.890 124.287 140.837  0.00  0.00    +0.000 C 
ATOM     35  C   UNL     1     105.727 123.586 140.433  0.00  0.00    +0.000 C 
ATOM     36  C   UNL     1     105.373 123.613 139.688  0.00  0.00    +0.000 C 
ATOM     37  C   UNL     1     105.183 124.340 139.347  0.00  0.00    +0.000 C 
ATOM     38  C   UNL     1     105.347 125.040 139.751  0.00  0.00    +0.000 C 
ENDBRANCH  29  34
ENDBRANCH  24  29
ENDBRANCH   1  27
TORSDOF 5
ENDMDL
MODEL 8
REMARK VINA RESULT:      -9.8      9.875     11.467
REMARK  Name = 44257623
REMARK  5 active torsions:
REMARK  status: ('A' for Active; 'I' for Inactive)
REMARK    1  A    between atoms: O_1  and  C_13
REMARK    2  A    between atoms: O_1  and  C_16
REMARK    3  A    between atoms: O_5  and  C_19
REMARK    4  A    between atoms: O_5  and  C_23
REMARK    5  A    between atoms: C_31  and  C_33
REMARK                            x       y       z     vdW  Elec       q    Type
REMARK                         _______ _______ _______ _____ _____    ______ ____
ROOT
ATOM      1  O   UNL     1     106.609 125.252 145.982  0.00  0.00    +0.000 OA
ENDROOT
BRANCH   1   5
ATOM      2  O   UNL     1     104.204 124.791 147.500  0.00  0.00    +0.000 OA
ATOM      3  O   UNL     1     106.780 124.914 148.815  0.00  0.00    +0.000 OA
ATOM      4  O   UNL     1     105.599 124.681 149.612  0.00  0.00    +0.000 OA
ATOM      5  C   UNL     1     106.242 125.119 146.709  0.00  0.00    +0.000 A 
ATOM      6  C   UNL     1     106.695 125.083 147.399  0.00  0.00    +0.000 A 
ATOM      7  C   UNL     1     105.424 125.023 146.747  0.00  0.00    +0.000 A 
ATOM      8  C   UNL     1     106.328 124.950 148.126  0.00  0.00    +0.000 A 
ATOM      9  C   UNL     1     105.057 124.890 147.474  0.00  0.00    +0.000 A 
ATOM     10  C   UNL     1     105.509 124.853 148.164  0.00  0.00    +0.000 A 
ATOM     11  C   UNL     1     107.513 125.179 147.361  0.00  0.00    +0.000 C 
ATOM     12  C   UNL     1     105.140 124.716 148.927  0.00  0.00    +0.000 A 
ATOM     13  C   UNL     1     103.816 124.652 148.255  0.00  0.00    +0.000 A 
ATOM     14  C   UNL     1     104.287 124.615 148.973  0.00  0.00    +0.000 A 
BRANCH  13  15
ATOM     15  C   UNL     1     102.997 124.556 148.290  0.00  0.00    +0.000 A 
ATOM     16  C   UNL     1     102.666 123.807 148.196  0.00  0.00    +0.000 A 
ATOM     17  C   UNL     1     102.511 125.210 148.418  0.00  0.00    +0.000 A 
ATOM     18  C   UNL     1     101.848 123.710 148.231  0.00  0.00    +0.000 A 
ATOM     19  C   UNL     1     101.692 125.114 148.453  0.00  0.00    +0.000 A 
ATOM     20  C   UNL     1     101.360 124.364 148.359  0.00  0.00    +0.000 A 
ENDBRANCH  13  15
ENDBRANCH   1   5
BRANCH   1  27
ATOM     21  O   UNL     1     106.062 126.533 145.662  0.00  0.00    +0.000 OA
ATOM     22  O   UNL     1     106.335 124.749 144.435  0.00  0.00    +0.000 OA
ATOM     23  O   UNL     1     105.240 127.310 143.796  0.00  0.00    +0.000 OA
ATOM     24  C   UNL     1     105.788 126.029 144.116  0.00  0.00    +0.000 C 
ATOM     25  C   UNL     1     106.130 125.515 144.662  0.00  0.00    +0.000 C 
ATOM     26  C   UNL     1     105.583 126.796 144.343  0.00  0.00    +0.000 C 
ATOM     27  C   UNL     1     106.267 125.766 145.436  0.00  0.00    +0.000 C 
ATOM     28  C   UNL     1     105.720 127.047 145.116  0.00  0.00    +0.000 C 
BRANCH  24  29
ATOM     29  O   UNL     1     105.650 125.778 143.342  0.00  0.00    +0.000 OA
BRANCH  29  34
ATOM     30  O   UNL     1     106.902 126.334 142.937  0.00  0.00    +0.000 OA
ATOM     31  O   UNL     1     105.376 125.270 141.796  0.00  0.00    +0.000 OA
ATOM     32  O   UNL     1     106.492 125.572 140.619  0.00  0.00    +0.000 OA
ATOM     33  O   UNL     1     107.881 126.383 140.987  0.00  0.00    +0.000 OA
ATOM     34  C   UNL     1     106.208 125.929 142.753  0.00  0.00    +0.000 C 
ATOM     35  C   UNL     1     106.070 125.675 141.980  0.00  0.00    +0.000 C 
ATOM     36  C   UNL     1     106.629 125.826 141.391  0.00  0.00    +0.000 C 
ATOM     37  C   UNL     1     107.323 126.232 141.576  0.00  0.00    +0.000 C 
ATOM     38  C   UNL     1     107.460 126.486 142.348  0.00  0.00    +0.000 C 
ENDBRANCH  29  34
ENDBRANCH  24  29
ENDBRANCH   1  27
TORSDOF 5
ENDMDL
MODEL 9
REMARK VINA RESULT:      -9.8      1.787      2.591
REMARK  Name = 44257623
REMARK  5 active torsions:
REMARK  status: ('A' for Active; 'I' for Inactive)
REMARK    1  A    between atoms: O_1  and  C_13
REMARK    2  A    between atoms: O_1  and  C_16
REMARK    3  A    between atoms: O_5  and  C_19
REMARK    4  A    between atoms: O_5  and  C_23
REMARK    5  A    between atoms: C_31  and  C_33
REMARK                            x       y       z     vdW  Elec       q    Type
REMARK                         _______ _______ _______ _____ _____    ______ ____
ROOT
ATOM      1  O   UNL     1     109.328 128.130 136.954  0.00  0.00    +0.000 OA
ENDROOT
BRANCH   1   5
ATOM      2  O   UNL     1     111.693 126.488 136.845  0.00  0.00    +0.000 OA
ATOM      3  O   UNL     1     109.384 125.864 135.214  0.00  0.00    +0.000 OA
ATOM      4  O   UNL     1     110.549 125.016 135.130  0.00  0.00    +0.000 OA
ATOM      5  C   UNL     1     109.727 127.478 136.643  0.00  0.00    +0.000 A 
ATOM      6  C   UNL     1     109.357 126.996 136.084  0.00  0.00    +0.000 A 
ATOM      7  C   UNL     1     110.495 127.307 136.890  0.00  0.00    +0.000 A 
ATOM      8  C   UNL     1     109.755 126.345 135.773  0.00  0.00    +0.000 A 
ATOM      9  C   UNL     1     110.894 126.655 136.579  0.00  0.00    +0.000 A 
ATOM     10  C   UNL     1     110.523 126.173 136.020  0.00  0.00    +0.000 A 
ATOM     11  C   UNL     1     108.588 127.168 135.837  0.00  0.00    +0.000 C 
ATOM     12  C   UNL     1     110.927 125.492 135.688  0.00  0.00    +0.000 A 
ATOM     13  C   UNL     1     112.113 125.810 136.524  0.00  0.00    +0.000 A 
ATOM     14  C   UNL     1     111.728 125.308 135.942  0.00  0.00    +0.000 A 
BRANCH  13  15
ATOM     15  C   UNL     1     112.882 125.641 136.773  0.00  0.00    +0.000 A 
ATOM     16  C   UNL     1     113.024 124.990 137.259  0.00  0.00    +0.000 A 
ATOM     17  C   UNL     1     113.507 126.124 136.536  0.00  0.00    +0.000 A 
ATOM     18  C   UNL     1     113.791 124.821 137.508  0.00  0.00    +0.000 A 
ATOM     19  C   UNL     1     114.276 125.955 136.785  0.00  0.00    +0.000 A 
ATOM     20  C   UNL     1     114.418 125.304 137.271  0.00  0.00    +0.000 A 
ENDBRANCH  13  15
ENDBRANCH   1   5
BRANCH   1  27
ATOM     21  O   UNL     1     110.169 129.094 136.316  0.00  0.00    +0.000 OA
ATOM     22  O   UNL     1     109.078 129.178 138.204  0.00  0.00    +0.000 OA
ATOM     23  O   UNL     1     110.759 131.104 136.926  0.00  0.00    +0.000 OA
ATOM     24  C   UNL     1     109.918 130.140 137.566  0.00  0.00    +0.000 C 
ATOM     25  C   UNL     1     109.561 129.398 137.573  0.00  0.00    +0.000 C 
ATOM     26  C   UNL     1     110.401 130.360 136.933  0.00  0.00    +0.000 C 
ATOM     27  C   UNL     1     109.686 128.873 136.947  0.00  0.00    +0.000 C 
ATOM     28  C   UNL     1     110.526 129.836 136.309  0.00  0.00    +0.000 C 
BRANCH  24  29
ATOM     29  O   UNL     1     109.794 130.665 138.190  0.00  0.00    +0.000 OA
BRANCH  29  34
ATOM     30  O   UNL     1     110.950 130.152 138.854  0.00  0.00    +0.000 OA
ATOM     31  O   UNL     1     109.506 131.669 139.467  0.00  0.00    +0.000 OA
ATOM     32  O   UNL     1     110.520 131.659 140.769  0.00  0.00    +0.000 OA
ATOM     33  O   UNL     1     111.820 130.644 140.795  0.00  0.00    +0.000 OA
ATOM     34  C   UNL     1     110.300 130.659 138.841  0.00  0.00    +0.000 C 
ATOM     35  C   UNL     1     110.156 131.162 139.480  0.00  0.00    +0.000 C 
ATOM     36  C   UNL     1     110.663 131.157 140.132  0.00  0.00    +0.000 C 
ATOM     37  C   UNL     1     111.314 130.649 140.144  0.00  0.00    +0.000 C 
ATOM     38  C   UNL     1     111.457 130.147 139.506  0.00  0.00    +0.000 C 
ENDBRANCH  29  34
ENDBRANCH  24  29
ENDBRANCH   1  27
TORSDOF 5
ENDMDL
MODEL 10
REMARK VINA RESULT:      -9.8      1.971      3.751
REMARK  Name = 44257623
REMARK  5 active torsions:
REMARK  status: ('A' for Active; 'I' for Inactive)
REMARK    1  A    between atoms: O_1  and  C_13
REMARK    2  A    between atoms: O_1  and  C_16
REMARK    3  A    between atoms: O_5  and  C_19
REMARK    4  A    between atoms: O_5  and  C_23
REMARK    5  A    between atoms: C_31  and  C_33
REMARK                            x       y       z     vdW  Elec       q    Type
REMARK                         _______ _______ _______ _____ _____    ______ ____
ROOT
ATOM      1  O   UNL     1     111.755 129.259 139.397  0.00  0.00    +0.000 OA
ENDROOT
BRANCH   1   5
ATOM      2  O   UNL     1     112.945 126.893 138.262  0.00  0.00    +0.000 OA
ATOM      3  O   UNL     1     113.818 127.899 140.832  0.00  0.00    +0.000 OA
ATOM      4  O   UNL     1     114.440 126.711 140.299  0.00  0.00    +0.000 OA
ATOM      5  C   UNL     1     112.298 128.641 139.452  0.00  0.00    +0.000 A 
ATOM      6  C   UNL     1     112.787 128.579 140.115  0.00  0.00    +0.000 A 
ATOM      7  C   UNL     1     112.353 128.085 138.846  0.00  0.00    +0.000 A 
ATOM      8  C   UNL     1     113.330 127.961 140.170  0.00  0.00    +0.000 A 
ATOM      9  C   UNL     1     112.897 127.466 138.901  0.00  0.00    +0.000 A 
ATOM     10  C   UNL     1     113.386 127.404 139.564  0.00  0.00    +0.000 A 
ATOM     11  C   UNL     1     112.731 129.135 140.722  0.00  0.00    +0.000 C 
ATOM     12  C   UNL     1     113.956 126.765 139.633  0.00  0.00    +0.000 A 
ATOM     13  C   UNL     1     113.509 126.247 138.314  0.00  0.00    +0.000 A 
ATOM     14  C   UNL     1     114.018 126.182 139.004  0.00  0.00    +0.000 A 
BRANCH  13  15
ATOM     15  C   UNL     1     113.562 125.692 137.706  0.00  0.00    +0.000 A 
ATOM     16  C   UNL     1     112.974 125.120 137.617  0.00  0.00    +0.000 A 
ATOM     17  C   UNL     1     114.204 125.709 137.187  0.00  0.00    +0.000 A 
ATOM     18  C   UNL     1     113.027 124.566 137.009  0.00  0.00    +0.000 A 
ATOM     19  C   UNL     1     114.257 125.154 136.579  0.00  0.00    +0.000 A 
ATOM     20  C   UNL     1     113.669 124.582 136.490  0.00  0.00    +0.000 A 
ENDBRANCH  13  15
ENDBRANCH   1   5
BRANCH   1  27
ATOM     21  O   UNL     1     112.338 129.892 138.256  0.00  0.00    +0.000 OA
ATOM     22  O   UNL     1     110.250 129.645 138.840  0.00  0.00    +0.000 OA
ATOM     23  O   UNL     1     111.418 130.910 136.560  0.00  0.00    +0.000 OA
ATOM     24  C   UNL     1     110.834 130.277 137.700  0.00  0.00    +0.000 C 
ATOM     25  C   UNL     1     110.918 129.865 138.409  0.00  0.00    +0.000 C 
ATOM     26  C   UNL     1     111.502 130.497 137.269  0.00  0.00    +0.000 C 
ATOM     27  C   UNL     1     111.670 129.672 138.688  0.00  0.00    +0.000 C 
ATOM     28  C   UNL     1     112.254 130.304 137.548  0.00  0.00    +0.000 C 
BRANCH  24  29
ATOM     29  O   UNL     1     110.082 130.470 137.422  0.00  0.00    +0.000 OA
BRANCH  29  34
ATOM     30  O   UNL     1     110.052 129.265 136.656  0.00  0.00    +0.000 OA
ATOM     31  O   UNL     1     108.526 130.793 136.974  0.00  0.00    +0.000 OA
ATOM     32  O   UNL     1     107.719 129.748 135.985  0.00  0.00    +0.000 OA
ATOM     33  O   UNL     1     108.467 128.381 135.442  0.00  0.00    +0.000 OA
ATOM     34  C   UNL     1     109.678 129.948 136.927  0.00  0.00    +0.000 C 
ATOM     35  C   UNL     1     108.900 130.110 136.703  0.00  0.00    +0.000 C 
ATOM     36  C   UNL     1     108.496 129.587 136.208  0.00  0.00    +0.000 C 
ATOM     37  C   UNL     1     108.871 128.903 135.937  0.00  0.00    +0.000 C 
ATOM     38  C   UNL     1     109.647 128.742 136.160  0.00  0.00    +0.000 C 
ENDBRANCH  29  34
ENDBRANCH  24  29
ENDBRANCH   1  27
TORSDOF 5
ENDMDL
