MODEL 1
REMARK VINA RESULT:      -9.8      0.000      0.000
REMARK  Name = 74977996
REMARK  6 active torsions:
REMARK  status: ('A' for Active; 'I' for Inactive)
REMARK    1  A    between atoms: O_1  and  C_16
REMARK    2  A    between atoms: O_1  and  C_21
REMARK    3  A    between atoms: O_4  and  C_20
REMARK    4  A    between atoms: O_4  and  C_27
REMARK    5  A    between atoms: C_19  and  C_25
REMARK    6  A    between atoms: C_28  and  C_32
REMARK                            x       y       z     vdW  Elec       q    Type
REMARK                         _______ _______ _______ _____ _____    ______ ____
ROOT
ATOM      1  O   UNL     1     112.069 127.110 137.518  0.00  0.00    +0.000 OA
ENDROOT
BRANCH   1   6
ATOM      2  O   UNL     1     113.382 126.115 138.949  0.00  0.00    +0.000 OA
ATOM      3  O   UNL     1     112.463 128.370 138.507  0.00  0.00    +0.000 OA
ATOM      4  O   UNL     1     113.161 128.910 139.649  0.00  0.00    +0.000 OA
ATOM      5  O   UNL     1     114.819 127.135 141.269  0.00  0.00    +0.000 OA
ATOM      6  C   UNL     1     112.572 126.988 138.160  0.00  0.00    +0.000 A 
ATOM      7  C   UNL     1     112.879 126.236 138.307  0.00  0.00    +0.000 A 
ATOM      8  C   UNL     1     112.770 127.618 138.654  0.00  0.00    +0.000 A 
ATOM      9  C   UNL     1     113.273 127.497 139.296  0.00  0.00    +0.000 A 
ATOM     10  C   UNL     1     113.580 126.746 139.444  0.00  0.00    +0.000 A 
ATOM     11  C   UNL     1     113.472 128.162 139.804  0.00  0.00    +0.000 A 
ATOM     12  C   UNL     1     114.106 126.606 140.109  0.00  0.00    +0.000 A 
ATOM     13  C   UNL     1     113.996 128.041 140.474  0.00  0.00    +0.000 A 
ATOM     14  C   UNL     1     114.315 127.259 140.627  0.00  0.00    +0.000 A 
BRANCH   7  16
ATOM     15  O   UNL     1     112.089 123.714 136.331  0.00  0.00    +0.000 OA
ATOM     16  C   UNL     1     112.681 125.606 137.814  0.00  0.00    +0.000 A 
ATOM     17  C   UNL     1     111.968 125.206 137.921  0.00  0.00    +0.000 A 
ATOM     18  C   UNL     1     113.197 125.376 137.212  0.00  0.00    +0.000 A 
ATOM     19  C   UNL     1     111.770 124.575 137.427  0.00  0.00    +0.000 A 
ATOM     20  C   UNL     1     113.000 124.746 136.718  0.00  0.00    +0.000 A 
ATOM     21  C   UNL     1     112.287 124.345 136.825  0.00  0.00    +0.000 A 
ENDBRANCH   7  16
ENDBRANCH   1   6
BRANCH   1  29
ATOM     22  O   UNL     1     113.031 127.802 136.720  0.00  0.00    +0.000 OA
ATOM     23  O   UNL     1     111.225 129.179 135.736  0.00  0.00    +0.000 OA
ATOM     24  O   UNL     1     112.789 129.412 135.267  0.00  0.00    +0.000 OA
ATOM     25  C   UNL     1     111.646 128.144 136.627  0.00  0.00    +0.000 C 
ATOM     26  C   UNL     1     111.827 128.720 136.064  0.00  0.00    +0.000 C 
ATOM     27  C   UNL     1     112.608 128.837 135.830  0.00  0.00    +0.000 C 
ATOM     28  C   UNL     1     113.211 128.378 136.158  0.00  0.00    +0.000 C 
ATOM     29  C   UNL     1     112.248 127.685 136.955  0.00  0.00    +0.000 C 
BRANCH  28  31
ATOM     30  O   UNL     1     114.430 127.863 135.620  0.00  0.00    +0.000 OA
ATOM     31  C   UNL     1     113.993 128.494 135.923  0.00  0.00    +0.000 C 
ENDBRANCH  28  31
BRANCH  25  32
ATOM     32  O   UNL     1     110.865 128.027 136.862  0.00  0.00    +0.000 OA
BRANCH  32  37
ATOM     33  O   UNL     1     110.620 127.273 135.673  0.00  0.00    +0.000 OA
ATOM     34  O   UNL     1     109.296 127.806 137.325  0.00  0.00    +0.000 OA
ATOM     35  O   UNL     1     108.268 126.941 136.367  0.00  0.00    +0.000 OA
ATOM     36  O   UNL     1     108.808 126.298 134.947  0.00  0.00    +0.000 OA
ATOM     37  C   UNL     1     110.350 127.595 136.383  0.00  0.00    +0.000 C 
ATOM     38  C   UNL     1     109.566 127.484 136.615  0.00  0.00    +0.000 C 
ATOM     39  C   UNL     1     109.051 127.052 136.136  0.00  0.00    +0.000 C 
ATOM     40  C   UNL     1     109.322 126.730 135.426  0.00  0.00    +0.000 C 
ATOM     41  C   UNL     1     110.105 126.841 135.194  0.00  0.00    +0.000 C 
ENDBRANCH  32  37
ENDBRANCH  25  32
ENDBRANCH   1  29
TORSDOF 6
ENDMDL
MODEL 2
REMARK VINA RESULT:      -9.6      2.283      4.057
REMARK  Name = 74977996
REMARK  6 active torsions:
REMARK  status: ('A' for Active; 'I' for Inactive)
REMARK    1  A    between atoms: O_1  and  C_16
REMARK    2  A    between atoms: O_1  and  C_21
REMARK    3  A    between atoms: O_4  and  C_20
REMARK    4  A    between atoms: O_4  and  C_27
REMARK    5  A    between atoms: C_19  and  C_25
REMARK    6  A    between atoms: C_28  and  C_32
REMARK                            x       y       z     vdW  Elec       q    Type
REMARK                         _______ _______ _______ _____ _____    ______ ____
ROOT
ATOM      1  O   UNL     1     111.591 126.401 139.004  0.00  0.00    +0.000 OA
ENDROOT
BRANCH   1   6
ATOM      2  O   UNL     1     113.739 126.179 138.692  0.00  0.00    +0.000 OA
ATOM      3  O   UNL     1     111.614 125.315 137.763  0.00  0.00    +0.000 OA
ATOM      4  O   UNL     1     112.329 124.499 136.811  0.00  0.00    +0.000 OA
ATOM      5  O   UNL     1     115.248 124.559 136.799  0.00  0.00    +0.000 OA
ATOM      6  C   UNL     1     112.311 126.146 138.693  0.00  0.00    +0.000 A 
ATOM      7  C   UNL     1     113.019 126.435 139.003  0.00  0.00    +0.000 A 
ATOM      8  C   UNL     1     112.323 125.603 138.073  0.00  0.00    +0.000 A 
ATOM      9  C   UNL     1     113.043 125.348 137.761  0.00  0.00    +0.000 A 
ATOM     10  C   UNL     1     113.751 125.636 138.070  0.00  0.00    +0.000 A 
ATOM     11  C   UNL     1     113.042 124.782 137.114  0.00  0.00    +0.000 A 
ATOM     12  C   UNL     1     114.508 125.378 137.755  0.00  0.00    +0.000 A 
ATOM     13  C   UNL     1     113.789 124.512 136.786  0.00  0.00    +0.000 A 
ATOM     14  C   UNL     1     114.526 124.813 137.109  0.00  0.00    +0.000 A 
BRANCH   7  16
ATOM     15  O   UNL     1     112.973 128.607 141.486  0.00  0.00    +0.000 OA
ATOM     16  C   UNL     1     113.008 126.977 139.623  0.00  0.00    +0.000 A 
ATOM     17  C   UNL     1     112.921 126.714 140.400  0.00  0.00    +0.000 A 
ATOM     18  C   UNL     1     113.083 127.784 139.468  0.00  0.00    +0.000 A 
ATOM     19  C   UNL     1     112.909 127.257 141.022  0.00  0.00    +0.000 A 
ATOM     20  C   UNL     1     113.072 128.327 140.088  0.00  0.00    +0.000 A 
ATOM     21  C   UNL     1     112.985 128.064 140.865  0.00  0.00    +0.000 A 
ENDBRANCH   7  16
ENDBRANCH   1   6
BRANCH   1  29
ATOM     22  O   UNL     1     111.246 127.228 137.891  0.00  0.00    +0.000 OA
ATOM     23  O   UNL     1     108.852 126.713 138.250  0.00  0.00    +0.000 OA
ATOM     24  O   UNL     1     109.305 127.711 137.018  0.00  0.00    +0.000 OA
ATOM     25  C   UNL     1     110.221 126.557 138.628  0.00  0.00    +0.000 C 
ATOM     26  C   UNL     1     109.650 126.885 138.130  0.00  0.00    +0.000 C 
ATOM     27  C   UNL     1     109.876 127.384 137.514  0.00  0.00    +0.000 C 
ATOM     28  C   UNL     1     110.674 127.555 137.394  0.00  0.00    +0.000 C 
ATOM     29  C   UNL     1     111.019 126.728 138.508  0.00  0.00    +0.000 C 
BRANCH  28  31
ATOM     30  O   UNL     1     111.303 128.757 136.943  0.00  0.00    +0.000 OA
ATOM     31  C   UNL     1     110.901 128.054 136.778  0.00  0.00    +0.000 C 
ENDBRANCH  28  31
BRANCH  25  32
ATOM     32  O   UNL     1     109.995 126.058 139.244  0.00  0.00    +0.000 OA
BRANCH  32  37
ATOM     33  O   UNL     1     109.627 127.193 140.030  0.00  0.00    +0.000 OA
ATOM     34  O   UNL     1     109.438 125.056 140.430  0.00  0.00    +0.000 OA
ATOM     35  O   UNL     1     108.791 125.690 141.810  0.00  0.00    +0.000 OA
ATOM     36  O   UNL     1     108.702 127.326 142.003  0.00  0.00    +0.000 OA
ATOM     37  C   UNL     1     109.672 126.375 139.933  0.00  0.00    +0.000 C 
ATOM     38  C   UNL     1     109.393 125.874 140.527  0.00  0.00    +0.000 C 
ATOM     39  C   UNL     1     109.070 126.191 141.217  0.00  0.00    +0.000 C 
ATOM     40  C   UNL     1     109.026 127.009 141.313  0.00  0.00    +0.000 C 
ATOM     41  C   UNL     1     109.304 127.510 140.720  0.00  0.00    +0.000 C 
ENDBRANCH  32  37
ENDBRANCH  25  32
ENDBRANCH   1  29
TORSDOF 6
ENDMDL
MODEL 3
REMARK VINA RESULT:      -9.6      1.112      2.831
REMARK  Name = 74977996
REMARK  6 active torsions:
REMARK  status: ('A' for Active; 'I' for Inactive)
REMARK    1  A    between atoms: O_1  and  C_16
REMARK    2  A    between atoms: O_1  and  C_21
REMARK    3  A    between atoms: O_4  and  C_20
REMARK    4  A    between atoms: O_4  and  C_27
REMARK    5  A    between atoms: C_19  and  C_25
REMARK    6  A    between atoms: C_28  and  C_32
REMARK                            x       y       z     vdW  Elec       q    Type
REMARK                         _______ _______ _______ _____ _____    ______ ____
ROOT
ATOM      1  O   UNL     1     112.331 126.997 137.573  0.00  0.00    +0.000 OA
ENDROOT
BRANCH   1   6
ATOM      2  O   UNL     1     113.394 128.729 138.367  0.00  0.00    +0.000 OA
ATOM      3  O   UNL     1     112.526 126.547 139.148  0.00  0.00    +0.000 OA
ATOM      4  O   UNL     1     113.005 126.802 140.485  0.00  0.00    +0.000 OA
ATOM      5  O   UNL     1     114.389 129.312 141.042  0.00  0.00    +0.000 OA
ATOM      6  C   UNL     1     112.718 127.499 138.101  0.00  0.00    +0.000 A 
ATOM      7  C   UNL     1     113.007 128.227 137.840  0.00  0.00    +0.000 A 
ATOM      8  C   UNL     1     112.815 127.274 138.888  0.00  0.00    +0.000 A 
ATOM      9  C   UNL     1     113.202 127.777 139.415  0.00  0.00    +0.000 A 
ATOM     10  C   UNL     1     113.492 128.504 139.156  0.00  0.00    +0.000 A 
ATOM     11  C   UNL     1     113.298 127.531 140.234  0.00  0.00    +0.000 A 
ATOM     12  C   UNL     1     113.897 129.037 139.695  0.00  0.00    +0.000 A 
ATOM     13  C   UNL     1     113.701 128.050 140.788  0.00  0.00    +0.000 A 
ATOM     14  C   UNL     1     114.002 128.808 140.516  0.00  0.00    +0.000 A 
BRANCH   7  16
ATOM     15  O   UNL     1     112.616 129.128 134.689  0.00  0.00    +0.000 OA
ATOM     16  C   UNL     1     112.910 128.452 137.053  0.00  0.00    +0.000 A 
ATOM     17  C   UNL     1     112.202 128.799 136.808  0.00  0.00    +0.000 A 
ATOM     18  C   UNL     1     113.519 128.331 136.510  0.00  0.00    +0.000 A 
ATOM     19  C   UNL     1     112.104 129.024 136.019  0.00  0.00    +0.000 A 
ATOM     20  C   UNL     1     113.422 128.556 135.723  0.00  0.00    +0.000 A 
ATOM     21  C   UNL     1     112.714 128.903 135.478  0.00  0.00    +0.000 A 
ENDBRANCH   7  16
ENDBRANCH   1   6
BRANCH   1  29
ATOM     22  O   UNL     1     113.407 126.066 137.443  0.00  0.00    +0.000 OA
ATOM     23  O   UNL     1     111.778 124.217 137.208  0.00  0.00    +0.000 OA
ATOM     24  O   UNL     1     113.396 123.903 137.157  0.00  0.00    +0.000 OA
ATOM     25  C   UNL     1     112.054 125.607 137.391  0.00  0.00    +0.000 C 
ATOM     26  C   UNL     1     112.321 124.833 137.286  0.00  0.00    +0.000 C 
ATOM     27  C   UNL     1     113.130 124.676 137.261  0.00  0.00    +0.000 C 
ATOM     28  C   UNL     1     113.673 125.292 137.339  0.00  0.00    +0.000 C 
ATOM     29  C   UNL     1     112.597 126.223 137.469  0.00  0.00    +0.000 C 
BRANCH  28  31
ATOM     30  O   UNL     1     114.936 125.414 136.683  0.00  0.00    +0.000 OA
ATOM     31  C   UNL     1     114.482 125.135 137.313  0.00  0.00    +0.000 C 
ENDBRANCH  28  31
BRANCH  25  32
ATOM     32  O   UNL     1     111.245 125.764 137.416  0.00  0.00    +0.000 OA
BRANCH  32  37
ATOM     33  O   UNL     1     111.157 125.603 135.999  0.00  0.00    +0.000 OA
ATOM     34  O   UNL     1     109.699 126.339 137.446  0.00  0.00    +0.000 OA
ATOM     35  O   UNL     1     108.838 126.465 136.044  0.00  0.00    +0.000 OA
ATOM     36  O   UNL     1     109.524 126.017 134.612  0.00  0.00    +0.000 OA
ATOM     37  C   UNL     1     110.815 125.827 136.715  0.00  0.00    +0.000 C 
ATOM     38  C   UNL     1     110.041 126.115 136.730  0.00  0.00    +0.000 C 
ATOM     39  C   UNL     1     109.611 126.178 136.029  0.00  0.00    +0.000 C 
ATOM     40  C   UNL     1     109.954 125.953 135.313  0.00  0.00    +0.000 C 
ATOM     41  C   UNL     1     110.727 125.666 135.298  0.00  0.00    +0.000 C 
ENDBRANCH  32  37
ENDBRANCH  25  32
ENDBRANCH   1  29
TORSDOF 6
ENDMDL
MODEL 4
REMARK VINA RESULT:      -9.6      1.633      3.732
REMARK  Name = 74977996
REMARK  6 active torsions:
REMARK  status: ('A' for Active; 'I' for Inactive)
REMARK    1  A    between atoms: O_1  and  C_16
REMARK    2  A    between atoms: O_1  and  C_21
REMARK    3  A    between atoms: O_4  and  C_20
REMARK    4  A    between atoms: O_4  and  C_27
REMARK    5  A    between atoms: C_19  and  C_25
REMARK    6  A    between atoms: C_28  and  C_32
REMARK                            x       y       z     vdW  Elec       q    Type
REMARK                         _______ _______ _______ _____ _____    ______ ____
ROOT
ATOM      1  O   UNL     1     111.224 127.774 136.944  0.00  0.00    +0.000 OA
ENDROOT
BRANCH   1   6
ATOM      2  O   UNL     1     112.843 126.460 136.296  0.00  0.00    +0.000 OA
ATOM      3  O   UNL     1     110.714 126.327 137.552  0.00  0.00    +0.000 OA
ATOM      4  O   UNL     1     110.890 124.910 137.757  0.00  0.00    +0.000 OA
ATOM      5  O   UNL     1     113.265 123.603 136.672  0.00  0.00    +0.000 OA
ATOM      6  C   UNL     1     111.679 127.095 136.830  0.00  0.00    +0.000 A 
ATOM      7  C   UNL     1     112.389 127.139 136.411  0.00  0.00    +0.000 A 
ATOM      8  C   UNL     1     111.423 126.372 137.133  0.00  0.00    +0.000 A 
ATOM      9  C   UNL     1     111.878 125.693 137.019  0.00  0.00    +0.000 A 
ATOM     10  C   UNL     1     112.587 125.736 136.600  0.00  0.00    +0.000 A 
ATOM     11  C   UNL     1     111.601 124.945 137.340  0.00  0.00    +0.000 A 
ATOM     12  C   UNL     1     113.070 125.037 136.474  0.00  0.00    +0.000 A 
ATOM     13  C   UNL     1     112.070 124.234 137.224  0.00  0.00    +0.000 A 
ATOM     14  C   UNL     1     112.809 124.281 136.788  0.00  0.00    +0.000 A 
BRANCH   7  16
ATOM     15  O   UNL     1     113.410 130.032 135.195  0.00  0.00    +0.000 OA
ATOM     16  C   UNL     1     112.644 127.862 136.108  0.00  0.00    +0.000 A 
ATOM     17  C   UNL     1     112.324 128.150 135.404  0.00  0.00    +0.000 A 
ATOM     18  C   UNL     1     113.219 128.298 136.507  0.00  0.00    +0.000 A 
ATOM     19  C   UNL     1     112.580 128.874 135.099  0.00  0.00    +0.000 A 
ATOM     20  C   UNL     1     113.475 129.021 136.204  0.00  0.00    +0.000 A 
ATOM     21  C   UNL     1     113.155 129.309 135.500  0.00  0.00    +0.000 A 
ENDBRANCH   7  16
ENDBRANCH   1   6
BRANCH   1  29
ATOM     22  O   UNL     1     111.566 127.949 138.320  0.00  0.00    +0.000 OA
ATOM     23  O   UNL     1     109.295 128.824 138.773  0.00  0.00    +0.000 OA
ATOM     24  O   UNL     1     110.394 128.708 139.997  0.00  0.00    +0.000 OA
ATOM     25  C   UNL     1     110.259 128.299 137.858  0.00  0.00    +0.000 C 
ATOM     26  C   UNL     1     110.052 128.532 138.622  0.00  0.00    +0.000 C 
ATOM     27  C   UNL     1     110.601 128.475 139.234  0.00  0.00    +0.000 C 
ATOM     28  C   UNL     1     111.358 128.183 139.084  0.00  0.00    +0.000 C 
ATOM     29  C   UNL     1     111.016 128.007 137.707  0.00  0.00    +0.000 C 
BRANCH  28  31
ATOM     30  O   UNL     1     112.616 128.547 139.655  0.00  0.00    +0.000 OA
ATOM     31  C   UNL     1     111.908 128.125 139.696  0.00  0.00    +0.000 C 
ENDBRANCH  28  31
BRANCH  25  32
ATOM     32  O   UNL     1     109.711 128.356 137.246  0.00  0.00    +0.000 OA
BRANCH  32  37
ATOM     33  O   UNL     1     109.977 129.756 137.135  0.00  0.00    +0.000 OA
ATOM     34  O   UNL     1     108.518 128.494 136.113  0.00  0.00    +0.000 OA
ATOM     35  O   UNL     1     108.189 129.963 135.436  0.00  0.00    +0.000 OA
ATOM     36  O   UNL     1     109.052 131.293 135.892  0.00  0.00    +0.000 OA
ATOM     37  C   UNL     1     109.546 129.091 136.907  0.00  0.00    +0.000 C 
ATOM     38  C   UNL     1     108.949 129.160 136.340  0.00  0.00    +0.000 C 
ATOM     39  C   UNL     1     108.785 129.894 136.002  0.00  0.00    +0.000 C 
ATOM     40  C   UNL     1     109.217 130.559 136.231  0.00  0.00    +0.000 C 
ATOM     41  C   UNL     1     109.812 130.490 136.796  0.00  0.00    +0.000 C 
ENDBRANCH  32  37
ENDBRANCH  25  32
ENDBRANCH   1  29
TORSDOF 6
ENDMDL
MODEL 5
REMARK VINA RESULT:      -9.5      2.794      4.532
REMARK  Name = 74977996
REMARK  6 active torsions:
REMARK  status: ('A' for Active; 'I' for Inactive)
REMARK    1  A    between atoms: O_1  and  C_16
REMARK    2  A    between atoms: O_1  and  C_21
REMARK    3  A    between atoms: O_4  and  C_20
REMARK    4  A    between atoms: O_4  and  C_27
REMARK    5  A    between atoms: C_19  and  C_25
REMARK    6  A    between atoms: C_28  and  C_32
REMARK                            x       y       z     vdW  Elec       q    Type
REMARK                         _______ _______ _______ _____ _____    ______ ____
ROOT
ATOM      1  O   UNL     1     110.477 129.685 137.641  0.00  0.00    +0.000 OA
ENDROOT
BRANCH   1   6
ATOM      2  O   UNL     1     111.766 128.019 138.214  0.00  0.00    +0.000 OA
ATOM      3  O   UNL     1     109.419 128.753 138.499  0.00  0.00    +0.000 OA
ATOM      4  O   UNL     1     109.114 127.574 139.272  0.00  0.00    +0.000 OA
ATOM      5  O   UNL     1     111.223 125.615 139.766  0.00  0.00    +0.000 OA
ATOM      6  C   UNL     1     110.730 128.974 137.975  0.00  0.00    +0.000 A 
ATOM      7  C   UNL     1     111.513 128.730 137.880  0.00  0.00    +0.000 A 
ATOM      8  C   UNL     1     110.202 128.509 138.404  0.00  0.00    +0.000 A 
ATOM      9  C   UNL     1     110.455 127.798 138.737  0.00  0.00    +0.000 A 
ATOM     10  C   UNL     1     111.237 127.553 138.643  0.00  0.00    +0.000 A 
ATOM     11  C   UNL     1     109.895 127.321 139.182  0.00  0.00    +0.000 A 
ATOM     12  C   UNL     1     111.513 126.815 138.985  0.00  0.00    +0.000 A 
ATOM     13  C   UNL     1     110.153 126.580 139.532  0.00  0.00    +0.000 A 
ATOM     14  C   UNL     1     110.967 126.326 139.433  0.00  0.00    +0.000 A 
BRANCH   7  16
ATOM     15  O   UNL     1     113.629 130.592 136.164  0.00  0.00    +0.000 OA
ATOM     16  C   UNL     1     112.041 129.195 137.451  0.00  0.00    +0.000 A 
ATOM     17  C   UNL     1     112.190 129.026 136.658  0.00  0.00    +0.000 A 
ATOM     18  C   UNL     1     112.422 129.831 137.815  0.00  0.00    +0.000 A 
ATOM     19  C   UNL     1     112.720 129.492 136.228  0.00  0.00    +0.000 A 
ATOM     20  C   UNL     1     112.950 130.296 137.387  0.00  0.00    +0.000 A 
ATOM     21  C   UNL     1     113.099 130.126 136.593  0.00  0.00    +0.000 A 
ENDBRANCH   7  16
ENDBRANCH   1   6
BRANCH   1  29
ATOM     22  O   UNL     1     109.720 129.083 136.589  0.00  0.00    +0.000 OA
ATOM     23  O   UNL     1     108.088 130.941 136.701  0.00  0.00    +0.000 OA
ATOM     24  O   UNL     1     107.875 129.720 135.613  0.00  0.00    +0.000 OA
ATOM     25  C   UNL     1     109.282 130.313 137.172  0.00  0.00    +0.000 C 
ATOM     26  C   UNL     1     108.632 130.321 136.664  0.00  0.00    +0.000 C 
ATOM     27  C   UNL     1     108.525 129.712 136.120  0.00  0.00    +0.000 C 
ATOM     28  C   UNL     1     109.069 129.092 136.082  0.00  0.00    +0.000 C 
ATOM     29  C   UNL     1     109.826 129.694 137.134  0.00  0.00    +0.000 C 
BRANCH  28  31
ATOM     30  O   UNL     1     109.530 128.347 134.954  0.00  0.00    +0.000 OA
ATOM     31  C   UNL     1     108.963 128.482 135.538  0.00  0.00    +0.000 C 
ENDBRANCH  28  31
BRANCH  25  32
ATOM     32  O   UNL     1     109.389 130.923 137.716  0.00  0.00    +0.000 OA
BRANCH  32  37
ATOM     33  O   UNL     1     109.903 131.760 136.678  0.00  0.00    +0.000 OA
ATOM     34  O   UNL     1     109.621 132.138 138.808  0.00  0.00    +0.000 OA
ATOM     35  O   UNL     1     110.249 133.582 138.316  0.00  0.00    +0.000 OA
ATOM     36  O   UNL     1     110.647 133.811 136.731  0.00  0.00    +0.000 OA
ATOM     37  C   UNL     1     109.704 131.645 137.470  0.00  0.00    +0.000 C 
ATOM     38  C   UNL     1     109.819 132.253 138.016  0.00  0.00    +0.000 C 
ATOM     39  C   UNL     1     110.134 132.975 137.770  0.00  0.00    +0.000 C 
ATOM     40  C   UNL     1     110.332 133.089 136.977  0.00  0.00    +0.000 C 
ATOM     41  C   UNL     1     110.217 132.482 136.431  0.00  0.00    +0.000 C 
ENDBRANCH  32  37
ENDBRANCH  25  32
ENDBRANCH   1  29
TORSDOF 6
ENDMDL
MODEL 6
REMARK VINA RESULT:      -9.5      1.218      4.266
REMARK  Name = 74977996
REMARK  6 active torsions:
REMARK  status: ('A' for Active; 'I' for Inactive)
REMARK    1  A    between atoms: O_1  and  C_16
REMARK    2  A    between atoms: O_1  and  C_21
REMARK    3  A    between atoms: O_4  and  C_20
REMARK    4  A    between atoms: O_4  and  C_27
REMARK    5  A    between atoms: C_19  and  C_25
REMARK    6  A    between atoms: C_28  and  C_32
REMARK                            x       y       z     vdW  Elec       q    Type
REMARK                         _______ _______ _______ _____ _____    ______ ____
ROOT
ATOM      1  O   UNL     1     112.374 126.988 137.779  0.00  0.00    +0.000 OA
ENDROOT
BRANCH   1   6
ATOM      2  O   UNL     1     111.764 125.648 136.169  0.00  0.00    +0.000 OA
ATOM      3  O   UNL     1     110.865 127.567 137.447  0.00  0.00    +0.000 OA
ATOM      4  O   UNL     1     109.633 127.528 136.696  0.00  0.00    +0.000 OA
ATOM      5  O   UNL     1     109.306 125.509 134.612  0.00  0.00    +0.000 OA
ATOM      6  C   UNL     1     111.919 126.638 137.187  0.00  0.00    +0.000 A 
ATOM      7  C   UNL     1     112.219 125.998 136.761  0.00  0.00    +0.000 A 
ATOM      8  C   UNL     1     111.165 126.927 137.021  0.00  0.00    +0.000 A 
ATOM      9  C   UNL     1     110.710 126.577 136.429  0.00  0.00    +0.000 A 
ATOM     10  C   UNL     1     111.009 125.938 136.002  0.00  0.00    +0.000 A 
ATOM     11  C   UNL     1     109.925 126.888 136.265  0.00  0.00    +0.000 A 
ATOM     12  C   UNL     1     110.545 125.564 135.383  0.00  0.00    +0.000 A 
ATOM     13  C   UNL     1     109.447 126.527 135.649  0.00  0.00    +0.000 A 
ATOM     14  C   UNL     1     109.759 125.861 135.205  0.00  0.00    +0.000 A 
BRANCH   7  16
ATOM     15  O   UNL     1     115.236 124.839 137.425  0.00  0.00    +0.000 OA
ATOM     16  C   UNL     1     112.972 125.709 136.927  0.00  0.00    +0.000 A 
ATOM     17  C   UNL     1     113.079 125.160 137.534  0.00  0.00    +0.000 A 
ATOM     18  C   UNL     1     113.621 125.967 136.486  0.00  0.00    +0.000 A 
ATOM     19  C   UNL     1     113.834 124.870 137.700  0.00  0.00    +0.000 A 
ATOM     20  C   UNL     1     114.374 125.677 136.652  0.00  0.00    +0.000 A 
ATOM     21  C   UNL     1     114.481 125.129 137.259  0.00  0.00    +0.000 A 
ENDBRANCH   7  16
ENDBRANCH   1   6
BRANCH   1  29
ATOM     22  O   UNL     1     112.695 128.174 137.049  0.00  0.00    +0.000 OA
ATOM     23  O   UNL     1     112.598 129.490 139.142  0.00  0.00    +0.000 OA
ATOM     24  O   UNL     1     112.951 130.236 137.715  0.00  0.00    +0.000 OA
ATOM     25  C   UNL     1     112.486 128.239 138.462  0.00  0.00    +0.000 C 
ATOM     26  C   UNL     1     112.630 129.051 138.445  0.00  0.00    +0.000 C 
ATOM     27  C   UNL     1     112.807 129.424 137.731  0.00  0.00    +0.000 C 
ATOM     28  C   UNL     1     112.839 128.985 137.033  0.00  0.00    +0.000 C 
ATOM     29  C   UNL     1     112.518 127.800 137.764  0.00  0.00    +0.000 C 
BRANCH  28  31
ATOM     30  O   UNL     1     113.703 129.156 135.907  0.00  0.00    +0.000 OA
ATOM     31  C   UNL     1     113.016 129.358 136.319  0.00  0.00    +0.000 C 
ENDBRANCH  28  31
BRANCH  25  32
ATOM     32  O   UNL     1     112.309 127.866 139.175  0.00  0.00    +0.000 OA
BRANCH  32  37
ATOM     33  O   UNL     1     113.695 127.871 139.522  0.00  0.00    +0.000 OA
ATOM     34  O   UNL     1     111.962 127.065 140.576  0.00  0.00    +0.000 OA
ATOM     35  O   UNL     1     113.175 126.671 141.623  0.00  0.00    +0.000 OA
ATOM     36  O   UNL     1     114.735 127.077 141.269  0.00  0.00    +0.000 OA
ATOM     37  C   UNL     1     112.915 127.669 139.699  0.00  0.00    +0.000 C 
ATOM     38  C   UNL     1     112.742 127.268 140.400  0.00  0.00    +0.000 C 
ATOM     39  C   UNL     1     113.348 127.071 140.923  0.00  0.00    +0.000 C 
ATOM     40  C   UNL     1     114.128 127.274 140.746  0.00  0.00    +0.000 C 
ATOM     41  C   UNL     1     114.302 127.674 140.046  0.00  0.00    +0.000 C 
ENDBRANCH  32  37
ENDBRANCH  25  32
ENDBRANCH   1  29
TORSDOF 6
ENDMDL
MODEL 7
REMARK VINA RESULT:      -9.5      1.533      4.341
REMARK  Name = 74977996
REMARK  6 active torsions:
REMARK  status: ('A' for Active; 'I' for Inactive)
REMARK    1  A    between atoms: O_1  and  C_16
REMARK    2  A    between atoms: O_1  and  C_21
REMARK    3  A    between atoms: O_4  and  C_20
REMARK    4  A    between atoms: O_4  and  C_27
REMARK    5  A    between atoms: C_19  and  C_25
REMARK    6  A    between atoms: C_28  and  C_32
REMARK                            x       y       z     vdW  Elec       q    Type
REMARK                         _______ _______ _______ _____ _____    ______ ____
ROOT
ATOM      1  O   UNL     1     112.215 127.461 137.918  0.00  0.00    +0.000 OA
ENDROOT
BRANCH   1   6
ATOM      2  O   UNL     1     112.475 125.307 138.153  0.00  0.00    +0.000 OA
ATOM      3  O   UNL     1     111.594 126.915 136.490  0.00  0.00    +0.000 OA
ATOM      4  O   UNL     1     111.254 125.841 135.588  0.00  0.00    +0.000 OA
ATOM      5  O   UNL     1     111.815 123.088 136.385  0.00  0.00    +0.000 OA
ATOM      6  C   UNL     1     112.198 126.652 137.758  0.00  0.00    +0.000 A 
ATOM      7  C   UNL     1     112.491 126.116 138.313  0.00  0.00    +0.000 A 
ATOM      8  C   UNL     1     111.888 126.379 137.044  0.00  0.00    +0.000 A 
ATOM      9  C   UNL     1     111.871 125.570 136.885  0.00  0.00    +0.000 A 
ATOM     10  C   UNL     1     112.164 125.033 137.438  0.00  0.00    +0.000 A 
ATOM     11  C   UNL     1     111.545 125.297 136.137  0.00  0.00    +0.000 A 
ATOM     12  C   UNL     1     112.153 124.188 137.284  0.00  0.00    +0.000 A 
ATOM     13  C   UNL     1     111.525 124.456 135.965  0.00  0.00    +0.000 A 
ATOM     14  C   UNL     1     111.831 123.898 136.542  0.00  0.00    +0.000 A 
BRANCH   7  16
ATOM     15  O   UNL     1     113.733 127.208 141.169  0.00  0.00    +0.000 OA
ATOM     16  C   UNL     1     112.801 126.389 139.026  0.00  0.00    +0.000 A 
ATOM     17  C   UNL     1     113.588 126.633 139.067  0.00  0.00    +0.000 A 
ATOM     18  C   UNL     1     112.325 126.418 139.700  0.00  0.00    +0.000 A 
ATOM     19  C   UNL     1     113.899 126.906 139.782  0.00  0.00    +0.000 A 
ATOM     20  C   UNL     1     112.635 126.690 140.413  0.00  0.00    +0.000 A 
ATOM     21  C   UNL     1     113.422 126.935 140.454  0.00  0.00    +0.000 A 
ENDBRANCH   7  16
ENDBRANCH   1   6
BRANCH   1  29
ATOM     22  O   UNL     1     110.815 127.579 138.180  0.00  0.00    +0.000 OA
ATOM     23  O   UNL     1     110.831 129.868 137.239  0.00  0.00    +0.000 OA
ATOM     24  O   UNL     1     109.427 129.222 137.815  0.00  0.00    +0.000 OA
ATOM     25  C   UNL     1     111.523 128.665 137.578  0.00  0.00    +0.000 C 
ATOM     26  C   UNL     1     110.826 129.105 137.553  0.00  0.00    +0.000 C 
ATOM     27  C   UNL     1     110.124 128.782 137.840  0.00  0.00    +0.000 C 
ATOM     28  C   UNL     1     110.118 128.019 138.154  0.00  0.00    +0.000 C 
ATOM     29  C   UNL     1     111.518 127.902 137.892  0.00  0.00    +0.000 C 
BRANCH  28  31
ATOM     30  O   UNL     1     109.356 127.483 139.237  0.00  0.00    +0.000 OA
ATOM     31  C   UNL     1     109.416 127.696 138.442  0.00  0.00    +0.000 C 
ENDBRANCH  28  31
BRANCH  25  32
ATOM     32  O   UNL     1     112.225 128.987 137.291  0.00  0.00    +0.000 OA
BRANCH  32  37
ATOM     33  O   UNL     1     112.386 129.722 138.506  0.00  0.00    +0.000 OA
ATOM     34  O   UNL     1     113.647 129.608 136.728  0.00  0.00    +0.000 OA
ATOM     35  O   UNL     1     114.518 130.653 137.662  0.00  0.00    +0.000 OA
ATOM     36  O   UNL     1     113.967 131.078 139.159  0.00  0.00    +0.000 OA
ATOM     37  C   UNL     1     112.661 129.510 137.758  0.00  0.00    +0.000 C 
ATOM     38  C   UNL     1     113.372 129.821 137.477  0.00  0.00    +0.000 C 
ATOM     39  C   UNL     1     113.808 130.343 137.944  0.00  0.00    +0.000 C 
ATOM     40  C   UNL     1     113.531 130.555 138.692  0.00  0.00    +0.000 C 
ATOM     41  C   UNL     1     112.821 130.245 138.973  0.00  0.00    +0.000 C 
ENDBRANCH  32  37
ENDBRANCH  25  32
ENDBRANCH   1  29
TORSDOF 6
ENDMDL
MODEL 8
REMARK VINA RESULT:      -9.4      1.586      4.649
REMARK  Name = 74977996
REMARK  6 active torsions:
REMARK  status: ('A' for Active; 'I' for Inactive)
REMARK    1  A    between atoms: O_1  and  C_16
REMARK    2  A    between atoms: O_1  and  C_21
REMARK    3  A    between atoms: O_4  and  C_20
REMARK    4  A    between atoms: O_4  and  C_27
REMARK    5  A    between atoms: C_19  and  C_25
REMARK    6  A    between atoms: C_28  and  C_32
REMARK                            x       y       z     vdW  Elec       q    Type
REMARK                         _______ _______ _______ _____ _____    ______ ____
ROOT
ATOM      1  O   UNL     1     112.487 127.735 137.874  0.00  0.00    +0.000 OA
ENDROOT
BRANCH   1   6
ATOM      2  O   UNL     1     112.556 126.297 136.233  0.00  0.00    +0.000 OA
ATOM      3  O   UNL     1     111.834 126.404 138.598  0.00  0.00    +0.000 OA
ATOM      4  O   UNL     1     111.409 125.026 138.560  0.00  0.00    +0.000 OA
ATOM      5  O   UNL     1     111.721 123.511 136.083  0.00  0.00    +0.000 OA
ATOM      6  C   UNL     1     112.401 127.034 137.448  0.00  0.00    +0.000 A 
ATOM      7  C   UNL     1     112.642 126.998 136.659  0.00  0.00    +0.000 A 
ATOM      8  C   UNL     1     112.075 126.369 137.809  0.00  0.00    +0.000 A 
ATOM      9  C   UNL     1     111.989 125.668 137.383  0.00  0.00    +0.000 A 
ATOM     10  C   UNL     1     112.229 125.631 136.595  0.00  0.00    +0.000 A 
ATOM     11  C   UNL     1     111.647 124.981 137.771  0.00  0.00    +0.000 A 
ATOM     12  C   UNL     1     112.145 124.907 136.140  0.00  0.00    +0.000 A 
ATOM     13  C   UNL     1     111.555 124.248 137.333  0.00  0.00    +0.000 A 
ATOM     14  C   UNL     1     111.806 124.211 136.512  0.00  0.00    +0.000 A 
BRANCH   7  16
ATOM     15  O   UNL     1     113.950 129.659 135.210  0.00  0.00    +0.000 OA
ATOM     16  C   UNL     1     112.969 127.663 136.297  0.00  0.00    +0.000 A 
ATOM     17  C   UNL     1     113.767 127.842 136.407  0.00  0.00    +0.000 A 
ATOM     18  C   UNL     1     112.499 128.150 135.825  0.00  0.00    +0.000 A 
ATOM     19  C   UNL     1     114.094 128.508 136.044  0.00  0.00    +0.000 A 
ATOM     20  C   UNL     1     112.825 128.815 135.463  0.00  0.00    +0.000 A 
ATOM     21  C   UNL     1     113.623 128.994 135.573  0.00  0.00    +0.000 A 
ENDBRANCH   7  16
ENDBRANCH   1   6
BRANCH   1  29
ATOM     22  O   UNL     1     111.108 128.108 137.837  0.00  0.00    +0.000 OA
ATOM     23  O   UNL     1     111.309 129.070 140.109  0.00  0.00    +0.000 OA
ATOM     24  O   UNL     1     109.864 129.122 139.315  0.00  0.00    +0.000 OA
ATOM     25  C   UNL     1     111.899 128.402 138.992  0.00  0.00    +0.000 C 
ATOM     26  C   UNL     1     111.242 128.749 139.352  0.00  0.00    +0.000 C 
ATOM     27  C   UNL     1     110.520 128.775 138.955  0.00  0.00    +0.000 C 
ATOM     28  C   UNL     1     110.453 128.455 138.198  0.00  0.00    +0.000 C 
ATOM     29  C   UNL     1     111.832 128.082 138.235  0.00  0.00    +0.000 C 
BRANCH  28  31
ATOM     30  O   UNL     1     109.661 128.911 137.100  0.00  0.00    +0.000 OA
ATOM     31  C   UNL     1     109.730 128.481 137.801  0.00  0.00    +0.000 C 
ENDBRANCH  28  31
BRANCH  25  32
ATOM     32  O   UNL     1     112.621 128.376 139.388  0.00  0.00    +0.000 OA
BRANCH  32  37
ATOM     33  O   UNL     1     112.892 129.726 139.004  0.00  0.00    +0.000 OA
ATOM     34  O   UNL     1     113.941 128.394 140.378  0.00  0.00    +0.000 OA
ATOM     35  O   UNL     1     114.871 129.752 140.489  0.00  0.00    +0.000 OA
ATOM     36  O   UNL     1     114.481 131.093 139.609  0.00  0.00    +0.000 OA
ATOM     37  C   UNL     1     113.086 129.055 139.443  0.00  0.00    +0.000 C 
ATOM     38  C   UNL     1     113.746 129.064 139.939  0.00  0.00    +0.000 C 
ATOM     39  C   UNL     1     114.211 129.744 139.994  0.00  0.00    +0.000 C 
ATOM     40  C   UNL     1     114.016 130.414 139.554  0.00  0.00    +0.000 C 
ATOM     41  C   UNL     1     113.357 130.405 139.059  0.00  0.00    +0.000 C 
ENDBRANCH  32  37
ENDBRANCH  25  32
ENDBRANCH   1  29
TORSDOF 6
ENDMDL
MODEL 9
REMARK VINA RESULT:      -9.4      2.360      4.449
REMARK  Name = 74977996
REMARK  6 active torsions:
REMARK  status: ('A' for Active; 'I' for Inactive)
REMARK    1  A    between atoms: O_1  and  C_16
REMARK    2  A    between atoms: O_1  and  C_21
REMARK    3  A    between atoms: O_4  and  C_20
REMARK    4  A    between atoms: O_4  and  C_27
REMARK    5  A    between atoms: C_19  and  C_25
REMARK    6  A    between atoms: C_28  and  C_32
REMARK                            x       y       z     vdW  Elec       q    Type
REMARK                         _______ _______ _______ _____ _____    ______ ____
ROOT
ATOM      1  O   UNL     1     111.161 129.131 136.927  0.00  0.00    +0.000 OA
ENDROOT
BRANCH   1   6
ATOM      2  O   UNL     1     110.531 127.452 135.683  0.00  0.00    +0.000 OA
ATOM      3  O   UNL     1     112.016 127.897 137.613  0.00  0.00    +0.000 OA
ATOM      4  O   UNL     1     112.396 126.507 137.678  0.00  0.00    +0.000 OA
ATOM      5  O   UNL     1     111.252 124.631 135.754  0.00  0.00    +0.000 OA
ATOM      6  C   UNL     1     111.093 128.365 136.627  0.00  0.00    +0.000 A 
ATOM      7  C   UNL     1     110.598 128.218 135.983  0.00  0.00    +0.000 A 
ATOM      8  C   UNL     1     111.520 127.749 136.969  0.00  0.00    +0.000 A 
ATOM      9  C   UNL     1     111.453 126.984 136.669  0.00  0.00    +0.000 A 
ATOM     10  C   UNL     1     110.958 126.835 136.026  0.00  0.00    +0.000 A 
ATOM     11  C   UNL     1     111.903 126.349 137.035  0.00  0.00    +0.000 A 
ATOM     12  C   UNL     1     110.879 126.042 135.704  0.00  0.00    +0.000 A 
ATOM     13  C   UNL     1     111.837 125.550 136.726  0.00  0.00    +0.000 A 
ATOM     14  C   UNL     1     111.321 125.396 136.057  0.00  0.00    +0.000 A 
BRANCH   7  16
ATOM     15  O   UNL     1     108.888 130.685 134.612  0.00  0.00    +0.000 OA
ATOM     16  C   UNL     1     110.171 128.834 135.641  0.00  0.00    +0.000 A 
ATOM     17  C   UNL     1     109.455 129.074 135.973  0.00  0.00    +0.000 A 
ATOM     18  C   UNL     1     110.459 129.211 134.966  0.00  0.00    +0.000 A 
ATOM     19  C   UNL     1     109.027 129.691 135.630  0.00  0.00    +0.000 A 
ATOM     20  C   UNL     1     110.032 129.827 134.623  0.00  0.00    +0.000 A 
ATOM     21  C   UNL     1     109.316 130.067 134.955  0.00  0.00    +0.000 A 
ENDBRANCH   7  16
ENDBRANCH   1   6
BRANCH   1  29
ATOM     22  O   UNL     1     112.472 129.358 136.405  0.00  0.00    +0.000 OA
ATOM     23  O   UNL     1     112.993 130.806 138.343  0.00  0.00    +0.000 OA
ATOM     24  O   UNL     1     114.129 130.550 137.176  0.00  0.00    +0.000 OA
ATOM     25  C   UNL     1     112.077 129.969 137.636  0.00  0.00    +0.000 C 
ATOM     26  C   UNL     1     112.819 130.323 137.697  0.00  0.00    +0.000 C 
ATOM     27  C   UNL     1     113.387 130.196 137.114  0.00  0.00    +0.000 C 
ATOM     28  C   UNL     1     113.214 129.713 136.468  0.00  0.00    +0.000 C 
ATOM     29  C   UNL     1     111.903 129.486 136.990  0.00  0.00    +0.000 C 
BRANCH  28  31
ATOM     30  O   UNL     1     113.630 129.812 135.104  0.00  0.00    +0.000 OA
ATOM     31  C   UNL     1     113.782 129.585 135.884  0.00  0.00    +0.000 C 
ENDBRANCH  28  31
BRANCH  25  32
ATOM     32  O   UNL     1     111.508 130.096 138.219  0.00  0.00    +0.000 OA
BRANCH  32  37
ATOM     33  O   UNL     1     111.224 131.381 137.661  0.00  0.00    +0.000 OA
ATOM     34  O   UNL     1     110.373 130.353 139.388  0.00  0.00    +0.000 OA
ATOM     35  O   UNL     1     109.521 131.766 139.414  0.00  0.00    +0.000 OA
ATOM     36  O   UNL     1     109.804 132.922 138.271  0.00  0.00    +0.000 OA
ATOM     37  C   UNL     1     111.082 130.803 138.232  0.00  0.00    +0.000 C 
ATOM     38  C   UNL     1     110.514 130.931 138.817  0.00  0.00    +0.000 C 
ATOM     39  C   UNL     1     110.088 131.638 138.830  0.00  0.00    +0.000 C 
ATOM     40  C   UNL     1     110.230 132.215 138.258  0.00  0.00    +0.000 C 
ATOM     41  C   UNL     1     110.797 132.087 137.674  0.00  0.00    +0.000 C 
ENDBRANCH  32  37
ENDBRANCH  25  32
ENDBRANCH   1  29
TORSDOF 6
ENDMDL
MODEL 10
REMARK VINA RESULT:      -9.4      1.552      4.008
REMARK  Name = 74977996
REMARK  6 active torsions:
REMARK  status: ('A' for Active; 'I' for Inactive)
REMARK    1  A    between atoms: O_1  and  C_16
REMARK    2  A    between atoms: O_1  and  C_21
REMARK    3  A    between atoms: O_4  and  C_20
REMARK    4  A    between atoms: O_4  and  C_27
REMARK    5  A    between atoms: C_19  and  C_25
REMARK    6  A    between atoms: C_28  and  C_32
REMARK                            x       y       z     vdW  Elec       q    Type
REMARK                         _______ _______ _______ _____ _____    ______ ____
ROOT
ATOM      1  O   UNL     1     111.558 127.185 137.142  0.00  0.00    +0.000 OA
ENDROOT
BRANCH   1   6
ATOM      2  O   UNL     1     111.488 128.979 138.382  0.00  0.00    +0.000 OA
ATOM      3  O   UNL     1     111.727 128.361 135.997  0.00  0.00    +0.000 OA
ATOM      4  O   UNL     1     111.819 129.749 135.616  0.00  0.00    +0.000 OA
ATOM      5  O   UNL     1     111.668 131.802 137.687  0.00  0.00    +0.000 OA
ATOM      6  C   UNL     1     111.563 127.979 137.364  0.00  0.00    +0.000 A 
ATOM      7  C   UNL     1     111.484 128.185 138.159  0.00  0.00    +0.000 A 
ATOM      8  C   UNL     1     111.647 128.566 136.792  0.00  0.00    +0.000 A 
ATOM      9  C   UNL     1     111.652 129.361 137.014  0.00  0.00    +0.000 A 
ATOM     10  C   UNL     1     111.573 129.568 137.809  0.00  0.00    +0.000 A 
ATOM     11  C   UNL     1     111.741 129.965 136.409  0.00  0.00    +0.000 A 
ATOM     12  C   UNL     1     111.576 130.391 138.054  0.00  0.00    +0.000 A 
ATOM     13  C   UNL     1     111.746 130.794 136.635  0.00  0.00    +0.000 A 
ATOM     14  C   UNL     1     111.663 131.008 137.462  0.00  0.00    +0.000 A 
BRANCH   7  16
ATOM     15  O   UNL     1     111.148 125.833 140.450  0.00  0.00    +0.000 OA
ATOM     16  C   UNL     1     111.400 127.597 138.732  0.00  0.00    +0.000 A 
ATOM     17  C   UNL     1     112.066 127.212 139.028  0.00  0.00    +0.000 A 
ATOM     18  C   UNL     1     110.649 127.394 139.008  0.00  0.00    +0.000 A 
ATOM     19  C   UNL     1     111.982 126.623 139.601  0.00  0.00    +0.000 A 
ATOM     20  C   UNL     1     110.565 126.807 139.581  0.00  0.00    +0.000 A 
ATOM     21  C   UNL     1     111.231 126.421 139.877  0.00  0.00    +0.000 A 
ENDBRANCH   7  16
ENDBRANCH   1   6
BRANCH   1  29
ATOM     22  O   UNL     1     110.249 127.219 136.570  0.00  0.00    +0.000 OA
ATOM     23  O   UNL     1     110.928 125.508 134.915  0.00  0.00    +0.000 OA
ATOM     24  O   UNL     1     109.394 126.113 134.895  0.00  0.00    +0.000 OA
ATOM     25  C   UNL     1     111.244 126.346 136.028  0.00  0.00    +0.000 C 
ATOM     26  C   UNL     1     110.702 126.078 135.467  0.00  0.00    +0.000 C 
ATOM     27  C   UNL     1     109.935 126.380 135.456  0.00  0.00    +0.000 C 
ATOM     28  C   UNL     1     109.709 126.950 136.008  0.00  0.00    +0.000 C 
ATOM     29  C   UNL     1     111.018 126.916 136.580  0.00  0.00    +0.000 C 
BRANCH  28  31
ATOM     30  O   UNL     1     108.452 127.155 136.656  0.00  0.00    +0.000 OA
ATOM     31  C   UNL     1     108.941 127.253 135.998  0.00  0.00    +0.000 C 
ENDBRANCH  28  31
BRANCH  25  32
ATOM     32  O   UNL     1     112.011 126.044 136.039  0.00  0.00    +0.000 OA
BRANCH  32  37
ATOM     33  O   UNL     1     111.529 124.833 136.625  0.00  0.00    +0.000 OA
ATOM     34  O   UNL     1     113.560 125.494 136.176  0.00  0.00    +0.000 OA
ATOM     35  O   UNL     1     113.853 124.008 136.831  0.00  0.00    +0.000 OA
ATOM     36  O   UNL     1     112.596 123.072 137.348  0.00  0.00    +0.000 OA
ATOM     37  C   UNL     1     112.157 125.301 136.366  0.00  0.00    +0.000 C 
ATOM     38  C   UNL     1     112.933 125.026 136.435  0.00  0.00    +0.000 C 
ATOM     39  C   UNL     1     113.079 124.283 136.762  0.00  0.00    +0.000 C 
ATOM     40  C   UNL     1     112.450 123.815 137.020  0.00  0.00    +0.000 C 
ATOM     41  C   UNL     1     111.676 124.090 136.952  0.00  0.00    +0.000 C 
ENDBRANCH  32  37
ENDBRANCH  25  32
ENDBRANCH   1  29
TORSDOF 6
ENDMDL
