MODEL 1
REMARK VINA RESULT:     -10.8      0.000      0.000
REMARK  Name = 44257759
REMARK  10 active torsions:
REMARK  status: ('A' for Active; 'I' for Inactive)
REMARK    1  A    between atoms: O_2  and  C_19
REMARK    2  A    between atoms: O_2  and  C_36
REMARK    3  A    between atoms: O_4  and  C_26
REMARK    4  A    between atoms: O_4  and  C_30
REMARK    5  A    between atoms: C_18  and  C_23
REMARK    6  A    between atoms: C_22  and  C_29
REMARK    7  A    between atoms: C_28  and  C_33
REMARK    8  A    between atoms: C_36  and  C_40
REMARK    9  A    between atoms: C_38  and  C_41
REMARK   10  A    between atoms: C_42  and  C_45
REMARK                            x       y       z     vdW  Elec       q    Type
REMARK                         _______ _______ _______ _____ _____    ______ ____
ROOT
ATOM      1  O   UNL     1     111.971 128.709 138.660  0.00  0.00    +0.000 OA
ATOM      2  O   UNL     1     109.159 129.391 138.708  0.00  0.00    +0.000 OA
ATOM      3  O   UNL     1     109.752 128.792 139.879  0.00  0.00    +0.000 OA
ATOM      4  C   UNL     1     111.324 129.315 137.510  0.00  0.00    +0.000 A 
ATOM      5  C   UNL     1     110.656 129.625 137.138  0.00  0.00    +0.000 A 
ATOM      6  C   UNL     1     111.269 129.030 138.283  0.00  0.00    +0.000 A 
ATOM      7  C   UNL     1     110.547 129.055 138.683  0.00  0.00    +0.000 A 
ATOM      8  C   UNL     1     109.935 129.650 137.537  0.00  0.00    +0.000 A 
ATOM      9  C   UNL     1     109.880 129.366 138.309  0.00  0.00    +0.000 A 
ATOM     10  C   UNL     1     110.478 128.762 139.487  0.00  0.00    +0.000 A 
ATOM     11  C   UNL     1     111.921 128.411 139.465  0.00  0.00    +0.000 A 
ATOM     12  C   UNL     1     111.169 128.438 139.881  0.00  0.00    +0.000 A 
ENDROOT
BRANCH   4  16
ATOM     13  O   UNL     1     112.584 129.908 137.194  0.00  0.00    +0.000 OA
ATOM     14  O   UNL     1     113.255 128.045 135.724  0.00  0.00    +0.000 OA
ATOM     15  O   UNL     1     114.210 129.212 135.914  0.00  0.00    +0.000 OA
ATOM     16  C   UNL     1     112.045 129.289 137.111  0.00  0.00    +0.000 C 
ATOM     17  C   UNL     1     112.227 128.645 136.629  0.00  0.00    +0.000 C 
ATOM     18  C   UNL     1     112.948 128.620 136.230  0.00  0.00    +0.000 C 
ATOM     19  C   UNL     1     113.488 129.238 136.313  0.00  0.00    +0.000 C 
ATOM     20  C   UNL     1     113.306 129.883 136.795  0.00  0.00    +0.000 C 
BRANCH  20  22
ATOM     21  O   UNL     1     113.592 131.237 137.151  0.00  0.00    +0.000 OA
ATOM     22  C   UNL     1     113.845 130.501 136.878  0.00  0.00    +0.000 C 
ENDBRANCH  20  22
BRANCH  17  23
ATOM     23  O   UNL     1     111.688 128.026 136.546  0.00  0.00    +0.000 OA
BRANCH  23  25
ATOM     24  O   UNL     1     111.949 127.420 135.279  0.00  0.00    +0.000 OA
ATOM     25  C   UNL     1     111.887 127.362 136.100  0.00  0.00    +0.000 C 
BRANCH  25  26
ATOM     26  C   UNL     1     112.048 126.590 136.341  0.00  0.00    +0.000 C 
ATOM     27  C   UNL     1     111.448 126.023 136.339  0.00  0.00    +0.000 C 
BRANCH  27  29
ATOM     28  O   UNL     1     112.092 122.934 137.304  0.00  0.00    +0.000 OA
ATOM     29  C   UNL     1     111.609 125.251 136.580  0.00  0.00    +0.000 A 
ATOM     30  C   UNL     1     111.509 125.036 137.371  0.00  0.00    +0.000 A 
ATOM     31  C   UNL     1     111.870 124.693 136.032  0.00  0.00    +0.000 A 
ATOM     32  C   UNL     1     111.670 124.264 137.612  0.00  0.00    +0.000 A 
ATOM     33  C   UNL     1     112.031 123.921 136.273  0.00  0.00    +0.000 A 
ATOM     34  C   UNL     1     111.931 123.707 137.063  0.00  0.00    +0.000 A 
ENDBRANCH  27  29
ENDBRANCH  25  26
ENDBRANCH  23  25
ENDBRANCH  17  23
ENDBRANCH   4  16
BRANCH  11  36
ATOM     35  O   UNL     1     114.596 127.171 140.948  0.00  0.00    +0.000 OA
ATOM     36  C   UNL     1     112.590 128.101 139.836  0.00  0.00    +0.000 A 
ATOM     37  C   UNL     1     113.110 128.603 140.236  0.00  0.00    +0.000 A 
ATOM     38  C   UNL     1     112.739 127.291 139.807  0.00  0.00    +0.000 A 
ATOM     39  C   UNL     1     113.778 128.293 140.607  0.00  0.00    +0.000 A 
ATOM     40  C   UNL     1     113.407 126.981 140.178  0.00  0.00    +0.000 A 
ATOM     41  C   UNL     1     113.927 127.482 140.577  0.00  0.00    +0.000 A 
ENDBRANCH  11  36
BRANCH   5  42
ATOM     42  O   UNL     1     110.711 129.910 136.365  0.00  0.00    +0.000 OA
BRANCH  42  49
ATOM     43  O   UNL     1     110.324 131.276 136.524  0.00  0.00    +0.000 OA
ATOM     44  O   UNL     1     109.651 129.757 135.109  0.00  0.00    +0.000 OA
ATOM     45  O   UNL     1     108.735 131.047 134.640  0.00  0.00    +0.000 OA
ATOM     46  O   UNL     1     108.879 132.489 135.428  0.00  0.00    +0.000 OA
ATOM     47  C   UNL     1     109.723 130.478 135.502  0.00  0.00    +0.000 C 
ATOM     48  C   UNL     1     109.265 131.123 135.268  0.00  0.00    +0.000 C 
ATOM     49  C   UNL     1     110.252 130.554 136.130  0.00  0.00    +0.000 C 
ATOM     50  C   UNL     1     109.336 131.844 135.662  0.00  0.00    +0.000 C 
ATOM     51  C   UNL     1     109.866 131.921 136.289  0.00  0.00    +0.000 C 
BRANCH  51  53
ATOM     52  O   UNL     1     110.687 132.956 136.835  0.00  0.00    +0.000 OA
ATOM     53  C   UNL     1     109.938 132.642 136.683  0.00  0.00    +0.000 C 
ENDBRANCH  51  53
ENDBRANCH  42  49
ENDBRANCH   5  42
TORSDOF 10
ENDMDL
MODEL 2
REMARK VINA RESULT:     -10.4      1.253      2.681
REMARK  Name = 44257759
REMARK  10 active torsions:
REMARK  status: ('A' for Active; 'I' for Inactive)
REMARK    1  A    between atoms: O_2  and  C_19
REMARK    2  A    between atoms: O_2  and  C_36
REMARK    3  A    between atoms: O_4  and  C_26
REMARK    4  A    between atoms: O_4  and  C_30
REMARK    5  A    between atoms: C_18  and  C_23
REMARK    6  A    between atoms: C_22  and  C_29
REMARK    7  A    between atoms: C_28  and  C_33
REMARK    8  A    between atoms: C_36  and  C_40
REMARK    9  A    between atoms: C_38  and  C_41
REMARK   10  A    between atoms: C_42  and  C_45
REMARK                            x       y       z     vdW  Elec       q    Type
REMARK                         _______ _______ _______ _____ _____    ______ ____
ROOT
ATOM      1  O   UNL     1     111.961 128.590 138.678  0.00  0.00    +0.000 OA
ATOM      2  O   UNL     1     112.087 130.296 136.342  0.00  0.00    +0.000 OA
ATOM      3  O   UNL     1     113.315 129.921 137.001  0.00  0.00    +0.000 OA
ATOM      4  C   UNL     1     110.756 128.998 137.977  0.00  0.00    +0.000 A 
ATOM      5  C   UNL     1     110.378 129.408 137.369  0.00  0.00    +0.000 A 
ATOM      6  C   UNL     1     111.579 129.021 138.040  0.00  0.00    +0.000 A 
ATOM      7  C   UNL     1     112.023 129.454 137.495  0.00  0.00    +0.000 A 
ATOM      8  C   UNL     1     110.822 129.841 136.824  0.00  0.00    +0.000 A 
ATOM      9  C   UNL     1     111.643 129.863 136.887  0.00  0.00    +0.000 A 
ATOM     10  C   UNL     1     112.879 129.486 137.550  0.00  0.00    +0.000 A 
ATOM     11  C   UNL     1     112.818 128.610 138.749  0.00  0.00    +0.000 A 
ATOM     12  C   UNL     1     113.280 129.061 138.181  0.00  0.00    +0.000 A 
ENDROOT
BRANCH   4  16
ATOM     13  O   UNL     1     110.116 128.900 139.250  0.00  0.00    +0.000 OA
ATOM     14  O   UNL     1     109.317 126.604 138.830  0.00  0.00    +0.000 OA
ATOM     15  O   UNL     1     108.982 127.268 140.156  0.00  0.00    +0.000 OA
ATOM     16  C   UNL     1     110.313 128.566 138.522  0.00  0.00    +0.000 C 
ATOM     17  C   UNL     1     110.067 127.801 138.338  0.00  0.00    +0.000 C 
ATOM     18  C   UNL     1     109.624 127.368 138.883  0.00  0.00    +0.000 C 
ATOM     19  C   UNL     1     109.426 127.701 139.611  0.00  0.00    +0.000 C 
ATOM     20  C   UNL     1     109.672 128.467 139.795  0.00  0.00    +0.000 C 
BRANCH  20  22
ATOM     21  O   UNL     1     109.418 129.619 140.602  0.00  0.00    +0.000 OA
ATOM     22  C   UNL     1     109.474 128.800 140.524  0.00  0.00    +0.000 C 
ENDBRANCH  20  22
BRANCH  17  23
ATOM     23  O   UNL     1     110.264 127.467 137.610  0.00  0.00    +0.000 OA
BRANCH  23  25
ATOM     24  O   UNL     1     109.479 126.301 137.354  0.00  0.00    +0.000 OA
ATOM     25  C   UNL     1     110.211 126.651 137.501  0.00  0.00    +0.000 C 
BRANCH  25  26
ATOM     26  C   UNL     1     110.802 126.075 137.514  0.00  0.00    +0.000 C 
ATOM     27  C   UNL     1     111.096 125.771 136.805  0.00  0.00    +0.000 C 
BRANCH  27  29
ATOM     28  O   UNL     1     113.460 123.468 136.856  0.00  0.00    +0.000 OA
ATOM     29  C   UNL     1     111.687 125.195 136.818  0.00  0.00    +0.000 A 
ATOM     30  C   UNL     1     111.518 124.436 137.095  0.00  0.00    +0.000 A 
ATOM     31  C   UNL     1     112.447 125.377 136.555  0.00  0.00    +0.000 A 
ATOM     32  C   UNL     1     112.108 123.860 137.108  0.00  0.00    +0.000 A 
ATOM     33  C   UNL     1     113.037 124.802 136.568  0.00  0.00    +0.000 A 
ATOM     34  C   UNL     1     112.868 124.043 136.844  0.00  0.00    +0.000 A 
ENDBRANCH  27  29
ENDBRANCH  25  26
ENDBRANCH  23  25
ENDBRANCH  17  23
ENDBRANCH   4  16
BRANCH  11  36
ATOM     35  O   UNL     1     114.322 126.970 141.184  0.00  0.00    +0.000 OA
ATOM     36  C   UNL     1     113.194 128.200 139.357  0.00  0.00    +0.000 A 
ATOM     37  C   UNL     1     113.411 127.411 139.251  0.00  0.00    +0.000 A 
ATOM     38  C   UNL     1     113.353 128.578 140.073  0.00  0.00    +0.000 A 
ATOM     39  C   UNL     1     113.787 127.001 139.859  0.00  0.00    +0.000 A 
ATOM     40  C   UNL     1     113.729 128.169 140.682  0.00  0.00    +0.000 A 
ATOM     41  C   UNL     1     113.946 127.380 140.575  0.00  0.00    +0.000 A 
ENDBRANCH  11  36
BRANCH   5  42
ATOM     42  O   UNL     1     109.555 129.385 137.306  0.00  0.00    +0.000 OA
BRANCH  42  49
ATOM     43  O   UNL     1     109.204 130.762 137.456  0.00  0.00    +0.000 OA
ATOM     44  O   UNL     1     108.611 129.291 135.956  0.00  0.00    +0.000 OA
ATOM     45  O   UNL     1     107.788 130.621 135.431  0.00  0.00    +0.000 OA
ATOM     46  O   UNL     1     107.909 132.044 136.256  0.00  0.00    +0.000 OA
ATOM     47  C   UNL     1     108.672 130.003 136.368  0.00  0.00    +0.000 C 
ATOM     48  C   UNL     1     108.260 130.668 136.106  0.00  0.00    +0.000 C 
ATOM     49  C   UNL     1     109.143 130.049 137.043  0.00  0.00    +0.000 C 
ATOM     50  C   UNL     1     108.321 131.380 136.518  0.00  0.00    +0.000 C 
ATOM     51  C   UNL     1     108.792 131.427 137.193  0.00  0.00    +0.000 C 
BRANCH  51  53
ATOM     52  O   UNL     1     108.800 132.142 138.430  0.00  0.00    +0.000 OA
ATOM     53  C   UNL     1     108.853 132.138 137.606  0.00  0.00    +0.000 C 
ENDBRANCH  51  53
ENDBRANCH  42  49
ENDBRANCH   5  42
TORSDOF 10
ENDMDL
MODEL 3
REMARK VINA RESULT:     -10.3      1.974      4.336
REMARK  Name = 44257759
REMARK  10 active torsions:
REMARK  status: ('A' for Active; 'I' for Inactive)
REMARK    1  A    between atoms: O_2  and  C_19
REMARK    2  A    between atoms: O_2  and  C_36
REMARK    3  A    between atoms: O_4  and  C_26
REMARK    4  A    between atoms: O_4  and  C_30
REMARK    5  A    between atoms: C_18  and  C_23
REMARK    6  A    between atoms: C_22  and  C_29
REMARK    7  A    between atoms: C_28  and  C_33
REMARK    8  A    between atoms: C_36  and  C_40
REMARK    9  A    between atoms: C_38  and  C_41
REMARK   10  A    between atoms: C_42  and  C_45
REMARK                            x       y       z     vdW  Elec       q    Type
REMARK                         _______ _______ _______ _____ _____    ______ ____
ROOT
ATOM      1  O   UNL     1     112.300 129.499 138.279  0.00  0.00    +0.000 OA
ATOM      2  O   UNL     1     109.453 128.977 138.258  0.00  0.00    +0.000 OA
ATOM      3  O   UNL     1     110.083 129.464 137.055  0.00  0.00    +0.000 OA
ATOM      4  C   UNL     1     111.615 129.008 139.462  0.00  0.00    +0.000 A 
ATOM      5  C   UNL     1     110.931 128.762 139.850  0.00  0.00    +0.000 A 
ATOM      6  C   UNL     1     111.579 129.245 138.671  0.00  0.00    +0.000 A 
ATOM      7  C   UNL     1     110.858 129.234 138.270  0.00  0.00    +0.000 A 
ATOM      8  C   UNL     1     110.210 128.751 139.449  0.00  0.00    +0.000 A 
ATOM      9  C   UNL     1     110.174 128.987 138.660  0.00  0.00    +0.000 A 
ATOM     10  C   UNL     1     110.807 129.477 137.448  0.00  0.00    +0.000 A 
ATOM     11  C   UNL     1     112.269 129.747 137.456  0.00  0.00    +0.000 A 
ATOM     12  C   UNL     1     111.517 129.736 137.038  0.00  0.00    +0.000 A 
ENDROOT
BRANCH   4  16
ATOM     13  O   UNL     1     112.593 129.711 140.232  0.00  0.00    +0.000 OA
ATOM     14  O   UNL     1     114.076 127.748 140.406  0.00  0.00    +0.000 OA
ATOM     15  O   UNL     1     114.499 129.050 141.066  0.00  0.00    +0.000 OA
ATOM     16  C   UNL     1     112.336 129.019 139.863  0.00  0.00    +0.000 C 
ATOM     17  C   UNL     1     112.800 128.338 139.895  0.00  0.00    +0.000 C 
ATOM     18  C   UNL     1     113.521 128.348 140.296  0.00  0.00    +0.000 C 
ATOM     19  C   UNL     1     113.778 129.040 140.665  0.00  0.00    +0.000 C 
ATOM     20  C   UNL     1     113.313 129.721 140.633  0.00  0.00    +0.000 C 
BRANCH  20  22
ATOM     21  O   UNL     1     113.026 130.996 141.212  0.00  0.00    +0.000 OA
ATOM     22  C   UNL     1     113.571 130.413 141.002  0.00  0.00    +0.000 C 
ENDBRANCH  20  22
BRANCH  17  23
ATOM     23  O   UNL     1     112.543 127.645 139.526  0.00  0.00    +0.000 OA
BRANCH  23  25
ATOM     24  O   UNL     1     113.136 126.497 140.136  0.00  0.00    +0.000 OA
ATOM     25  C   UNL     1     113.044 126.992 139.482  0.00  0.00    +0.000 C 
BRANCH  25  26
ATOM     26  C   UNL     1     113.505 126.719 138.855  0.00  0.00    +0.000 C 
ATOM     27  C   UNL     1     113.248 126.079 138.401  0.00  0.00    +0.000 C 
BRANCH  27  29
ATOM     28  O   UNL     1     115.093 124.988 135.892  0.00  0.00    +0.000 OA
ATOM     29  C   UNL     1     113.709 125.807 137.774  0.00  0.00    +0.000 A 
ATOM     30  C   UNL     1     113.567 126.080 137.008  0.00  0.00    +0.000 A 
ATOM     31  C   UNL     1     114.312 125.261 137.911  0.00  0.00    +0.000 A 
ATOM     32  C   UNL     1     114.028 125.807 136.381  0.00  0.00    +0.000 A 
ATOM     33  C   UNL     1     114.773 124.989 137.284  0.00  0.00    +0.000 A 
ATOM     34  C   UNL     1     114.631 125.262 136.519  0.00  0.00    +0.000 A 
ENDBRANCH  27  29
ENDBRANCH  25  26
ENDBRANCH  23  25
ENDBRANCH  17  23
ENDBRANCH   4  16
BRANCH  11  36
ATOM     35  O   UNL     1     115.014 130.730 135.911  0.00  0.00    +0.000 OA
ATOM     36  C   UNL     1     112.955 129.993 137.070  0.00  0.00    +0.000 A 
ATOM     37  C   UNL     1     113.225 130.767 137.161  0.00  0.00    +0.000 A 
ATOM     38  C   UNL     1     113.372 129.465 136.592  0.00  0.00    +0.000 A 
ATOM     39  C   UNL     1     113.911 131.013 136.775  0.00  0.00    +0.000 A 
ATOM     40  C   UNL     1     114.057 129.710 136.206  0.00  0.00    +0.000 A 
ATOM     41  C   UNL     1     114.327 130.485 136.298  0.00  0.00    +0.000 A 
ENDBRANCH  11  36
BRANCH   5  42
ATOM     42  O   UNL     1     110.967 128.525 140.640  0.00  0.00    +0.000 OA
BRANCH  42  49
ATOM     43  O   UNL     1     110.086 129.478 141.239  0.00  0.00    +0.000 OA
ATOM     44  O   UNL     1     110.230 127.313 141.483  0.00  0.00    +0.000 OA
ATOM     45  O   UNL     1     108.981 127.660 142.504  0.00  0.00    +0.000 OA
ATOM     46  O   UNL     1     108.469 129.218 142.681  0.00  0.00    +0.000 OA
ATOM     47  C   UNL     1     109.974 128.092 141.572  0.00  0.00    +0.000 C 
ATOM     48  C   UNL     1     109.349 128.266 142.082  0.00  0.00    +0.000 C 
ATOM     49  C   UNL     1     110.342 128.698 141.150  0.00  0.00    +0.000 C 
ATOM     50  C   UNL     1     109.093 129.044 142.171  0.00  0.00    +0.000 C 
ATOM     51  C   UNL     1     109.462 129.650 141.750  0.00  0.00    +0.000 C 
BRANCH  51  53
ATOM     52  O   UNL     1     109.758 131.035 141.940  0.00  0.00    +0.000 OA
ATOM     53  C   UNL     1     109.206 130.430 141.838  0.00  0.00    +0.000 C 
ENDBRANCH  51  53
ENDBRANCH  42  49
ENDBRANCH   5  42
TORSDOF 10
ENDMDL
MODEL 4
REMARK VINA RESULT:     -10.3      2.385      4.832
REMARK  Name = 44257759
REMARK  10 active torsions:
REMARK  status: ('A' for Active; 'I' for Inactive)
REMARK    1  A    between atoms: O_2  and  C_19
REMARK    2  A    between atoms: O_2  and  C_36
REMARK    3  A    between atoms: O_4  and  C_26
REMARK    4  A    between atoms: O_4  and  C_30
REMARK    5  A    between atoms: C_18  and  C_23
REMARK    6  A    between atoms: C_22  and  C_29
REMARK    7  A    between atoms: C_28  and  C_33
REMARK    8  A    between atoms: C_36  and  C_40
REMARK    9  A    between atoms: C_38  and  C_41
REMARK   10  A    between atoms: C_42  and  C_45
REMARK                            x       y       z     vdW  Elec       q    Type
REMARK                         _______ _______ _______ _____ _____    ______ ____
ROOT
ATOM      1  O   UNL     1     112.740 129.897 138.837  0.00  0.00    +0.000 OA
ATOM      2  O   UNL     1     110.012 129.696 139.784  0.00  0.00    +0.000 OA
ATOM      3  O   UNL     1     110.248 129.959 138.384  0.00  0.00    +0.000 OA
ATOM      4  C   UNL     1     112.445 129.634 140.234  0.00  0.00    +0.000 A 
ATOM      5  C   UNL     1     111.908 129.515 140.849  0.00  0.00    +0.000 A 
ATOM      6  C   UNL     1     112.170 129.774 139.468  0.00  0.00    +0.000 A 
ATOM      7  C   UNL     1     111.359 129.795 139.318  0.00  0.00    +0.000 A 
ATOM      8  C   UNL     1     111.097 129.536 140.699  0.00  0.00    +0.000 A 
ATOM      9  C   UNL     1     110.823 129.675 139.934  0.00  0.00    +0.000 A 
ATOM     10  C   UNL     1     111.061 129.940 138.526  0.00  0.00    +0.000 A 
ATOM     11  C   UNL     1     112.460 130.043 138.037  0.00  0.00    +0.000 A 
ATOM     12  C   UNL     1     111.615 130.065 137.880  0.00  0.00    +0.000 A 
ENDROOT
BRANCH   4  16
ATOM     13  O   UNL     1     113.669 130.316 140.515  0.00  0.00    +0.000 OA
ATOM     14  O   UNL     1     114.979 128.228 140.602  0.00  0.00    +0.000 OA
ATOM     15  O   UNL     1     115.689 129.552 140.835  0.00  0.00    +0.000 OA
ATOM     16  C   UNL     1     113.256 129.614 140.385  0.00  0.00    +0.000 C 
ATOM     17  C   UNL     1     113.653 128.892 140.404  0.00  0.00    +0.000 C 
ATOM     18  C   UNL     1     114.464 128.871 140.554  0.00  0.00    +0.000 C 
ATOM     19  C   UNL     1     114.878 129.573 140.685  0.00  0.00    +0.000 C 
ATOM     20  C   UNL     1     114.480 130.296 140.665  0.00  0.00    +0.000 C 
BRANCH  20  22
ATOM     21  O   UNL     1     114.597 131.560 141.322  0.00  0.00    +0.000 OA
ATOM     22  C   UNL     1     114.893 130.997 140.796  0.00  0.00    +0.000 C 
ENDBRANCH  20  22
BRANCH  17  23
ATOM     23  O   UNL     1     113.240 128.189 140.273  0.00  0.00    +0.000 OA
BRANCH  23  25
ATOM     24  O   UNL     1     113.979 127.055 140.733  0.00  0.00    +0.000 OA
ATOM     25  C   UNL     1     113.651 127.492 140.114  0.00  0.00    +0.000 C 
BRANCH  25  26
ATOM     26  C   UNL     1     113.808 127.122 139.394  0.00  0.00    +0.000 C 
ATOM     27  C   UNL     1     113.369 126.460 139.167  0.00  0.00    +0.000 C 
BRANCH  27  29
ATOM     28  O   UNL     1     113.994 124.978 136.285  0.00  0.00    +0.000 OA
ATOM     29  C   UNL     1     113.526 126.089 138.447  0.00  0.00    +0.000 A 
ATOM     30  C   UNL     1     114.243 125.699 138.330  0.00  0.00    +0.000 A 
ATOM     31  C   UNL     1     112.965 126.109 137.842  0.00  0.00    +0.000 A 
ATOM     32  C   UNL     1     114.400 125.329 137.610  0.00  0.00    +0.000 A 
ATOM     33  C   UNL     1     113.121 125.738 137.122  0.00  0.00    +0.000 A 
ATOM     34  C   UNL     1     113.838 125.348 137.006  0.00  0.00    +0.000 A 
ENDBRANCH  27  29
ENDBRANCH  25  26
ENDBRANCH  23  25
ENDBRANCH  17  23
ENDBRANCH   4  16
BRANCH  11  36
ATOM     35  O   UNL     1     114.615 130.521 135.584  0.00  0.00    +0.000 OA
ATOM     36  C   UNL     1     112.999 130.163 137.424  0.00  0.00    +0.000 A 
ATOM     37  C   UNL     1     113.239 129.527 136.956  0.00  0.00    +0.000 A 
ATOM     38  C   UNL     1     113.298 130.918 137.278  0.00  0.00    +0.000 A 
ATOM     39  C   UNL     1     113.778 129.646 136.343  0.00  0.00    +0.000 A 
ATOM     40  C   UNL     1     113.836 131.037 136.666  0.00  0.00    +0.000 A 
ATOM     41  C   UNL     1     114.076 130.401 136.198  0.00  0.00    +0.000 A 
ENDBRANCH  11  36
BRANCH   5  42
ATOM     42  O   UNL     1     112.183 129.375 141.615  0.00  0.00    +0.000 OA
BRANCH  42  49
ATOM     43  O   UNL     1     111.628 130.492 142.313  0.00  0.00    +0.000 OA
ATOM     44  O   UNL     1     111.650 128.366 142.806  0.00  0.00    +0.000 OA
ATOM     45  O   UNL     1     110.828 128.977 144.100  0.00  0.00    +0.000 OA
ATOM     46  O   UNL     1     110.540 130.598 144.202  0.00  0.00    +0.000 OA
ATOM     47  C   UNL     1     111.505 129.176 142.858  0.00  0.00    +0.000 C 
ATOM     48  C   UNL     1     111.095 129.482 143.504  0.00  0.00    +0.000 C 
ATOM     49  C   UNL     1     111.772 129.680 142.262  0.00  0.00    +0.000 C 
ATOM     50  C   UNL     1     110.951 130.292 143.555  0.00  0.00    +0.000 C 
ATOM     51  C   UNL     1     111.217 130.797 142.960  0.00  0.00    +0.000 C 
BRANCH  51  53
ATOM     52  O   UNL     1     111.590 132.141 142.649  0.00  0.00    +0.000 OA
ATOM     53  C   UNL     1     111.073 131.608 143.010  0.00  0.00    +0.000 C 
ENDBRANCH  51  53
ENDBRANCH  42  49
ENDBRANCH   5  42
TORSDOF 10
ENDMDL
MODEL 5
REMARK VINA RESULT:     -10.1      2.119      4.616
REMARK  Name = 44257759
REMARK  10 active torsions:
REMARK  status: ('A' for Active; 'I' for Inactive)
REMARK    1  A    between atoms: O_2  and  C_19
REMARK    2  A    between atoms: O_2  and  C_36
REMARK    3  A    between atoms: O_4  and  C_26
REMARK    4  A    between atoms: O_4  and  C_30
REMARK    5  A    between atoms: C_18  and  C_23
REMARK    6  A    between atoms: C_22  and  C_29
REMARK    7  A    between atoms: C_28  and  C_33
REMARK    8  A    between atoms: C_36  and  C_40
REMARK    9  A    between atoms: C_38  and  C_41
REMARK   10  A    between atoms: C_42  and  C_45
REMARK                            x       y       z     vdW  Elec       q    Type
REMARK                         _______ _______ _______ _____ _____    ______ ____
ROOT
ATOM      1  O   UNL     1     110.785 127.861 137.347  0.00  0.00    +0.000 OA
ATOM      2  O   UNL     1     111.822 130.559 137.506  0.00  0.00    +0.000 OA
ATOM      3  O   UNL     1     111.497 130.010 136.211  0.00  0.00    +0.000 OA
ATOM      4  C   UNL     1     111.129 128.462 138.624  0.00  0.00    +0.000 A 
ATOM      5  C   UNL     1     111.410 129.096 139.071  0.00  0.00    +0.000 A 
ATOM      6  C   UNL     1     111.079 128.528 137.802  0.00  0.00    +0.000 A 
ATOM      7  C   UNL     1     111.311 129.227 137.429  0.00  0.00    +0.000 A 
ATOM      8  C   UNL     1     111.641 129.795 138.699  0.00  0.00    +0.000 A 
ATOM      9  C   UNL     1     111.591 129.860 137.878  0.00  0.00    +0.000 A 
ATOM     10  C   UNL     1     111.264 129.308 136.576  0.00  0.00    +0.000 A 
ATOM     11  C   UNL     1     110.731 127.923 136.491  0.00  0.00    +0.000 A 
ATOM     12  C   UNL     1     110.972 128.652 136.103  0.00  0.00    +0.000 A 
ENDROOT
BRANCH   4  16
ATOM     13  O   UNL     1     110.104 127.642 139.188  0.00  0.00    +0.000 OA
ATOM     14  O   UNL     1     111.678 125.838 139.784  0.00  0.00    +0.000 OA
ATOM     15  O   UNL     1     110.204 125.667 140.114  0.00  0.00    +0.000 OA
ATOM     16  C   UNL     1     110.898 127.764 138.996  0.00  0.00    +0.000 C 
ATOM     17  C   UNL     1     111.459 127.188 139.176  0.00  0.00    +0.000 C 
ATOM     18  C   UNL     1     111.228 126.489 139.549  0.00  0.00    +0.000 C 
ATOM     19  C   UNL     1     110.435 126.366 139.742  0.00  0.00    +0.000 C 
ATOM     20  C   UNL     1     109.873 126.943 139.561  0.00  0.00    +0.000 C 
BRANCH  20  22
ATOM     21  O   UNL     1     108.629 127.440 140.059  0.00  0.00    +0.000 OA
ATOM     22  C   UNL     1     109.081 126.821 139.754  0.00  0.00    +0.000 C 
ENDBRANCH  20  22
BRANCH  17  23
ATOM     23  O   UNL     1     112.252 127.309 138.984  0.00  0.00    +0.000 OA
BRANCH  23  25
ATOM     24  O   UNL     1     113.080 126.442 139.762  0.00  0.00    +0.000 OA
ATOM     25  C   UNL     1     112.789 126.685 139.029  0.00  0.00    +0.000 C 
BRANCH  25  26
ATOM     26  C   UNL     1     113.114 126.221 138.429  0.00  0.00    +0.000 C 
ATOM     27  C   UNL     1     113.861 126.401 138.128  0.00  0.00    +0.000 C 
BRANCH  27  29
ATOM     28  O   UNL     1     115.161 124.545 135.728  0.00  0.00    +0.000 OA
ATOM     29  C   UNL     1     114.186 125.938 137.528  0.00  0.00    +0.000 A 
ATOM     30  C   UNL     1     114.249 126.238 136.762  0.00  0.00    +0.000 A 
ATOM     31  C   UNL     1     114.449 125.173 137.693  0.00  0.00    +0.000 A 
ATOM     32  C   UNL     1     114.574 125.774 136.162  0.00  0.00    +0.000 A 
ATOM     33  C   UNL     1     114.773 124.710 137.094  0.00  0.00    +0.000 A 
ATOM     34  C   UNL     1     114.836 125.010 136.328  0.00  0.00    +0.000 A 
ENDBRANCH  27  29
ENDBRANCH  25  26
ENDBRANCH  23  25
ENDBRANCH  17  23
ENDBRANCH   4  16
BRANCH  11  36
ATOM     35  O   UNL     1     109.606 125.385 134.708  0.00  0.00    +0.000 OA
ATOM     36  C   UNL     1     110.450 127.288 136.045  0.00  0.00    +0.000 A 
ATOM     37  C   UNL     1     110.981 126.754 135.709  0.00  0.00    +0.000 A 
ATOM     38  C   UNL     1     109.639 127.189 135.936  0.00  0.00    +0.000 A 
ATOM     39  C   UNL     1     110.700 126.119 135.263  0.00  0.00    +0.000 A 
ATOM     40  C   UNL     1     109.358 126.555 135.491  0.00  0.00    +0.000 A 
ATOM     41  C   UNL     1     109.888 126.020 135.154  0.00  0.00    +0.000 A 
ENDBRANCH  11  36
BRANCH   5  42
ATOM     42  O   UNL     1     111.459 129.030 139.893  0.00  0.00    +0.000 OA
BRANCH  42  49
ATOM     43  O   UNL     1     110.580 130.069 140.330  0.00  0.00    +0.000 OA
ATOM     44  O   UNL     1     112.625 129.585 140.920  0.00  0.00    +0.000 OA
ATOM     45  O   UNL     1     112.329 130.901 141.870  0.00  0.00    +0.000 OA
ATOM     46  O   UNL     1     110.868 131.661 141.793  0.00  0.00    +0.000 OA
ATOM     47  C   UNL     1     111.895 129.965 140.882  0.00  0.00    +0.000 C 
ATOM     48  C   UNL     1     111.746 130.623 141.357  0.00  0.00    +0.000 C 
ATOM     49  C   UNL     1     111.312 129.688 140.368  0.00  0.00    +0.000 C 
ATOM     50  C   UNL     1     111.016 131.004 141.319  0.00  0.00    +0.000 C 
ATOM     51  C   UNL     1     110.433 130.727 140.805  0.00  0.00    +0.000 C 
BRANCH  51  53
ATOM     52  O   UNL     1     109.006 130.662 140.758  0.00  0.00    +0.000 OA
ATOM     53  C   UNL     1     109.702 131.107 140.766  0.00  0.00    +0.000 C 
ENDBRANCH  51  53
ENDBRANCH  42  49
ENDBRANCH   5  42
TORSDOF 10
ENDMDL
MODEL 6
REMARK VINA RESULT:     -10.1      2.254      4.968
REMARK  Name = 44257759
REMARK  10 active torsions:
REMARK  status: ('A' for Active; 'I' for Inactive)
REMARK    1  A    between atoms: O_2  and  C_19
REMARK    2  A    between atoms: O_2  and  C_36
REMARK    3  A    between atoms: O_4  and  C_26
REMARK    4  A    between atoms: O_4  and  C_30
REMARK    5  A    between atoms: C_18  and  C_23
REMARK    6  A    between atoms: C_22  and  C_29
REMARK    7  A    between atoms: C_28  and  C_33
REMARK    8  A    between atoms: C_36  and  C_40
REMARK    9  A    between atoms: C_38  and  C_41
REMARK   10  A    between atoms: C_42  and  C_45
REMARK                            x       y       z     vdW  Elec       q    Type
REMARK                         _______ _______ _______ _____ _____    ______ ____
ROOT
ATOM      1  O   UNL     1     112.498 129.370 138.565  0.00  0.00    +0.000 OA
ATOM      2  O   UNL     1     114.236 130.166 140.739  0.00  0.00    +0.000 OA
ATOM      3  O   UNL     1     114.651 130.426 139.381  0.00  0.00    +0.000 OA
ATOM      4  C   UNL     1     112.130 129.133 139.950  0.00  0.00    +0.000 A 
ATOM      5  C   UNL     1     112.288 129.183 140.758  0.00  0.00    +0.000 A 
ATOM      6  C   UNL     1     112.674 129.428 139.404  0.00  0.00    +0.000 A 
ATOM      7  C   UNL     1     113.376 129.773 139.667  0.00  0.00    +0.000 A 
ATOM      8  C   UNL     1     112.990 129.527 141.021  0.00  0.00    +0.000 A 
ATOM      9  C   UNL     1     113.534 129.822 140.476  0.00  0.00    +0.000 A 
ATOM     10  C   UNL     1     113.951 130.083 139.110  0.00  0.00    +0.000 A 
ATOM     11  C   UNL     1     113.061 129.676 137.992  0.00  0.00    +0.000 A 
ATOM     12  C   UNL     1     113.793 130.035 138.266  0.00  0.00    +0.000 A 
ENDROOT
BRANCH   4  16
ATOM     13  O   UNL     1     110.768 129.261 139.535  0.00  0.00    +0.000 OA
ATOM     14  O   UNL     1     110.505 126.837 139.161  0.00  0.00    +0.000 OA
ATOM     15  O   UNL     1     109.322 127.755 138.898  0.00  0.00    +0.000 OA
ATOM     16  C   UNL     1     111.428 128.788 139.687  0.00  0.00    +0.000 C 
ATOM     17  C   UNL     1     111.385 127.973 139.576  0.00  0.00    +0.000 C 
ATOM     18  C   UNL     1     110.683 127.628 139.313  0.00  0.00    +0.000 C 
ATOM     19  C   UNL     1     110.024 128.099 139.161  0.00  0.00    +0.000 C 
ATOM     20  C   UNL     1     110.066 128.916 139.272  0.00  0.00    +0.000 C 
BRANCH  20  22
ATOM     21  O   UNL     1     109.257 130.052 139.586  0.00  0.00    +0.000 OA
ATOM     22  C   UNL     1     109.407 129.387 139.121  0.00  0.00    +0.000 C 
ENDBRANCH  20  22
BRANCH  17  23
ATOM     23  O   UNL     1     112.045 127.500 139.727  0.00  0.00    +0.000 OA
BRANCH  23  25
ATOM     24  O   UNL     1     111.713 126.124 139.922  0.00  0.00    +0.000 OA
ATOM     25  C   UNL     1     112.061 126.718 139.467  0.00  0.00    +0.000 C 
BRANCH  25  26
ATOM     26  C   UNL     1     112.387 126.394 138.781  0.00  0.00    +0.000 C 
ATOM     27  C   UNL     1     113.093 125.968 138.822  0.00  0.00    +0.000 C 
BRANCH  27  29
ATOM     28  O   UNL     1     114.396 124.673 136.080  0.00  0.00    +0.000 OA
ATOM     29  C   UNL     1     113.419 125.645 138.137  0.00  0.00    +0.000 A 
ATOM     30  C   UNL     1     114.227 125.718 137.989  0.00  0.00    +0.000 A 
ATOM     31  C   UNL     1     112.936 125.247 137.598  0.00  0.00    +0.000 A 
ATOM     32  C   UNL     1     114.553 125.394 137.304  0.00  0.00    +0.000 A 
ATOM     33  C   UNL     1     113.262 124.924 136.913  0.00  0.00    +0.000 A 
ATOM     34  C   UNL     1     114.070 124.997 136.766  0.00  0.00    +0.000 A 
ENDBRANCH  27  29
ENDBRANCH  25  26
ENDBRANCH  23  25
ENDBRANCH  17  23
ENDBRANCH   4  16
BRANCH  11  36
ATOM     35  O   UNL     1     112.421 129.471 134.761  0.00  0.00    +0.000 OA
ATOM     36  C   UNL     1     112.901 129.625 137.184  0.00  0.00    +0.000 A 
ATOM     37  C   UNL     1     112.385 130.163 136.831  0.00  0.00    +0.000 A 
ATOM     38  C   UNL     1     113.257 129.035 136.730  0.00  0.00    +0.000 A 
ATOM     39  C   UNL     1     112.225 130.112 136.024  0.00  0.00    +0.000 A 
ATOM     40  C   UNL     1     113.097 128.984 135.923  0.00  0.00    +0.000 A 
ATOM     41  C   UNL     1     112.581 129.523 135.570  0.00  0.00    +0.000 A 
ENDBRANCH  11  36
BRANCH   5  42
ATOM     42  O   UNL     1     111.743 128.887 141.304  0.00  0.00    +0.000 OA
BRANCH  42  49
ATOM     43  O   UNL     1     111.469 130.063 142.068  0.00  0.00    +0.000 OA
ATOM     44  O   UNL     1     111.917 128.022 142.698  0.00  0.00    +0.000 OA
ATOM     45  O   UNL     1     111.730 128.765 144.159  0.00  0.00    +0.000 OA
ATOM     46  O   UNL     1     111.370 130.373 144.225  0.00  0.00    +0.000 OA
ATOM     47  C   UNL     1     111.737 128.826 142.731  0.00  0.00    +0.000 C 
ATOM     48  C   UNL     1     111.643 129.198 143.462  0.00  0.00    +0.000 C 
ATOM     49  C   UNL     1     111.650 129.258 142.034  0.00  0.00    +0.000 C 
ATOM     50  C   UNL     1     111.463 130.002 143.496  0.00  0.00    +0.000 C 
ATOM     51  C   UNL     1     111.376 130.435 142.799  0.00  0.00    +0.000 C 
BRANCH  51  53
ATOM     52  O   UNL     1     110.600 131.548 142.351  0.00  0.00    +0.000 OA
ATOM     53  C   UNL     1     111.196 131.239 142.831  0.00  0.00    +0.000 C 
ENDBRANCH  51  53
ENDBRANCH  42  49
ENDBRANCH   5  42
TORSDOF 10
ENDMDL
MODEL 7
REMARK VINA RESULT:      -9.9      1.543      5.755
REMARK  Name = 44257759
REMARK  10 active torsions:
REMARK  status: ('A' for Active; 'I' for Inactive)
REMARK    1  A    between atoms: O_2  and  C_19
REMARK    2  A    between atoms: O_2  and  C_36
REMARK    3  A    between atoms: O_4  and  C_26
REMARK    4  A    between atoms: O_4  and  C_30
REMARK    5  A    between atoms: C_18  and  C_23
REMARK    6  A    between atoms: C_22  and  C_29
REMARK    7  A    between atoms: C_28  and  C_33
REMARK    8  A    between atoms: C_36  and  C_40
REMARK    9  A    between atoms: C_38  and  C_41
REMARK   10  A    between atoms: C_42  and  C_45
REMARK                            x       y       z     vdW  Elec       q    Type
REMARK                         _______ _______ _______ _____ _____    ______ ____
ROOT
ATOM      1  O   UNL     1     111.977 129.205 137.178  0.00  0.00    +0.000 OA
ATOM      2  O   UNL     1     113.940 127.586 135.797  0.00  0.00    +0.000 OA
ATOM      3  O   UNL     1     113.908 129.008 135.550  0.00  0.00    +0.000 OA
ATOM      4  C   UNL     1     112.053 127.770 137.389  0.00  0.00    +0.000 A 
ATOM      5  C   UNL     1     112.395 127.035 137.236  0.00  0.00    +0.000 A 
ATOM      6  C   UNL     1     112.341 128.445 137.010  0.00  0.00    +0.000 A 
ATOM      7  C   UNL     1     112.970 128.383 136.479  0.00  0.00    +0.000 A 
ATOM      8  C   UNL     1     113.024 126.973 136.705  0.00  0.00    +0.000 A 
ATOM      9  C   UNL     1     113.311 127.647 136.327  0.00  0.00    +0.000 A 
ATOM     10  C   UNL     1     113.278 129.078 136.079  0.00  0.00    +0.000 A 
ATOM     11  C   UNL     1     112.272 129.911 136.787  0.00  0.00    +0.000 A 
ATOM     12  C   UNL     1     112.927 129.847 136.233  0.00  0.00    +0.000 A 
ENDROOT
BRANCH   4  16
ATOM     13  O   UNL     1     110.648 127.840 137.639  0.00  0.00    +0.000 OA
ATOM     14  O   UNL     1     110.947 128.003 140.082  0.00  0.00    +0.000 OA
ATOM     15  O   UNL     1     109.538 128.014 139.511  0.00  0.00    +0.000 OA
ATOM     16  C   UNL     1     111.424 127.831 137.919  0.00  0.00    +0.000 C 
ATOM     17  C   UNL     1     111.572 127.883 138.728  0.00  0.00    +0.000 C 
ATOM     18  C   UNL     1     110.943 127.944 139.259  0.00  0.00    +0.000 C 
ATOM     19  C   UNL     1     110.167 127.953 138.980  0.00  0.00    +0.000 C 
ATOM     20  C   UNL     1     110.019 127.901 138.170  0.00  0.00    +0.000 C 
BRANCH  20  22
ATOM     21  O   UNL     1     109.096 127.920 137.079  0.00  0.00    +0.000 OA
ATOM     22  C   UNL     1     109.243 127.910 137.891  0.00  0.00    +0.000 C 
ENDBRANCH  20  22
BRANCH  17  23
ATOM     23  O   UNL     1     112.348 127.874 139.009  0.00  0.00    +0.000 OA
BRANCH  23  25
ATOM     24  O   UNL     1     112.347 127.628 140.416  0.00  0.00    +0.000 OA
ATOM     25  C   UNL     1     112.512 128.123 139.777  0.00  0.00    +0.000 C 
BRANCH  25  26
ATOM     26  C   UNL     1     112.838 128.832 140.047  0.00  0.00    +0.000 C 
ATOM     27  C   UNL     1     113.643 128.874 140.226  0.00  0.00    +0.000 C 
BRANCH  27  29
ATOM     28  O   UNL     1     114.946 131.708 141.303  0.00  0.00    +0.000 OA
ATOM     29  C   UNL     1     113.968 129.582 140.495  0.00  0.00    +0.000 A 
ATOM     30  C   UNL     1     113.632 129.973 141.139  0.00  0.00    +0.000 A 
ATOM     31  C   UNL     1     114.631 129.901 140.121  0.00  0.00    +0.000 A 
ATOM     32  C   UNL     1     113.957 130.682 141.408  0.00  0.00    +0.000 A 
ATOM     33  C   UNL     1     114.957 130.609 140.390  0.00  0.00    +0.000 A 
ATOM     34  C   UNL     1     114.620 130.999 141.034  0.00  0.00    +0.000 A 
ENDBRANCH  27  29
ENDBRANCH  25  26
ENDBRANCH  23  25
ENDBRANCH  17  23
ENDBRANCH   4  16
BRANCH  11  36
ATOM     35  O   UNL     1     110.899 132.848 137.402  0.00  0.00    +0.000 OA
ATOM     36  C   UNL     1     111.929 130.645 136.941  0.00  0.00    +0.000 A 
ATOM     37  C   UNL     1     112.265 131.148 137.502  0.00  0.00    +0.000 A 
ATOM     38  C   UNL     1     111.249 130.877 136.534  0.00  0.00    +0.000 A 
ATOM     39  C   UNL     1     111.922 131.883 137.656  0.00  0.00    +0.000 A 
ATOM     40  C   UNL     1     110.906 131.610 136.688  0.00  0.00    +0.000 A 
ATOM     41  C   UNL     1     111.243 132.113 137.249  0.00  0.00    +0.000 A 
ENDBRANCH  11  36
BRANCH   5  42
ATOM     42  O   UNL     1     112.107 126.360 137.614  0.00  0.00    +0.000 OA
BRANCH  42  49
ATOM     43  O   UNL     1     111.539 125.624 136.529  0.00  0.00    +0.000 OA
ATOM     44  O   UNL     1     112.922 125.011 138.103  0.00  0.00    +0.000 OA
ATOM     45  O   UNL     1     112.762 123.601 137.261  0.00  0.00    +0.000 OA
ATOM     46  O   UNL     1     111.787 123.539 135.933  0.00  0.00    +0.000 OA
ATOM     47  C   UNL     1     112.435 124.980 137.438  0.00  0.00    +0.000 C 
ATOM     48  C   UNL     1     112.355 124.275 137.017  0.00  0.00    +0.000 C 
ATOM     49  C   UNL     1     112.027 125.654 137.194  0.00  0.00    +0.000 C 
ATOM     50  C   UNL     1     111.867 124.244 136.353  0.00  0.00    +0.000 C 
ATOM     51  C   UNL     1     111.459 124.918 136.109  0.00  0.00    +0.000 C 
BRANCH  51  53
ATOM     52  O   UNL     1     110.271 125.324 135.428  0.00  0.00    +0.000 OA
ATOM     53  C   UNL     1     110.971 124.888 135.445  0.00  0.00    +0.000 C 
ENDBRANCH  51  53
ENDBRANCH  42  49
ENDBRANCH   5  42
TORSDOF 10
ENDMDL
MODEL 8
REMARK VINA RESULT:      -9.9      2.375      4.786
REMARK  Name = 44257759
REMARK  10 active torsions:
REMARK  status: ('A' for Active; 'I' for Inactive)
REMARK    1  A    between atoms: O_2  and  C_19
REMARK    2  A    between atoms: O_2  and  C_36
REMARK    3  A    between atoms: O_4  and  C_26
REMARK    4  A    between atoms: O_4  and  C_30
REMARK    5  A    between atoms: C_18  and  C_23
REMARK    6  A    between atoms: C_22  and  C_29
REMARK    7  A    between atoms: C_28  and  C_33
REMARK    8  A    between atoms: C_36  and  C_40
REMARK    9  A    between atoms: C_38  and  C_41
REMARK   10  A    between atoms: C_42  and  C_45
REMARK                            x       y       z     vdW  Elec       q    Type
REMARK                         _______ _______ _______ _____ _____    ______ ____
ROOT
ATOM      1  O   UNL     1     112.279 126.748 138.048  0.00  0.00    +0.000 OA
ATOM      2  O   UNL     1     109.476 127.058 137.393  0.00  0.00    +0.000 OA
ATOM      3  O   UNL     1     110.291 126.186 136.581  0.00  0.00    +0.000 OA
ATOM      4  C   UNL     1     111.413 127.612 138.831  0.00  0.00    +0.000 A 
ATOM      5  C   UNL     1     110.676 127.948 138.984  0.00  0.00    +0.000 A 
ATOM      6  C   UNL     1     111.505 127.091 138.197  0.00  0.00    +0.000 A 
ATOM      7  C   UNL     1     110.859 126.906 137.717  0.00  0.00    +0.000 A 
ATOM      8  C   UNL     1     110.030 127.763 138.505  0.00  0.00    +0.000 A 
ATOM      9  C   UNL     1     110.122 127.243 137.872  0.00  0.00    +0.000 A 
ATOM     10  C   UNL     1     110.942 126.366 137.055  0.00  0.00    +0.000 A 
ATOM     11  C   UNL     1     112.381 126.204 137.389  0.00  0.00    +0.000 A 
ATOM     12  C   UNL     1     111.708 126.012 136.890  0.00  0.00    +0.000 A 
ENDROOT
BRANCH   4  16
ATOM     13  O   UNL     1     112.252 127.309 139.947  0.00  0.00    +0.000 OA
ATOM     14  O   UNL     1     113.686 129.284 139.589  0.00  0.00    +0.000 OA
ATOM     15  O   UNL     1     113.996 128.350 140.748  0.00  0.00    +0.000 OA
ATOM     16  C   UNL     1     112.059 127.797 139.310  0.00  0.00    +0.000 C 
ATOM     17  C   UNL     1     112.510 128.468 139.152  0.00  0.00    +0.000 C 
ATOM     18  C   UNL     1     113.156 128.653 139.632  0.00  0.00    +0.000 C 
ATOM     19  C   UNL     1     113.350 128.166 140.268  0.00  0.00    +0.000 C 
ATOM     20  C   UNL     1     112.898 127.493 140.426  0.00  0.00    +0.000 C 
BRANCH  20  22
ATOM     21  O   UNL     1     112.680 126.301 141.184  0.00  0.00    +0.000 OA
ATOM     22  C   UNL     1     113.092 127.006 141.063  0.00  0.00    +0.000 C 
ENDBRANCH  20  22
BRANCH  17  23
ATOM     23  O   UNL     1     112.317 128.956 138.516  0.00  0.00    +0.000 OA
BRANCH  23  25
ATOM     24  O   UNL     1     112.827 130.282 138.671  0.00  0.00    +0.000 OA
ATOM     25  C   UNL     1     112.834 129.554 138.282  0.00  0.00    +0.000 C 
BRANCH  25  26
ATOM     26  C   UNL     1     113.402 129.559 137.683  0.00  0.00    +0.000 C 
ATOM     27  C   UNL     1     113.284 130.018 137.007  0.00  0.00    +0.000 C 
BRANCH  27  29
ATOM     28  O   UNL     1     115.556 130.041 134.613  0.00  0.00    +0.000 OA
ATOM     29  C   UNL     1     113.852 130.024 136.409  0.00  0.00    +0.000 A 
ATOM     30  C   UNL     1     113.858 129.426 135.840  0.00  0.00    +0.000 A 
ATOM     31  C   UNL     1     114.414 130.627 136.378  0.00  0.00    +0.000 A 
ATOM     32  C   UNL     1     114.425 129.431 135.241  0.00  0.00    +0.000 A 
ATOM     33  C   UNL     1     114.981 130.632 135.780  0.00  0.00    +0.000 A 
ATOM     34  C   UNL     1     114.987 130.035 135.212  0.00  0.00    +0.000 A 
ENDBRANCH  27  29
ENDBRANCH  25  26
ENDBRANCH  23  25
ENDBRANCH  17  23
ENDBRANCH   4  16
BRANCH  11  36
ATOM     35  O   UNL     1     115.335 124.866 136.782  0.00  0.00    +0.000 OA
ATOM     36  C   UNL     1     113.119 125.869 137.238  0.00  0.00    +0.000 A 
ATOM     37  C   UNL     1     113.367 125.206 137.662  0.00  0.00    +0.000 A 
ATOM     38  C   UNL     1     113.611 126.198 136.662  0.00  0.00    +0.000 A 
ATOM     39  C   UNL     1     114.105 124.871 137.510  0.00  0.00    +0.000 A 
ATOM     40  C   UNL     1     114.349 125.864 136.510  0.00  0.00    +0.000 A 
ATOM     41  C   UNL     1     114.596 125.200 136.934  0.00  0.00    +0.000 A 
ENDBRANCH  11  36
BRANCH   5  42
ATOM     42  O   UNL     1     110.584 128.469 139.618  0.00  0.00    +0.000 OA
BRANCH  42  49
ATOM     43  O   UNL     1     109.673 127.772 140.470  0.00  0.00    +0.000 OA
ATOM     44  O   UNL     1     109.630 129.813 139.698  0.00  0.00    +0.000 OA
ATOM     45  O   UNL     1     108.242 129.788 140.590  0.00  0.00    +0.000 OA
ATOM     46  O   UNL     1     107.809 128.419 141.401  0.00  0.00    +0.000 OA
ATOM     47  C   UNL     1     109.413 129.129 140.104  0.00  0.00    +0.000 C 
ATOM     48  C   UNL     1     108.719 129.116 140.550  0.00  0.00    +0.000 C 
ATOM     49  C   UNL     1     109.890 128.457 140.063  0.00  0.00    +0.000 C 
ATOM     50  C   UNL     1     108.502 128.432 140.956  0.00  0.00    +0.000 C 
ATOM     51  C   UNL     1     108.979 127.760 140.915  0.00  0.00    +0.000 C 
BRANCH  51  53
ATOM     52  O   UNL     1     109.319 126.675 141.782  0.00  0.00    +0.000 OA
ATOM     53  C   UNL     1     108.763 127.075 141.321  0.00  0.00    +0.000 C 
ENDBRANCH  51  53
ENDBRANCH  42  49
ENDBRANCH   5  42
TORSDOF 10
ENDMDL
MODEL 9
REMARK VINA RESULT:      -9.9      1.646      4.071
REMARK  Name = 44257759
REMARK  10 active torsions:
REMARK  status: ('A' for Active; 'I' for Inactive)
REMARK    1  A    between atoms: O_2  and  C_19
REMARK    2  A    between atoms: O_2  and  C_36
REMARK    3  A    between atoms: O_4  and  C_26
REMARK    4  A    between atoms: O_4  and  C_30
REMARK    5  A    between atoms: C_18  and  C_23
REMARK    6  A    between atoms: C_22  and  C_29
REMARK    7  A    between atoms: C_28  and  C_33
REMARK    8  A    between atoms: C_36  and  C_40
REMARK    9  A    between atoms: C_38  and  C_41
REMARK   10  A    between atoms: C_42  and  C_45
REMARK                            x       y       z     vdW  Elec       q    Type
REMARK                         _______ _______ _______ _____ _____    ______ ____
ROOT
ATOM      1  O   UNL     1     110.920 127.202 137.500  0.00  0.00    +0.000 OA
ATOM      2  O   UNL     1     109.000 128.308 139.362  0.00  0.00    +0.000 OA
ATOM      3  O   UNL     1     109.041 126.878 139.168  0.00  0.00    +0.000 OA
ATOM      4  C   UNL     1     110.835 128.633 137.734  0.00  0.00    +0.000 A 
ATOM      5  C   UNL     1     110.497 129.284 138.111  0.00  0.00    +0.000 A 
ATOM      6  C   UNL     1     110.560 127.872 137.900  0.00  0.00    +0.000 A 
ATOM      7  C   UNL     1     109.948 127.764 138.443  0.00  0.00    +0.000 A 
ATOM      8  C   UNL     1     109.886 129.176 138.654  0.00  0.00    +0.000 A 
ATOM      9  C   UNL     1     109.611 128.416 138.820  0.00  0.00    +0.000 A 
ATOM     10  C   UNL     1     109.653 126.978 138.624  0.00  0.00    +0.000 A 
ATOM     11  C   UNL     1     110.638 126.407 137.669  0.00  0.00    +0.000 A 
ATOM     12  C   UNL     1     110.000 126.294 138.234  0.00  0.00    +0.000 A 
ENDROOT
BRANCH   4  16
ATOM     13  O   UNL     1     111.273 128.858 136.393  0.00  0.00    +0.000 OA
ATOM     14  O   UNL     1     113.659 128.856 137.021  0.00  0.00    +0.000 OA
ATOM     15  O   UNL     1     113.282 129.066 135.563  0.00  0.00    +0.000 OA
ATOM     16  C   UNL     1     111.447 128.741 137.191  0.00  0.00    +0.000 C 
ATOM     17  C   UNL     1     112.230 128.733 137.447  0.00  0.00    +0.000 C 
ATOM     18  C   UNL     1     112.842 128.841 136.904  0.00  0.00    +0.000 C 
ATOM     19  C   UNL     1     112.670 128.958 136.106  0.00  0.00    +0.000 C 
ATOM     20  C   UNL     1     111.885 128.966 135.850  0.00  0.00    +0.000 C 
BRANCH  20  22
ATOM     21  O   UNL     1     110.932 129.056 134.790  0.00  0.00    +0.000 OA
ATOM     22  C   UNL     1     111.713 129.082 135.052  0.00  0.00    +0.000 C 
ENDBRANCH  20  22
BRANCH  17  23
ATOM     23  O   UNL     1     112.404 128.616 138.245  0.00  0.00    +0.000 OA
BRANCH  23  25
ATOM     24  O   UNL     1     113.727 128.086 138.347  0.00  0.00    +0.000 OA
ATOM     25  C   UNL     1     113.181 128.682 138.513  0.00  0.00    +0.000 C 
BRANCH  25  26
ATOM     26  C   UNL     1     113.542 129.281 138.951  0.00  0.00    +0.000 C 
ATOM     27  C   UNL     1     113.646 129.191 139.765  0.00  0.00    +0.000 C 
BRANCH  27  29
ATOM     28  O   UNL     1     115.089 131.586 141.518  0.00  0.00    +0.000 OA
ATOM     29  C   UNL     1     114.006 129.789 140.203  0.00  0.00    +0.000 A 
ATOM     30  C   UNL     1     114.745 130.079 139.977  0.00  0.00    +0.000 A 
ATOM     31  C   UNL     1     113.629 130.099 140.868  0.00  0.00    +0.000 A 
ATOM     32  C   UNL     1     115.106 130.677 140.415  0.00  0.00    +0.000 A 
ATOM     33  C   UNL     1     113.990 130.697 141.306  0.00  0.00    +0.000 A 
ATOM     34  C   UNL     1     114.728 130.986 141.079  0.00  0.00    +0.000 A 
ENDBRANCH  27  29
ENDBRANCH  25  26
ENDBRANCH  23  25
ENDBRANCH  17  23
ENDBRANCH   4  16
BRANCH  11  36
ATOM     35  O   UNL     1     111.993 123.808 136.154  0.00  0.00    +0.000 OA
ATOM     36  C   UNL     1     110.977 125.757 137.290  0.00  0.00    +0.000 A 
ATOM     37  C   UNL     1     111.540 125.299 137.682  0.00  0.00    +0.000 A 
ATOM     38  C   UNL     1     110.753 125.565 136.520  0.00  0.00    +0.000 A 
ATOM     39  C   UNL     1     111.879 124.649 137.304  0.00  0.00    +0.000 A 
ATOM     40  C   UNL     1     111.091 124.916 136.141  0.00  0.00    +0.000 A 
ATOM     41  C   UNL     1     111.654 124.458 136.533  0.00  0.00    +0.000 A 
ENDBRANCH  11  36
BRANCH   5  42
ATOM     42  O   UNL     1     110.773 130.045 137.945  0.00  0.00    +0.000 OA
BRANCH  42  49
ATOM     43  O   UNL     1     109.583 130.662 137.450  0.00  0.00    +0.000 OA
ATOM     44  O   UNL     1     111.048 131.352 138.913  0.00  0.00    +0.000 OA
ATOM     45  O   UNL     1     109.995 132.623 138.902  0.00  0.00    +0.000 OA
ATOM     46  O   UNL     1     108.669 132.586 137.922  0.00  0.00    +0.000 OA
ATOM     47  C   UNL     1     110.384 131.334 138.424  0.00  0.00    +0.000 C 
ATOM     48  C   UNL     1     109.858 131.970 138.418  0.00  0.00    +0.000 C 
ATOM     49  C   UNL     1     110.247 130.680 137.940  0.00  0.00    +0.000 C 
ATOM     50  C   UNL     1     109.195 131.951 137.928  0.00  0.00    +0.000 C 
ATOM     51  C   UNL     1     109.057 131.298 137.444  0.00  0.00    +0.000 C 
BRANCH  51  53
ATOM     52  O   UNL     1     108.439 130.916 136.214  0.00  0.00    +0.000 OA
ATOM     53  C   UNL     1     108.394 131.279 136.954  0.00  0.00    +0.000 C 
ENDBRANCH  51  53
ENDBRANCH  42  49
ENDBRANCH   5  42
TORSDOF 10
ENDMDL
MODEL 10
REMARK VINA RESULT:      -9.9      2.033      4.270
REMARK  Name = 44257759
REMARK  10 active torsions:
REMARK  status: ('A' for Active; 'I' for Inactive)
REMARK    1  A    between atoms: O_2  and  C_19
REMARK    2  A    between atoms: O_2  and  C_36
REMARK    3  A    between atoms: O_4  and  C_26
REMARK    4  A    between atoms: O_4  and  C_30
REMARK    5  A    between atoms: C_18  and  C_23
REMARK    6  A    between atoms: C_22  and  C_29
REMARK    7  A    between atoms: C_28  and  C_33
REMARK    8  A    between atoms: C_36  and  C_40
REMARK    9  A    between atoms: C_38  and  C_41
REMARK   10  A    between atoms: C_42  and  C_45
REMARK                            x       y       z     vdW  Elec       q    Type
REMARK                         _______ _______ _______ _____ _____    ______ ____
ROOT
ATOM      1  O   UNL     1     111.930 128.623 137.840  0.00  0.00    +0.000 OA
ATOM      2  O   UNL     1     112.255 128.986 140.694  0.00  0.00    +0.000 OA
ATOM      3  O   UNL     1     113.277 129.485 139.805  0.00  0.00    +0.000 OA
ATOM      4  C   UNL     1     110.933 128.141 138.780  0.00  0.00    +0.000 A 
ATOM      5  C   UNL     1     110.656 128.040 139.550  0.00  0.00    +0.000 A 
ATOM      6  C   UNL     1     111.652 128.524 138.648  0.00  0.00    +0.000 A 
ATOM      7  C   UNL     1     112.093 128.806 139.286  0.00  0.00    +0.000 A 
ATOM      8  C   UNL     1     111.096 128.321 140.188  0.00  0.00    +0.000 A 
ATOM      9  C   UNL     1     111.814 128.704 140.056  0.00  0.00    +0.000 A 
ATOM     10  C   UNL     1     112.843 129.206 139.161  0.00  0.00    +0.000 A 
ATOM     11  C   UNL     1     112.679 129.021 137.696  0.00  0.00    +0.000 A 
ATOM     12  C   UNL     1     113.138 129.315 138.361  0.00  0.00    +0.000 A 
ENDROOT
BRANCH   4  16
ATOM     13  O   UNL     1     110.004 128.373 137.719  0.00  0.00    +0.000 OA
ATOM     14  O   UNL     1     110.053 126.024 136.969  0.00  0.00    +0.000 OA
ATOM     15  O   UNL     1     109.170 127.015 136.227  0.00  0.00    +0.000 OA
ATOM     16  C   UNL     1     110.492 127.859 138.142  0.00  0.00    +0.000 C 
ATOM     17  C   UNL     1     110.540 127.065 137.926  0.00  0.00    +0.000 C 
ATOM     18  C   UNL     1     110.100 126.783 137.288  0.00  0.00    +0.000 C 
ATOM     19  C   UNL     1     109.611 127.296 136.865  0.00  0.00    +0.000 C 
ATOM     20  C   UNL     1     109.563 128.092 137.081  0.00  0.00    +0.000 C 
BRANCH  20  22
ATOM     21  O   UNL     1     108.804 129.300 137.009  0.00  0.00    +0.000 OA
ATOM     22  C   UNL     1     109.075 128.604 136.658  0.00  0.00    +0.000 C 
ENDBRANCH  20  22
BRANCH  17  23
ATOM     23  O   UNL     1     111.029 126.551 138.348  0.00  0.00    +0.000 OA
BRANCH  23  25
ATOM     24  O   UNL     1     110.859 125.167 138.035  0.00  0.00    +0.000 OA
ATOM     25  C   UNL     1     111.305 125.860 137.994  0.00  0.00    +0.000 C 
BRANCH  25  26
ATOM     26  C   UNL     1     112.002 125.722 137.573  0.00  0.00    +0.000 C 
ATOM     27  C   UNL     1     112.606 125.272 137.911  0.00  0.00    +0.000 C 
BRANCH  27  29
ATOM     28  O   UNL     1     115.390 124.721 136.228  0.00  0.00    +0.000 OA
ATOM     29  C   UNL     1     113.301 125.134 137.490  0.00  0.00    +0.000 A 
ATOM     30  C   UNL     1     113.270 124.790 136.740  0.00  0.00    +0.000 A 
ATOM     31  C   UNL     1     114.030 125.340 137.818  0.00  0.00    +0.000 A 
ATOM     32  C   UNL     1     113.966 124.653 136.320  0.00  0.00    +0.000 A 
ATOM     33  C   UNL     1     114.726 125.202 137.398  0.00  0.00    +0.000 A 
ATOM     34  C   UNL     1     114.693 124.859 136.648  0.00  0.00    +0.000 A 
ENDBRANCH  27  29
ENDBRANCH  25  26
ENDBRANCH  23  25
ENDBRANCH  17  23
ENDBRANCH   4  16
BRANCH  11  36
ATOM     35  O   UNL     1     113.782 129.420 134.612  0.00  0.00    +0.000 OA
ATOM     36  C   UNL     1     112.954 129.121 136.925  0.00  0.00    +0.000 A 
ATOM     37  C   UNL     1     112.674 129.746 136.465  0.00  0.00    +0.000 A 
ATOM     38  C   UNL     1     113.510 128.597 136.614  0.00  0.00    +0.000 A 
ATOM     39  C   UNL     1     112.950 129.846 135.693  0.00  0.00    +0.000 A 
ATOM     40  C   UNL     1     113.786 128.696 135.844  0.00  0.00    +0.000 A 
ATOM     41  C   UNL     1     113.506 129.321 135.384  0.00  0.00    +0.000 A 
ENDBRANCH  11  36
BRANCH   5  42
ATOM     42  O   UNL     1     109.936 127.657 139.682  0.00  0.00    +0.000 OA
BRANCH  42  49
ATOM     43  O   UNL     1     109.138 128.667 140.302  0.00  0.00    +0.000 OA
ATOM     44  O   UNL     1     109.573 126.616 140.910  0.00  0.00    +0.000 OA
ATOM     45  O   UNL     1     108.594 127.106 142.144  0.00  0.00    +0.000 OA
ATOM     46  O   UNL     1     107.978 128.636 142.150  0.00  0.00    +0.000 OA
ATOM     47  C   UNL     1     109.265 127.381 140.913  0.00  0.00    +0.000 C 
ATOM     48  C   UNL     1     108.775 127.626 141.530  0.00  0.00    +0.000 C 
ATOM     49  C   UNL     1     109.447 127.901 140.299  0.00  0.00    +0.000 C 
ATOM     50  C   UNL     1     108.467 128.391 141.533  0.00  0.00    +0.000 C 
ATOM     51  C   UNL     1     108.649 128.911 140.919  0.00  0.00    +0.000 C 
BRANCH  51  53
ATOM     52  O   UNL     1     108.037 130.001 140.226  0.00  0.00    +0.000 OA
ATOM     53  C   UNL     1     108.341 129.677 140.922  0.00  0.00    +0.000 C 
ENDBRANCH  51  53
ENDBRANCH  42  49
ENDBRANCH   5  42
TORSDOF 10
ENDMDL
