MODEL 1
REMARK VINA RESULT:     -10.0      0.000      0.000
REMARK  Name = 44257135
REMARK  8 active torsions:
REMARK  status: ('A' for Active; 'I' for Inactive)
REMARK    1  A    between atoms: O_3  and  C_20
REMARK    2  A    between atoms: O_3  and  C_29
REMARK    3  A    between atoms: O_4  and  C_25
REMARK    4  A    between atoms: O_4  and  C_33
REMARK    5  A    between atoms: C_23  and  C_36
REMARK    6  A    between atoms: C_26  and  C_37
REMARK    7  A    between atoms: C_32  and  C_38
REMARK    8  A    between atoms: C_34  and  C_39
REMARK                            x       y       z     vdW  Elec       q    Type
REMARK                         _______ _______ _______ _____ _____    ______ ____
ROOT
ATOM      1  O   UNL     1     112.324 129.536 135.534  0.00  0.00    +0.000 OA
ATOM      2  O   UNL     1     113.177 127.387 136.193  0.00  0.00    +0.000 OA
ATOM      3  C   UNL     1     111.774 128.234 135.925  0.00  0.00    +0.000 A 
ATOM      4  C   UNL     1     112.567 127.919 136.027  0.00  0.00    +0.000 C 
ATOM      5  C   UNL     1     111.127 127.744 136.068  0.00  0.00    +0.000 A 
ATOM      6  C   UNL     1     113.247 128.424 135.879  0.00  0.00    +0.000 C 
ATOM      7  C   UNL     1     111.657 129.015 135.687  0.00  0.00    +0.000 A 
ATOM      8  C   UNL     1     113.124 129.238 135.631  0.00  0.00    +0.000 C 
ATOM      9  C   UNL     1     110.242 128.816 135.736  0.00  0.00    +0.000 A 
ATOM     10  C   UNL     1     110.361 128.035 135.974  0.00  0.00    +0.000 A 
ATOM     11  C   UNL     1     110.891 129.306 135.592  0.00  0.00    +0.000 A 
ATOM     12  C   UNL     1     110.772 130.087 135.355  0.00  0.00    +0.000 C 
ENDROOT
BRANCH   8  14
ATOM     13  O   UNL     1     115.709 131.207 135.055  0.00  0.00    +0.000 OA
ATOM     14  C   UNL     1     113.770 129.730 135.486  0.00  0.00    +0.000 A 
ATOM     15  C   UNL     1     114.157 129.702 134.758  0.00  0.00    +0.000 A 
ATOM     16  C   UNL     1     114.030 130.251 136.071  0.00  0.00    +0.000 A 
ATOM     17  C   UNL     1     114.803 130.194 134.614  0.00  0.00    +0.000 A 
ATOM     18  C   UNL     1     114.677 130.743 135.926  0.00  0.00    +0.000 A 
ATOM     19  C   UNL     1     115.063 130.714 135.198  0.00  0.00    +0.000 A 
ENDBRANCH   8  14
BRANCH  10  21
ATOM     20  O   UNL     1     109.274 127.248 135.485  0.00  0.00    +0.000 OA
ATOM     21  C   UNL     1     109.713 127.546 136.117  0.00  0.00    +0.000 C 
ENDBRANCH  10  21
BRANCH   5  22
ATOM     22  O   UNL     1     111.245 126.964 136.306  0.00  0.00    +0.000 OA
BRANCH  22  30
ATOM     23  O   UNL     1     111.162 126.365 137.602  0.00  0.00    +0.000 OA
ATOM     24  O   UNL     1     111.451 124.127 136.588  0.00  0.00    +0.000 OA
ATOM     25  O   UNL     1     111.438 125.470 135.630  0.00  0.00    +0.000 OA
ATOM     26  O   UNL     1     111.272 124.275 138.221  0.00  0.00    +0.000 OA
ATOM     27  C   UNL     1     111.355 124.874 136.926  0.00  0.00    +0.000 C 
ATOM     28  C   UNL     1     111.348 125.545 136.447  0.00  0.00    +0.000 C 
ATOM     29  C   UNL     1     111.265 124.948 137.742  0.00  0.00    +0.000 C 
ATOM     30  C   UNL     1     111.252 126.291 136.785  0.00  0.00    +0.000 C 
ATOM     31  C   UNL     1     111.168 125.694 138.081  0.00  0.00    +0.000 C 
BRANCH  31  33
ATOM     32  O   UNL     1     110.947 126.510 139.232  0.00  0.00    +0.000 OA
ATOM     33  C   UNL     1     111.078 125.768 138.897  0.00  0.00    +0.000 C 
ENDBRANCH  31  33
ENDBRANCH  22  30
ENDBRANCH   5  22
BRANCH   9  34
ATOM     34  O   UNL     1     109.476 129.107 135.642  0.00  0.00    +0.000 OA
BRANCH  34  42
ATOM     35  O   UNL     1     109.408 129.590 136.984  0.00  0.00    +0.000 OA
ATOM     36  O   UNL     1     107.725 131.269 136.295  0.00  0.00    +0.000 OA
ATOM     37  O   UNL     1     108.354 130.226 135.182  0.00  0.00    +0.000 OA
ATOM     38  O   UNL     1     108.218 131.193 137.867  0.00  0.00    +0.000 OA
ATOM     39  C   UNL     1     108.286 130.709 136.524  0.00  0.00    +0.000 C 
ATOM     40  C   UNL     1     108.601 130.188 135.968  0.00  0.00    +0.000 C 
ATOM     41  C   UNL     1     108.533 130.671 137.311  0.00  0.00    +0.000 C 
ATOM     42  C   UNL     1     109.162 129.628 136.198  0.00  0.00    +0.000 C 
ATOM     43  C   UNL     1     109.094 130.112 137.541  0.00  0.00    +0.000 C 
BRANCH  43  45
ATOM     44  O   UNL     1     109.114 129.437 138.801  0.00  0.00    +0.000 OA
ATOM     45  C   UNL     1     109.340 130.074 138.327  0.00  0.00    +0.000 C 
ENDBRANCH  43  45
ENDBRANCH  34  42
ENDBRANCH   9  34
TORSDOF 8
ENDMDL
MODEL 2
REMARK VINA RESULT:      -9.7      2.214      5.024
REMARK  Name = 44257135
REMARK  8 active torsions:
REMARK  status: ('A' for Active; 'I' for Inactive)
REMARK    1  A    between atoms: O_3  and  C_20
REMARK    2  A    between atoms: O_3  and  C_29
REMARK    3  A    between atoms: O_4  and  C_25
REMARK    4  A    between atoms: O_4  and  C_33
REMARK    5  A    between atoms: C_23  and  C_36
REMARK    6  A    between atoms: C_26  and  C_37
REMARK    7  A    between atoms: C_32  and  C_38
REMARK    8  A    between atoms: C_34  and  C_39
REMARK                            x       y       z     vdW  Elec       q    Type
REMARK                         _______ _______ _______ _____ _____    ______ ____
ROOT
ATOM      1  O   UNL     1     112.448 128.877 139.228  0.00  0.00    +0.000 OA
ATOM      2  O   UNL     1     111.330 130.735 138.190  0.00  0.00    +0.000 OA
ATOM      3  C   UNL     1     111.249 129.092 138.413  0.00  0.00    +0.000 A 
ATOM      4  C   UNL     1     111.412 129.935 138.378  0.00  0.00    +0.000 C 
ATOM      5  C   UNL     1     110.582 128.796 138.029  0.00  0.00    +0.000 A 
ATOM      6  C   UNL     1     112.106 130.250 138.776  0.00  0.00    +0.000 C 
ATOM      7  C   UNL     1     111.750 128.581 138.824  0.00  0.00    +0.000 A 
ATOM      8  C   UNL     1     112.626 129.717 139.204  0.00  0.00    +0.000 C 
ATOM      9  C   UNL     1     110.915 127.477 138.467  0.00  0.00    +0.000 A 
ATOM     10  C   UNL     1     110.415 127.989 138.056  0.00  0.00    +0.000 A 
ATOM     11  C   UNL     1     111.583 127.774 138.851  0.00  0.00    +0.000 A 
ATOM     12  C   UNL     1     112.082 127.262 139.262  0.00  0.00    +0.000 C 
ENDROOT
BRANCH   8  14
ATOM     13  O   UNL     1     115.298 130.892 140.745  0.00  0.00    +0.000 OA
ATOM     14  C   UNL     1     113.295 130.011 139.589  0.00  0.00    +0.000 A 
ATOM     15  C   UNL     1     113.960 130.229 139.153  0.00  0.00    +0.000 A 
ATOM     16  C   UNL     1     113.297 130.087 140.410  0.00  0.00    +0.000 A 
ATOM     17  C   UNL     1     114.629 130.522 139.538  0.00  0.00    +0.000 A 
ATOM     18  C   UNL     1     113.965 130.381 140.795  0.00  0.00    +0.000 A 
ATOM     19  C   UNL     1     114.631 130.598 140.359  0.00  0.00    +0.000 A 
ENDBRANCH   8  14
BRANCH  10  21
ATOM     20  O   UNL     1     109.086 127.466 138.111  0.00  0.00    +0.000 OA
ATOM     21  C   UNL     1     109.748 127.692 137.672  0.00  0.00    +0.000 C 
ENDBRANCH  10  21
BRANCH   5  22
ATOM     22  O   UNL     1     110.082 129.307 137.618  0.00  0.00    +0.000 OA
BRANCH  22  30
ATOM     23  O   UNL     1     109.979 129.587 136.220  0.00  0.00    +0.000 OA
ATOM     24  O   UNL     1     107.924 130.903 136.635  0.00  0.00    +0.000 OA
ATOM     25  O   UNL     1     108.711 130.185 137.894  0.00  0.00    +0.000 OA
ATOM     26  O   UNL     1     108.507 130.745 135.099  0.00  0.00    +0.000 OA
ATOM     27  C   UNL     1     108.610 130.464 136.497  0.00  0.00    +0.000 C 
ATOM     28  C   UNL     1     109.003 130.105 137.126  0.00  0.00    +0.000 C 
ATOM     29  C   UNL     1     108.901 130.385 135.729  0.00  0.00    +0.000 C 
ATOM     30  C   UNL     1     109.687 129.666 136.989  0.00  0.00    +0.000 C 
ATOM     31  C   UNL     1     109.585 129.947 135.590  0.00  0.00    +0.000 C 
BRANCH  31  33
ATOM     32  O   UNL     1     110.621 129.537 134.696  0.00  0.00    +0.000 OA
ATOM     33  C   UNL     1     109.876 129.867 134.823  0.00  0.00    +0.000 C 
ENDBRANCH  31  33
ENDBRANCH  22  30
ENDBRANCH   5  22
BRANCH   9  34
ATOM     34  O   UNL     1     110.748 126.670 138.494  0.00  0.00    +0.000 OA
BRANCH  34  42
ATOM     35  O   UNL     1     111.468 126.435 137.283  0.00  0.00    +0.000 OA
ATOM     36  O   UNL     1     111.624 124.029 137.843  0.00  0.00    +0.000 OA
ATOM     37  O   UNL     1     110.852 125.066 138.867  0.00  0.00    +0.000 OA
ATOM     38  O   UNL     1     112.293 124.596 136.445  0.00  0.00    +0.000 OA
ATOM     39  C   UNL     1     111.572 124.831 137.656  0.00  0.00    +0.000 C 
ATOM     40  C   UNL     1     111.186 125.350 138.168  0.00  0.00    +0.000 C 
ATOM     41  C   UNL     1     111.907 125.115 136.957  0.00  0.00    +0.000 C 
ATOM     42  C   UNL     1     111.134 126.152 137.982  0.00  0.00    +0.000 C 
ATOM     43  C   UNL     1     111.855 125.917 136.771  0.00  0.00    +0.000 C 
BRANCH  43  45
ATOM     44  O   UNL     1     111.705 126.493 135.471  0.00  0.00    +0.000 OA
ATOM     45  C   UNL     1     112.189 126.200 136.072  0.00  0.00    +0.000 C 
ENDBRANCH  43  45
ENDBRANCH  34  42
ENDBRANCH   9  34
TORSDOF 8
ENDMDL
MODEL 3
REMARK VINA RESULT:      -9.6      1.017      1.289
REMARK  Name = 44257135
REMARK  8 active torsions:
REMARK  status: ('A' for Active; 'I' for Inactive)
REMARK    1  A    between atoms: O_3  and  C_20
REMARK    2  A    between atoms: O_3  and  C_29
REMARK    3  A    between atoms: O_4  and  C_25
REMARK    4  A    between atoms: O_4  and  C_33
REMARK    5  A    between atoms: C_23  and  C_36
REMARK    6  A    between atoms: C_26  and  C_37
REMARK    7  A    between atoms: C_32  and  C_38
REMARK    8  A    between atoms: C_34  and  C_39
REMARK                            x       y       z     vdW  Elec       q    Type
REMARK                         _______ _______ _______ _____ _____    ______ ____
ROOT
ATOM      1  O   UNL     1     112.200 129.669 135.992  0.00  0.00    +0.000 OA
ATOM      2  O   UNL     1     112.896 127.817 137.356  0.00  0.00    +0.000 OA
ATOM      3  C   UNL     1     111.558 128.623 136.793  0.00  0.00    +0.000 A 
ATOM      4  C   UNL     1     112.326 128.304 137.009  0.00  0.00    +0.000 C 
ATOM      5  C   UNL     1     110.877 128.260 137.083  0.00  0.00    +0.000 A 
ATOM      6  C   UNL     1     113.040 128.677 136.709  0.00  0.00    +0.000 C 
ATOM      7  C   UNL     1     111.497 129.283 136.301  0.00  0.00    +0.000 A 
ATOM      8  C   UNL     1     112.976 129.364 136.197  0.00  0.00    +0.000 C 
ATOM      9  C   UNL     1     110.072 129.217 136.392  0.00  0.00    +0.000 A 
ATOM     10  C   UNL     1     110.134 128.557 136.883  0.00  0.00    +0.000 A 
ATOM     11  C   UNL     1     110.754 129.580 136.101  0.00  0.00    +0.000 A 
ATOM     12  C   UNL     1     110.692 130.239 135.609  0.00  0.00    +0.000 C 
ENDROOT
BRANCH   8  14
ATOM     13  O   UNL     1     115.696 130.824 135.030  0.00  0.00    +0.000 OA
ATOM     14  C   UNL     1     113.656 129.729 135.905  0.00  0.00    +0.000 A 
ATOM     15  C   UNL     1     113.979 129.486 135.186  0.00  0.00    +0.000 A 
ATOM     16  C   UNL     1     114.013 130.338 136.332  0.00  0.00    +0.000 A 
ATOM     17  C   UNL     1     114.659 129.850 134.894  0.00  0.00    +0.000 A 
ATOM     18  C   UNL     1     114.693 130.703 136.040  0.00  0.00    +0.000 A 
ATOM     19  C   UNL     1     115.016 130.458 135.321  0.00  0.00    +0.000 A 
ENDBRANCH   8  14
BRANCH  10  21
ATOM     20  O   UNL     1     109.014 127.693 136.687  0.00  0.00    +0.000 OA
ATOM     21  C   UNL     1     109.452 128.195 137.173  0.00  0.00    +0.000 C 
ENDBRANCH  10  21
BRANCH   5  22
ATOM     22  O   UNL     1     110.938 127.601 137.574  0.00  0.00    +0.000 OA
BRANCH  22  30
ATOM     23  O   UNL     1     110.876 127.490 138.999  0.00  0.00    +0.000 OA
ATOM     24  O   UNL     1     110.852 125.023 138.806  0.00  0.00    +0.000 OA
ATOM     25  O   UNL     1     110.922 125.955 137.447  0.00  0.00    +0.000 OA
ATOM     26  O   UNL     1     110.797 125.734 140.293  0.00  0.00    +0.000 OA
ATOM     27  C   UNL     1     110.860 125.846 138.870  0.00  0.00    +0.000 C 
ATOM     28  C   UNL     1     110.895 126.312 138.190  0.00  0.00    +0.000 C 
ATOM     29  C   UNL     1     110.833 126.201 139.613  0.00  0.00    +0.000 C 
ATOM     30  C   UNL     1     110.903 127.134 138.254  0.00  0.00    +0.000 C 
ATOM     31  C   UNL     1     110.841 127.024 139.678  0.00  0.00    +0.000 C 
BRANCH  31  33
ATOM     32  O   UNL     1     110.782 128.201 140.485  0.00  0.00    +0.000 OA
ATOM     33  C   UNL     1     110.814 127.379 140.422  0.00  0.00    +0.000 C 
ENDBRANCH  31  33
ENDBRANCH  22  30
ENDBRANCH   5  22
BRANCH   9  34
ATOM     34  O   UNL     1     109.329 129.514 136.191  0.00  0.00    +0.000 OA
BRANCH  34  42
ATOM     35  O   UNL     1     109.321 130.368 137.336  0.00  0.00    +0.000 OA
ATOM     36  O   UNL     1     107.502 131.707 136.325  0.00  0.00    +0.000 OA
ATOM     37  O   UNL     1     108.116 130.407 135.517  0.00  0.00    +0.000 OA
ATOM     38  O   UNL     1     108.101 132.114 137.807  0.00  0.00    +0.000 OA
ATOM     39  C   UNL     1     108.108 131.260 136.662  0.00  0.00    +0.000 C 
ATOM     40  C   UNL     1     108.416 130.610 136.258  0.00  0.00    +0.000 C 
ATOM     41  C   UNL     1     108.408 131.464 137.404  0.00  0.00    +0.000 C 
ATOM     42  C   UNL     1     109.022 130.164 136.595  0.00  0.00    +0.000 C 
ATOM     43  C   UNL     1     109.015 131.018 137.741  0.00  0.00    +0.000 C 
BRANCH  43  45
ATOM     44  O   UNL     1     109.134 130.760 139.141  0.00  0.00    +0.000 OA
ATOM     45  C   UNL     1     109.314 131.222 138.481  0.00  0.00    +0.000 C 
ENDBRANCH  43  45
ENDBRANCH  34  42
ENDBRANCH   9  34
TORSDOF 8
ENDMDL
MODEL 4
REMARK VINA RESULT:      -9.5      2.464      4.667
REMARK  Name = 44257135
REMARK  8 active torsions:
REMARK  status: ('A' for Active; 'I' for Inactive)
REMARK    1  A    between atoms: O_3  and  C_20
REMARK    2  A    between atoms: O_3  and  C_29
REMARK    3  A    between atoms: O_4  and  C_25
REMARK    4  A    between atoms: O_4  and  C_33
REMARK    5  A    between atoms: C_23  and  C_36
REMARK    6  A    between atoms: C_26  and  C_37
REMARK    7  A    between atoms: C_32  and  C_38
REMARK    8  A    between atoms: C_34  and  C_39
REMARK                            x       y       z     vdW  Elec       q    Type
REMARK                         _______ _______ _______ _____ _____    ______ ____
ROOT
ATOM      1  O   UNL     1     112.654 126.699 137.968  0.00  0.00    +0.000 OA
ATOM      2  O   UNL     1     111.340 127.155 136.007  0.00  0.00    +0.000 OA
ATOM      3  C   UNL     1     111.440 127.451 137.638  0.00  0.00    +0.000 A 
ATOM      4  C   UNL     1     111.509 127.220 136.813  0.00  0.00    +0.000 C 
ATOM      5  C   UNL     1     110.810 127.931 137.868  0.00  0.00    +0.000 A 
ATOM      6  C   UNL     1     112.163 126.720 136.566  0.00  0.00    +0.000 C 
ATOM      7  C   UNL     1     111.993 127.199 138.196  0.00  0.00    +0.000 A 
ATOM      8  C   UNL     1     112.739 126.459 137.148  0.00  0.00    +0.000 C 
ATOM      9  C   UNL     1     111.285 127.908 139.216  0.00  0.00    +0.000 A 
ATOM     10  C   UNL     1     110.733 128.159 138.658  0.00  0.00    +0.000 A 
ATOM     11  C   UNL     1     111.916 127.428 138.985  0.00  0.00    +0.000 A 
ATOM     12  C   UNL     1     112.469 127.177 139.543  0.00  0.00    +0.000 C 
ENDROOT
BRANCH   8  14
ATOM     13  O   UNL     1     115.265 124.540 136.234  0.00  0.00    +0.000 OA
ATOM     14  C   UNL     1     113.371 125.979 136.919  0.00  0.00    +0.000 A 
ATOM     15  C   UNL     1     113.316 125.159 136.997  0.00  0.00    +0.000 A 
ATOM     16  C   UNL     1     114.057 126.319 136.613  0.00  0.00    +0.000 A 
ATOM     17  C   UNL     1     113.947 124.680 136.769  0.00  0.00    +0.000 A 
ATOM     18  C   UNL     1     114.689 125.839 136.385  0.00  0.00    +0.000 A 
ATOM     19  C   UNL     1     114.633 125.019 136.463  0.00  0.00    +0.000 A 
ENDBRANCH   8  14
BRANCH  10  21
ATOM     20  O   UNL     1     109.453 128.307 139.275  0.00  0.00    +0.000 OA
ATOM     21  C   UNL     1     110.103 128.638 138.889  0.00  0.00    +0.000 C 
ENDBRANCH  10  21
BRANCH   5  22
ATOM     22  O   UNL     1     110.257 128.182 137.311  0.00  0.00    +0.000 OA
BRANCH  22  30
ATOM     23  O   UNL     1     110.134 129.427 136.619  0.00  0.00    +0.000 OA
ATOM     24  O   UNL     1     107.960 128.697 135.689  0.00  0.00    +0.000 OA
ATOM     25  O   UNL     1     108.807 127.695 136.690  0.00  0.00    +0.000 OA
ATOM     26  O   UNL     1     108.562 130.185 135.309  0.00  0.00    +0.000 OA
ATOM     27  C   UNL     1     108.685 128.940 136.000  0.00  0.00    +0.000 C 
ATOM     28  C   UNL     1     109.108 128.439 136.500  0.00  0.00    +0.000 C 
ATOM     29  C   UNL     1     108.986 129.684 135.809  0.00  0.00    +0.000 C 
ATOM     30  C   UNL     1     109.833 128.682 136.810  0.00  0.00    +0.000 C 
ATOM     31  C   UNL     1     109.710 129.928 136.119  0.00  0.00    +0.000 C 
BRANCH  31  33
ATOM     32  O   UNL     1     110.775 130.880 136.161  0.00  0.00    +0.000 OA
ATOM     33  C   UNL     1     110.011 130.672 135.929  0.00  0.00    +0.000 C 
ENDBRANCH  31  33
ENDBRANCH  22  30
ENDBRANCH   5  22
BRANCH   9  34
ATOM     34  O   UNL     1     111.208 128.136 140.005  0.00  0.00    +0.000 OA
BRANCH  34  42
ATOM     35  O   UNL     1     112.023 129.287 139.783  0.00  0.00    +0.000 OA
ATOM     36  O   UNL     1     112.311 129.555 142.227  0.00  0.00    +0.000 OA
ATOM     37  O   UNL     1     111.400 128.314 141.634  0.00  0.00    +0.000 OA
ATOM     38  O   UNL     1     113.031 130.618 141.190  0.00  0.00    +0.000 OA
ATOM     39  C   UNL     1     112.215 129.466 141.412  0.00  0.00    +0.000 C 
ATOM     40  C   UNL     1     111.759 128.845 141.115  0.00  0.00    +0.000 C 
ATOM     41  C   UNL     1     112.575 129.997 140.893  0.00  0.00    +0.000 C 
ATOM     42  C   UNL     1     111.664 128.756 140.301  0.00  0.00    +0.000 C 
ATOM     43  C   UNL     1     112.479 129.908 140.079  0.00  0.00    +0.000 C 
BRANCH  43  45
ATOM     44  O   UNL     1     112.377 130.947 139.103  0.00  0.00    +0.000 OA
ATOM     45  C   UNL     1     112.839 130.440 139.561  0.00  0.00    +0.000 C 
ENDBRANCH  43  45
ENDBRANCH  34  42
ENDBRANCH   9  34
TORSDOF 8
ENDMDL
MODEL 5
REMARK VINA RESULT:      -9.5      2.187      5.621
REMARK  Name = 44257135
REMARK  8 active torsions:
REMARK  status: ('A' for Active; 'I' for Inactive)
REMARK    1  A    between atoms: O_3  and  C_20
REMARK    2  A    between atoms: O_3  and  C_29
REMARK    3  A    between atoms: O_4  and  C_25
REMARK    4  A    between atoms: O_4  and  C_33
REMARK    5  A    between atoms: C_23  and  C_36
REMARK    6  A    between atoms: C_26  and  C_37
REMARK    7  A    between atoms: C_32  and  C_38
REMARK    8  A    between atoms: C_34  and  C_39
REMARK                            x       y       z     vdW  Elec       q    Type
REMARK                         _______ _______ _______ _____ _____    ______ ____
ROOT
ATOM      1  O   UNL     1     112.217 127.899 139.523  0.00  0.00    +0.000 OA
ATOM      2  O   UNL     1     110.560 129.502 138.843  0.00  0.00    +0.000 OA
ATOM      3  C   UNL     1     111.698 128.441 138.264  0.00  0.00    +0.000 A 
ATOM      4  C   UNL     1     111.151 128.945 138.695  0.00  0.00    +0.000 C 
ATOM      5  C   UNL     1     111.703 128.467 137.440  0.00  0.00    +0.000 A 
ATOM      6  C   UNL     1     111.141 128.922 139.554  0.00  0.00    +0.000 C 
ATOM      7  C   UNL     1     112.213 127.936 138.664  0.00  0.00    +0.000 A 
ATOM      8  C   UNL     1     111.677 128.396 139.970  0.00  0.00    +0.000 C 
ATOM      9  C   UNL     1     112.738 127.482 137.414  0.00  0.00    +0.000 A 
ATOM     10  C   UNL     1     112.223 127.988 137.015  0.00  0.00    +0.000 A 
ATOM     11  C   UNL     1     112.733 127.456 138.240  0.00  0.00    +0.000 A 
ATOM     12  C   UNL     1     113.248 126.951 138.639  0.00  0.00    +0.000 C 
ENDROOT
BRANCH   8  14
ATOM     13  O   UNL     1     111.666 128.284 143.269  0.00  0.00    +0.000 OA
ATOM     14  C   UNL     1     111.674 128.368 140.795  0.00  0.00    +0.000 A 
ATOM     15  C   UNL     1     111.171 127.847 141.189  0.00  0.00    +0.000 A 
ATOM     16  C   UNL     1     112.175 128.861 141.226  0.00  0.00    +0.000 A 
ATOM     17  C   UNL     1     111.168 127.818 142.014  0.00  0.00    +0.000 A 
ATOM     18  C   UNL     1     112.172 128.833 142.051  0.00  0.00    +0.000 A 
ATOM     19  C   UNL     1     111.668 128.312 142.444  0.00  0.00    +0.000 A 
ENDBRANCH   8  14
BRANCH  10  21
ATOM     20  O   UNL     1     112.831 128.416 135.795  0.00  0.00    +0.000 OA
ATOM     21  C   UNL     1     112.228 128.013 136.191  0.00  0.00    +0.000 C 
ENDBRANCH  10  21
BRANCH   5  22
ATOM     22  O   UNL     1     111.188 128.972 137.040  0.00  0.00    +0.000 OA
BRANCH  22  30
ATOM     23  O   UNL     1     109.936 128.708 136.402  0.00  0.00    +0.000 OA
ATOM     24  O   UNL     1     109.913 131.011 135.495  0.00  0.00    +0.000 OA
ATOM     25  O   UNL     1     111.172 130.508 136.435  0.00  0.00    +0.000 OA
ATOM     26  O   UNL     1     108.669 129.980 135.160  0.00  0.00    +0.000 OA
ATOM     27  C   UNL     1     109.921 130.243 135.798  0.00  0.00    +0.000 C 
ATOM     28  C   UNL     1     110.550 129.991 136.267  0.00  0.00    +0.000 C 
ATOM     29  C   UNL     1     109.299 129.727 135.630  0.00  0.00    +0.000 C 
ATOM     30  C   UNL     1     110.558 129.224 136.570  0.00  0.00    +0.000 C 
ATOM     31  C   UNL     1     109.306 128.960 135.932  0.00  0.00    +0.000 C 
BRANCH  31  33
ATOM     32  O   UNL     1     108.528 127.810 136.267  0.00  0.00    +0.000 OA
ATOM     33  C   UNL     1     108.685 128.445 135.764  0.00  0.00    +0.000 C 
ENDBRANCH  31  33
ENDBRANCH  22  30
ENDBRANCH   5  22
BRANCH   9  34
ATOM     34  O   UNL     1     113.258 127.003 136.990  0.00  0.00    +0.000 OA
BRANCH  34  42
ATOM     35  O   UNL     1     112.292 125.954 136.911  0.00  0.00    +0.000 OA
ATOM     36  O   UNL     1     114.086 124.343 136.355  0.00  0.00    +0.000 OA
ATOM     37  O   UNL     1     114.454 125.929 136.619  0.00  0.00    +0.000 OA
ATOM     38  O   UNL     1     112.522 123.831 136.462  0.00  0.00    +0.000 OA
ATOM     39  C   UNL     1     113.488 124.880 136.540  0.00  0.00    +0.000 C 
ATOM     40  C   UNL     1     113.672 125.674 136.672  0.00  0.00    +0.000 C 
ATOM     41  C   UNL     1     112.705 124.624 136.594  0.00  0.00    +0.000 C 
ATOM     42  C   UNL     1     113.074 126.211 136.858  0.00  0.00    +0.000 C 
ATOM     43  C   UNL     1     112.107 125.161 136.779  0.00  0.00    +0.000 C 
BRANCH  43  45
ATOM     44  O   UNL     1     110.772 125.147 136.271  0.00  0.00    +0.000 OA
ATOM     45  C   UNL     1     111.325 124.905 136.833  0.00  0.00    +0.000 C 
ENDBRANCH  43  45
ENDBRANCH  34  42
ENDBRANCH   9  34
TORSDOF 8
ENDMDL
MODEL 6
REMARK VINA RESULT:      -9.5      2.391      3.375
REMARK  Name = 44257135
REMARK  8 active torsions:
REMARK  status: ('A' for Active; 'I' for Inactive)
REMARK    1  A    between atoms: O_3  and  C_20
REMARK    2  A    between atoms: O_3  and  C_29
REMARK    3  A    between atoms: O_4  and  C_25
REMARK    4  A    between atoms: O_4  and  C_33
REMARK    5  A    between atoms: C_23  and  C_36
REMARK    6  A    between atoms: C_26  and  C_37
REMARK    7  A    between atoms: C_32  and  C_38
REMARK    8  A    between atoms: C_34  and  C_39
REMARK                            x       y       z     vdW  Elec       q    Type
REMARK                         _______ _______ _______ _____ _____    ______ ____
ROOT
ATOM      1  O   UNL     1     112.142 129.259 138.817  0.00  0.00    +0.000 OA
ATOM      2  O   UNL     1     113.445 127.243 138.937  0.00  0.00    +0.000 OA
ATOM      3  C   UNL     1     112.530 128.173 137.911  0.00  0.00    +0.000 A 
ATOM      4  C   UNL     1     112.972 127.793 138.541  0.00  0.00    +0.000 C 
ATOM      5  C   UNL     1     112.510 127.821 137.166  0.00  0.00    +0.000 A 
ATOM      6  C   UNL     1     112.997 128.154 139.321  0.00  0.00    +0.000 C 
ATOM      7  C   UNL     1     112.128 128.882 138.044  0.00  0.00    +0.000 A 
ATOM      8  C   UNL     1     112.579 128.892 139.459  0.00  0.00    +0.000 C 
ATOM      9  C   UNL     1     111.687 128.886 136.684  0.00  0.00    +0.000 A 
ATOM     10  C   UNL     1     112.089 128.177 136.553  0.00  0.00    +0.000 A 
ATOM     11  C   UNL     1     111.707 129.238 137.431  0.00  0.00    +0.000 A 
ATOM     12  C   UNL     1     111.305 129.946 137.563  0.00  0.00    +0.000 C 
ENDROOT
BRANCH   8  14
ATOM     13  O   UNL     1     112.651 130.309 142.439  0.00  0.00    +0.000 OA
ATOM     14  C   UNL     1     112.597 129.247 140.204  0.00  0.00    +0.000 A 
ATOM     15  C   UNL     1     113.186 129.794 140.386  0.00  0.00    +0.000 A 
ATOM     16  C   UNL     1     112.026 129.053 140.766  0.00  0.00    +0.000 A 
ATOM     17  C   UNL     1     113.205 130.149 141.131  0.00  0.00    +0.000 A 
ATOM     18  C   UNL     1     112.044 129.408 141.511  0.00  0.00    +0.000 A 
ATOM     19  C   UNL     1     112.634 129.955 141.693  0.00  0.00    +0.000 A 
ENDBRANCH   8  14
BRANCH  10  21
ATOM     20  O   UNL     1     112.529 128.132 135.194  0.00  0.00    +0.000 OA
ATOM     21  C   UNL     1     112.068 127.826 135.807  0.00  0.00    +0.000 C 
ENDBRANCH  10  21
BRANCH   5  22
ATOM     22  O   UNL     1     112.911 127.113 137.033  0.00  0.00    +0.000 OA
BRANCH  22  30
ATOM     23  O   UNL     1     112.436 125.765 137.010  0.00  0.00    +0.000 OA
ATOM     24  O   UNL     1     114.647 124.998 136.207  0.00  0.00    +0.000 OA
ATOM     25  O   UNL     1     114.386 126.601 136.497  0.00  0.00    +0.000 OA
ATOM     26  O   UNL     1     113.435 123.907 136.452  0.00  0.00    +0.000 OA
ATOM     27  C   UNL     1     113.910 125.254 136.475  0.00  0.00    +0.000 C 
ATOM     28  C   UNL     1     113.779 126.056 136.620  0.00  0.00    +0.000 C 
ATOM     29  C   UNL     1     113.303 124.709 136.598  0.00  0.00    +0.000 C 
ATOM     30  C   UNL     1     113.043 126.312 136.888  0.00  0.00    +0.000 C 
ATOM     31  C   UNL     1     112.566 124.964 136.865  0.00  0.00    +0.000 C 
BRANCH  31  33
ATOM     32  O   UNL     1     111.270 124.649 137.377  0.00  0.00    +0.000 OA
ATOM     33  C   UNL     1     111.960 124.418 136.988  0.00  0.00    +0.000 C 
ENDBRANCH  31  33
ENDBRANCH  22  30
ENDBRANCH   5  22
BRANCH   9  34
ATOM     34  O   UNL     1     111.265 129.242 136.071  0.00  0.00    +0.000 OA
BRANCH  34  42
ATOM     35  O   UNL     1     110.122 128.413 136.285  0.00  0.00    +0.000 OA
ATOM     36  O   UNL     1     108.687 130.113 135.201  0.00  0.00    +0.000 OA
ATOM     37  O   UNL     1     110.308 130.375 135.348  0.00  0.00    +0.000 OA
ATOM     38  O   UNL     1     108.022 128.716 135.776  0.00  0.00    +0.000 OA
ATOM     39  C   UNL     1     109.165 129.546 135.562  0.00  0.00    +0.000 C 
ATOM     40  C   UNL     1     109.976 129.677 135.636  0.00  0.00    +0.000 C 
ATOM     41  C   UNL     1     108.833 128.847 135.850  0.00  0.00    +0.000 C 
ATOM     42  C   UNL     1     110.455 129.110 135.998  0.00  0.00    +0.000 C 
ATOM     43  C   UNL     1     109.311 128.281 136.212  0.00  0.00    +0.000 C 
BRANCH  43  45
ATOM     44  O   UNL     1     108.920 127.458 137.313  0.00  0.00    +0.000 OA
ATOM     45  C   UNL     1     108.979 127.583 136.499  0.00  0.00    +0.000 C 
ENDBRANCH  43  45
ENDBRANCH  34  42
ENDBRANCH   9  34
TORSDOF 8
ENDMDL
MODEL 7
REMARK VINA RESULT:      -9.5      2.273      4.259
REMARK  Name = 44257135
REMARK  8 active torsions:
REMARK  status: ('A' for Active; 'I' for Inactive)
REMARK    1  A    between atoms: O_3  and  C_20
REMARK    2  A    between atoms: O_3  and  C_29
REMARK    3  A    between atoms: O_4  and  C_25
REMARK    4  A    between atoms: O_4  and  C_33
REMARK    5  A    between atoms: C_23  and  C_36
REMARK    6  A    between atoms: C_26  and  C_37
REMARK    7  A    between atoms: C_32  and  C_38
REMARK    8  A    between atoms: C_34  and  C_39
REMARK                            x       y       z     vdW  Elec       q    Type
REMARK                         _______ _______ _______ _____ _____    ______ ____
ROOT
ATOM      1  O   UNL     1     112.111 127.168 136.669  0.00  0.00    +0.000 OA
ATOM      2  O   UNL     1     113.469 127.597 138.605  0.00  0.00    +0.000 OA
ATOM      3  C   UNL     1     112.556 128.337 137.433  0.00  0.00    +0.000 A 
ATOM      4  C   UNL     1     112.991 127.831 137.973  0.00  0.00    +0.000 C 
ATOM      5  C   UNL     1     112.567 129.153 137.551  0.00  0.00    +0.000 A 
ATOM      6  C   UNL     1     112.984 126.979 137.856  0.00  0.00    +0.000 C 
ATOM      7  C   UNL     1     112.130 128.017 136.803  0.00  0.00    +0.000 A 
ATOM      8  C   UNL     1     112.540 126.646 137.199  0.00  0.00    +0.000 C 
ATOM      9  C   UNL     1     111.727 129.331 136.409  0.00  0.00    +0.000 A 
ATOM     10  C   UNL     1     112.153 129.650 137.039  0.00  0.00    +0.000 A 
ATOM     11  C   UNL     1     111.716 128.514 136.291  0.00  0.00    +0.000 A 
ATOM     12  C   UNL     1     111.290 128.195 135.661  0.00  0.00    +0.000 C 
ENDROOT
BRANCH   8  14
ATOM     13  O   UNL     1     112.487 123.381 136.718  0.00  0.00    +0.000 OA
ATOM     14  C   UNL     1     112.527 125.830 137.079  0.00  0.00    +0.000 A 
ATOM     15  C   UNL     1     113.128 125.466 136.646  0.00  0.00    +0.000 A 
ATOM     16  C   UNL     1     111.913 125.377 137.391  0.00  0.00    +0.000 A 
ATOM     17  C   UNL     1     113.115 124.650 136.525  0.00  0.00    +0.000 A 
ATOM     18  C   UNL     1     111.900 124.561 137.270  0.00  0.00    +0.000 A 
ATOM     19  C   UNL     1     112.501 124.198 136.837  0.00  0.00    +0.000 A 
ENDBRANCH   8  14
BRANCH  10  21
ATOM     20  O   UNL     1     112.639 130.945 136.681  0.00  0.00    +0.000 OA
ATOM     21  C   UNL     1     112.164 130.466 137.157  0.00  0.00    +0.000 C 
ENDBRANCH  10  21
BRANCH   5  22
ATOM     22  O   UNL     1     112.993 129.473 138.181  0.00  0.00    +0.000 OA
BRANCH  22  30
ATOM     23  O   UNL     1     112.580 129.823 139.505  0.00  0.00    +0.000 OA
ATOM     24  O   UNL     1     114.769 130.906 139.902  0.00  0.00    +0.000 OA
ATOM     25  O   UNL     1     114.453 130.196 138.447  0.00  0.00    +0.000 OA
ATOM     26  O   UNL     1     113.626 130.894 141.092  0.00  0.00    +0.000 OA
ATOM     27  C   UNL     1     114.039 130.544 139.769  0.00  0.00    +0.000 C 
ATOM     28  C   UNL     1     113.881 130.189 139.042  0.00  0.00    +0.000 C 
ATOM     29  C   UNL     1     113.468 130.539 140.364  0.00  0.00    +0.000 C 
ATOM     30  C   UNL     1     113.151 129.828 138.909  0.00  0.00    +0.000 C 
ATOM     31  C   UNL     1     112.738 130.178 140.232  0.00  0.00    +0.000 C 
BRANCH  31  33
ATOM     32  O   UNL     1     111.408 129.891 140.667  0.00  0.00    +0.000 OA
ATOM     33  C   UNL     1     112.166 130.172 140.827  0.00  0.00    +0.000 C 
ENDBRANCH  31  33
ENDBRANCH  22  30
ENDBRANCH   5  22
BRANCH   9  34
ATOM     34  O   UNL     1     111.313 129.827 135.897  0.00  0.00    +0.000 OA
BRANCH  34  42
ATOM     35  O   UNL     1     110.188 129.915 136.772  0.00  0.00    +0.000 OA
ATOM     36  O   UNL     1     108.730 130.451 134.845  0.00  0.00    +0.000 OA
ATOM     37  O   UNL     1     110.341 130.185 134.612  0.00  0.00    +0.000 OA
ATOM     38  O   UNL     1     108.090 130.360 136.363  0.00  0.00    +0.000 OA
ATOM     39  C   UNL     1     109.216 130.272 135.487  0.00  0.00    +0.000 C 
ATOM     40  C   UNL     1     110.022 130.139 135.371  0.00  0.00    +0.000 C 
ATOM     41  C   UNL     1     108.896 130.226 136.247  0.00  0.00    +0.000 C 
ATOM     42  C   UNL     1     110.508 129.960 136.014  0.00  0.00    +0.000 C 
ATOM     43  C   UNL     1     109.382 130.048 136.889  0.00  0.00    +0.000 C 
BRANCH  43  45
ATOM     44  O   UNL     1     109.023 129.275 138.037  0.00  0.00    +0.000 OA
ATOM     45  C   UNL     1     109.062 130.002 137.648  0.00  0.00    +0.000 C 
ENDBRANCH  43  45
ENDBRANCH  34  42
ENDBRANCH   9  34
TORSDOF 8
ENDMDL
MODEL 8
REMARK VINA RESULT:      -9.4      2.371      3.136
REMARK  Name = 44257135
REMARK  8 active torsions:
REMARK  status: ('A' for Active; 'I' for Inactive)
REMARK    1  A    between atoms: O_3  and  C_20
REMARK    2  A    between atoms: O_3  and  C_29
REMARK    3  A    between atoms: O_4  and  C_25
REMARK    4  A    between atoms: O_4  and  C_33
REMARK    5  A    between atoms: C_23  and  C_36
REMARK    6  A    between atoms: C_26  and  C_37
REMARK    7  A    between atoms: C_32  and  C_38
REMARK    8  A    between atoms: C_34  and  C_39
REMARK                            x       y       z     vdW  Elec       q    Type
REMARK                         _______ _______ _______ _____ _____    ______ ____
ROOT
ATOM      1  O   UNL     1     112.279 129.827 139.454  0.00  0.00    +0.000 OA
ATOM      2  O   UNL     1     113.127 127.592 139.197  0.00  0.00    +0.000 OA
ATOM      3  C   UNL     1     111.786 128.540 138.952  0.00  0.00    +0.000 A 
ATOM      4  C   UNL     1     112.541 128.171 139.131  0.00  0.00    +0.000 C 
ATOM      5  C   UNL     1     111.185 128.085 138.620  0.00  0.00    +0.000 A 
ATOM      6  C   UNL     1     113.172 128.640 139.478  0.00  0.00    +0.000 C 
ATOM      7  C   UNL     1     111.660 129.341 139.108  0.00  0.00    +0.000 A 
ATOM      8  C   UNL     1     113.040 129.473 139.640  0.00  0.00    +0.000 C 
ATOM      9  C   UNL     1     110.329 129.229 138.599  0.00  0.00    +0.000 A 
ATOM     10  C   UNL     1     110.456 128.429 138.444  0.00  0.00    +0.000 A 
ATOM     11  C   UNL     1     110.931 129.685 138.932  0.00  0.00    +0.000 A 
ATOM     12  C   UNL     1     110.804 130.485 139.088  0.00  0.00    +0.000 C 
ENDROOT
BRANCH   8  14
ATOM     13  O   UNL     1     115.441 131.307 140.970  0.00  0.00    +0.000 OA
ATOM     14  C   UNL     1     113.640 129.932 139.972  0.00  0.00    +0.000 A 
ATOM     15  C   UNL     1     114.181 130.321 139.485  0.00  0.00    +0.000 A 
ATOM     16  C   UNL     1     113.700 130.001 140.792  0.00  0.00    +0.000 A 
ATOM     17  C   UNL     1     114.781 130.779 139.818  0.00  0.00    +0.000 A 
ATOM     18  C   UNL     1     114.300 130.460 141.124  0.00  0.00    +0.000 A 
ATOM     19  C   UNL     1     114.840 130.848 140.637  0.00  0.00    +0.000 A 
ENDBRANCH   8  14
BRANCH  10  21
ATOM     20  O   UNL     1     109.218 127.728 138.577  0.00  0.00    +0.000 OA
ATOM     21  C   UNL     1     109.854 127.974 138.111  0.00  0.00    +0.000 C 
ENDBRANCH  10  21
BRANCH   5  22
ATOM     22  O   UNL     1     111.311 127.285 138.464  0.00  0.00    +0.000 OA
BRANCH  22  30
ATOM     23  O   UNL     1     111.570 126.602 137.235  0.00  0.00    +0.000 OA
ATOM     24  O   UNL     1     111.305 124.428 138.386  0.00  0.00    +0.000 OA
ATOM     25  O   UNL     1     111.135 125.834 139.231  0.00  0.00    +0.000 OA
ATOM     26  O   UNL     1     111.652 124.471 136.774  0.00  0.00    +0.000 OA
ATOM     27  C   UNL     1     111.394 125.153 138.002  0.00  0.00    +0.000 C 
ATOM     28  C   UNL     1     111.308 125.857 138.425  0.00  0.00    +0.000 C 
ATOM     29  C   UNL     1     111.567 125.175 137.196  0.00  0.00    +0.000 C 
ATOM     30  C   UNL     1     111.396 126.581 138.042  0.00  0.00    +0.000 C 
ATOM     31  C   UNL     1     111.655 125.899 136.812  0.00  0.00    +0.000 C 
BRANCH  31  33
ATOM     32  O   UNL     1     111.958 126.644 135.631  0.00  0.00    +0.000 OA
ATOM     33  C   UNL     1     111.828 125.921 136.006  0.00  0.00    +0.000 C 
ENDBRANCH  31  33
ENDBRANCH  22  30
ENDBRANCH   5  22
BRANCH   9  34
ATOM     34  O   UNL     1     109.600 129.573 138.423  0.00  0.00    +0.000 OA
BRANCH  34  42
ATOM     35  O   UNL     1     110.035 129.929 137.110  0.00  0.00    +0.000 OA
ATOM     36  O   UNL     1     108.208 131.591 136.955  0.00  0.00    +0.000 OA
ATOM     37  O   UNL     1     108.382 130.681 138.320  0.00  0.00    +0.000 OA
ATOM     38  O   UNL     1     109.252 131.393 135.693  0.00  0.00    +0.000 OA
ATOM     39  C   UNL     1     108.817 131.037 137.007  0.00  0.00    +0.000 C 
ATOM     40  C   UNL     1     108.904 130.582 137.689  0.00  0.00    +0.000 C 
ATOM     41  C   UNL     1     109.340 130.938 136.375  0.00  0.00    +0.000 C 
ATOM     42  C   UNL     1     109.513 130.028 137.741  0.00  0.00    +0.000 C 
ATOM     43  C   UNL     1     109.949 130.384 136.427  0.00  0.00    +0.000 C 
BRANCH  43  45
ATOM     44  O   UNL     1     110.464 129.585 135.360  0.00  0.00    +0.000 OA
ATOM     45  C   UNL     1     110.471 130.285 135.797  0.00  0.00    +0.000 C 
ENDBRANCH  43  45
ENDBRANCH  34  42
ENDBRANCH   9  34
TORSDOF 8
ENDMDL
MODEL 9
REMARK VINA RESULT:      -9.4      2.251      3.238
REMARK  Name = 44257135
REMARK  8 active torsions:
REMARK  status: ('A' for Active; 'I' for Inactive)
REMARK    1  A    between atoms: O_3  and  C_20
REMARK    2  A    between atoms: O_3  and  C_29
REMARK    3  A    between atoms: O_4  and  C_25
REMARK    4  A    between atoms: O_4  and  C_33
REMARK    5  A    between atoms: C_23  and  C_36
REMARK    6  A    between atoms: C_26  and  C_37
REMARK    7  A    between atoms: C_32  and  C_38
REMARK    8  A    between atoms: C_34  and  C_39
REMARK                            x       y       z     vdW  Elec       q    Type
REMARK                         _______ _______ _______ _____ _____    ______ ____
ROOT
ATOM      1  O   UNL     1     112.400 129.796 136.535  0.00  0.00    +0.000 OA
ATOM      2  O   UNL     1     113.306 129.547 138.747  0.00  0.00    +0.000 OA
ATOM      3  C   UNL     1     111.892 129.505 137.879  0.00  0.00    +0.000 A 
ATOM      4  C   UNL     1     112.686 129.556 138.201  0.00  0.00    +0.000 C 
ATOM      5  C   UNL     1     111.263 129.337 138.386  0.00  0.00    +0.000 A 
ATOM      6  C   UNL     1     113.346 129.730 137.678  0.00  0.00    +0.000 C 
ATOM      7  C   UNL     1     111.753 129.621 137.074  0.00  0.00    +0.000 A 
ATOM      8  C   UNL     1     113.201 129.851 136.840  0.00  0.00    +0.000 C 
ATOM      9  C   UNL     1     110.356 129.401 137.284  0.00  0.00    +0.000 A 
ATOM     10  C   UNL     1     110.496 129.286 138.088  0.00  0.00    +0.000 A 
ATOM     11  C   UNL     1     110.986 129.569 136.776  0.00  0.00    +0.000 A 
ATOM     12  C   UNL     1     110.846 129.685 135.971  0.00  0.00    +0.000 C 
ENDROOT
BRANCH   8  14
ATOM     13  O   UNL     1     115.710 130.520 134.802  0.00  0.00    +0.000 OA
ATOM     14  C   UNL     1     113.828 130.018 136.330  0.00  0.00    +0.000 A 
ATOM     15  C   UNL     1     114.114 130.790 136.266  0.00  0.00    +0.000 A 
ATOM     16  C   UNL     1     114.170 129.414 135.884  0.00  0.00    +0.000 A 
ATOM     17  C   UNL     1     114.741 130.957 135.757  0.00  0.00    +0.000 A 
ATOM     18  C   UNL     1     114.797 129.582 135.375  0.00  0.00    +0.000 A 
ATOM     19  C   UNL     1     115.082 130.354 135.312  0.00  0.00    +0.000 A 
ENDBRANCH   8  14
BRANCH  10  21
ATOM     20  O   UNL     1     109.516 128.371 138.583  0.00  0.00    +0.000 OA
ATOM     21  C   UNL     1     109.867 129.118 138.595  0.00  0.00    +0.000 C 
ENDBRANCH  10  21
BRANCH   5  22
ATOM     22  O   UNL     1     111.402 129.221 139.190  0.00  0.00    +0.000 OA
BRANCH  22  30
ATOM     23  O   UNL     1     111.174 130.083 140.308  0.00  0.00    +0.000 OA
ATOM     24  O   UNL     1     111.735 128.232 141.851  0.00  0.00    +0.000 OA
ATOM     25  O   UNL     1     111.776 127.987 140.221  0.00  0.00    +0.000 OA
ATOM     26  O   UNL     1     111.320 129.710 142.453  0.00  0.00    +0.000 OA
ATOM     27  C   UNL     1     111.548 128.849 141.336  0.00  0.00    +0.000 C 
ATOM     28  C   UNL     1     111.569 128.727 140.521  0.00  0.00    +0.000 C 
ATOM     29  C   UNL     1     111.341 129.589 141.637  0.00  0.00    +0.000 C 
ATOM     30  C   UNL     1     111.382 129.343 140.007  0.00  0.00    +0.000 C 
ATOM     31  C   UNL     1     111.153 130.206 141.124  0.00  0.00    +0.000 C 
BRANCH  31  33
ATOM     32  O   UNL     1     110.859 131.588 140.916  0.00  0.00    +0.000 OA
ATOM     33  C   UNL     1     110.946 130.945 141.425  0.00  0.00    +0.000 C 
ENDBRANCH  31  33
ENDBRANCH  22  30
ENDBRANCH   5  22
BRANCH   9  34
ATOM     34  O   UNL     1     109.589 129.350 136.986  0.00  0.00    +0.000 OA
BRANCH  34  42
ATOM     35  O   UNL     1     109.315 130.731 137.226  0.00  0.00    +0.000 OA
ATOM     36  O   UNL     1     107.617 130.708 135.426  0.00  0.00    +0.000 OA
ATOM     37  O   UNL     1     108.457 129.335 135.785  0.00  0.00    +0.000 OA
ATOM     38  O   UNL     1     107.910 132.097 136.267  0.00  0.00    +0.000 OA
ATOM     39  C   UNL     1     108.183 130.715 136.026  0.00  0.00    +0.000 C 
ATOM     40  C   UNL     1     108.603 130.029 136.206  0.00  0.00    +0.000 C 
ATOM     41  C   UNL     1     108.330 131.411 136.447  0.00  0.00    +0.000 C 
ATOM     42  C   UNL     1     109.169 130.036 136.806  0.00  0.00    +0.000 C 
ATOM     43  C   UNL     1     108.896 131.418 137.047  0.00  0.00    +0.000 C 
BRANCH  43  45
ATOM     44  O   UNL     1     108.857 132.156 138.270  0.00  0.00    +0.000 OA
ATOM     45  C   UNL     1     109.042 132.112 137.467  0.00  0.00    +0.000 C 
ENDBRANCH  43  45
ENDBRANCH  34  42
ENDBRANCH   9  34
TORSDOF 8
ENDMDL
MODEL 10
REMARK VINA RESULT:      -9.4      1.928      3.963
REMARK  Name = 44257135
REMARK  8 active torsions:
REMARK  status: ('A' for Active; 'I' for Inactive)
REMARK    1  A    between atoms: O_3  and  C_20
REMARK    2  A    between atoms: O_3  and  C_29
REMARK    3  A    between atoms: O_4  and  C_25
REMARK    4  A    between atoms: O_4  and  C_33
REMARK    5  A    between atoms: C_23  and  C_36
REMARK    6  A    between atoms: C_26  and  C_37
REMARK    7  A    between atoms: C_32  and  C_38
REMARK    8  A    between atoms: C_34  and  C_39
REMARK                            x       y       z     vdW  Elec       q    Type
REMARK                         _______ _______ _______ _____ _____    ______ ____
ROOT
ATOM      1  O   UNL     1     110.602 130.244 136.219  0.00  0.00    +0.000 OA
ATOM      2  O   UNL     1     109.774 128.026 135.803  0.00  0.00    +0.000 OA
ATOM      3  C   UNL     1     111.080 128.868 136.388  0.00  0.00    +0.000 A 
ATOM      4  C   UNL     1     110.345 128.563 136.063  0.00  0.00    +0.000 C 
ATOM      5  C   UNL     1     111.665 128.338 136.625  0.00  0.00    +0.000 A 
ATOM      6  C   UNL     1     109.731 129.110 135.813  0.00  0.00    +0.000 C 
ATOM      7  C   UNL     1     111.203 129.681 136.463  0.00  0.00    +0.000 A 
ATOM      8  C   UNL     1     109.861 129.956 135.892  0.00  0.00    +0.000 C 
ATOM      9  C   UNL     1     112.499 129.431 137.014  0.00  0.00    +0.000 A 
ATOM     10  C   UNL     1     112.374 128.620 136.938  0.00  0.00    +0.000 A 
ATOM     11  C   UNL     1     111.913 129.962 136.776  0.00  0.00    +0.000 A 
ATOM     12  C   UNL     1     112.038 130.774 136.851  0.00  0.00    +0.000 C 
ENDROOT
BRANCH   8  14
ATOM     13  O   UNL     1     107.526 132.088 134.945  0.00  0.00    +0.000 OA
ATOM     14  C   UNL     1     109.277 130.489 135.655  0.00  0.00    +0.000 A 
ATOM     15  C   UNL     1     109.310 130.832 134.905  0.00  0.00    +0.000 A 
ATOM     16  C   UNL     1     108.660 130.680 136.168  0.00  0.00    +0.000 A 
ATOM     17  C   UNL     1     108.727 131.365 134.668  0.00  0.00    +0.000 A 
ATOM     18  C   UNL     1     108.076 131.213 135.931  0.00  0.00    +0.000 A 
ATOM     19  C   UNL     1     108.110 131.555 135.181  0.00  0.00    +0.000 A 
ENDBRANCH   8  14
BRANCH  10  21
ATOM     20  O   UNL     1     113.618 127.960 136.696  0.00  0.00    +0.000 OA
ATOM     21  C   UNL     1     112.960 128.090 137.176  0.00  0.00    +0.000 C 
ENDBRANCH  10  21
BRANCH   5  22
ATOM     22  O   UNL     1     111.541 127.526 136.550  0.00  0.00    +0.000 OA
BRANCH  22  30
ATOM     23  O   UNL     1     111.222 126.535 137.530  0.00  0.00    +0.000 OA
ATOM     24  O   UNL     1     111.585 124.756 135.849  0.00  0.00    +0.000 OA
ATOM     25  O   UNL     1     111.783 126.339 135.429  0.00  0.00    +0.000 OA
ATOM     26  O   UNL     1     111.146 124.359 137.388  0.00  0.00    +0.000 OA
ATOM     27  C   UNL     1     111.464 125.350 136.409  0.00  0.00    +0.000 C 
ATOM     28  C   UNL     1     111.563 126.141 136.200  0.00  0.00    +0.000 C 
ATOM     29  C   UNL     1     111.244 125.151 137.179  0.00  0.00    +0.000 C 
ATOM     30  C   UNL     1     111.442 126.734 136.759  0.00  0.00    +0.000 C 
ATOM     31  C   UNL     1     111.123 125.744 137.740  0.00  0.00    +0.000 C 
BRANCH  31  33
ATOM     32  O   UNL     1     110.546 126.108 138.995  0.00  0.00    +0.000 OA
ATOM     33  C   UNL     1     110.903 125.545 138.509  0.00  0.00    +0.000 C 
ENDBRANCH  31  33
ENDBRANCH  22  30
ENDBRANCH   5  22
BRANCH   9  34
ATOM     34  O   UNL     1     113.208 129.713 137.327  0.00  0.00    +0.000 OA
BRANCH  34  42
ATOM     35  O   UNL     1     112.667 129.679 138.648  0.00  0.00    +0.000 OA
ATOM     36  O   UNL     1     114.556 131.057 139.458  0.00  0.00    +0.000 OA
ATOM     37  O   UNL     1     114.468 130.632 137.867  0.00  0.00    +0.000 OA
ATOM     38  O   UNL     1     113.384 130.564 140.510  0.00  0.00    +0.000 OA
ATOM     39  C   UNL     1     113.926 130.598 139.188  0.00  0.00    +0.000 C 
ATOM     40  C   UNL     1     113.882 130.385 138.392  0.00  0.00    +0.000 C 
ATOM     41  C   UNL     1     113.340 130.351 139.714  0.00  0.00    +0.000 C 
ATOM     42  C   UNL     1     113.252 129.926 138.122  0.00  0.00    +0.000 C 
ATOM     43  C   UNL     1     112.710 129.892 139.444  0.00  0.00    +0.000 C 
BRANCH  43  45
ATOM     44  O   UNL     1     112.072 128.852 140.188  0.00  0.00    +0.000 OA
ATOM     45  C   UNL     1     112.125 129.646 139.970  0.00  0.00    +0.000 C 
ENDBRANCH  43  45
ENDBRANCH  34  42
ENDBRANCH   9  34
TORSDOF 8
ENDMDL
