MODEL 1
REMARK VINA RESULT:     -11.1      0.000      0.000
REMARK  Name = 44257995
REMARK  9 active torsions:
REMARK  status: ('A' for Active; 'I' for Inactive)
REMARK    1  A    between atoms: O_1  and  C_20
REMARK    2  A    between atoms: O_1  and  C_25
REMARK    3  A    between atoms: O_4  and  C_24
REMARK    4  A    between atoms: O_4  and  C_33
REMARK    5  A    between atoms: O_13  and  C_36
REMARK    6  A    between atoms: O_13  and  C_38
REMARK    7  A    between atoms: O_19  and  C_52
REMARK    8  A    between atoms: C_28  and  C_33
REMARK    9  A    between atoms: C_39  and  C_42
REMARK                            x       y       z     vdW  Elec       q    Type
REMARK                         _______ _______ _______ _____ _____    ______ ____
ROOT
ATOM      1  O   UNL     1     111.823 126.346 136.722  0.00  0.00    +0.000 OA
ATOM      2  O   UNL     1     110.932 124.767 135.504  0.00  0.00    +0.000 OA
ATOM      3  O   UNL     1     112.118 123.927 136.286  0.00  0.00    +0.000 OA
ATOM      4  O   UNL     1     113.107 124.698 137.358  0.00  0.00    +0.000 OA
ATOM      5  C   UNL     1     111.328 125.960 136.186  0.00  0.00    +0.000 C 
ATOM      6  C   UNL     1     111.427 125.153 136.040  0.00  0.00    +0.000 C 
ATOM      7  C   UNL     1     112.019 124.734 136.431  0.00  0.00    +0.000 C 
ATOM      8  C   UNL     1     112.514 125.119 136.967  0.00  0.00    +0.000 C 
ATOM      9  C   UNL     1     112.416 125.925 137.112  0.00  0.00    +0.000 C 
ENDROOT
BRANCH   9  10
ATOM     10  O   UNL     1     112.910 126.311 137.648  0.00  0.00    +0.000 OA
BRANCH  10  15
ATOM     11  O   UNL     1     112.969 128.440 138.127  0.00  0.00    +0.000 OA
ATOM     12  O   UNL     1     113.580 126.922 136.270  0.00  0.00    +0.000 OA
ATOM     13  O   UNL     1     114.058 128.033 135.482  0.00  0.00    +0.000 OA
ATOM     14  O   UNL     1     113.915 130.729 136.594  0.00  0.00    +0.000 OA
ATOM     15  C   UNL     1     113.041 127.123 137.578  0.00  0.00    +0.000 A 
ATOM     16  C   UNL     1     112.838 127.629 138.197  0.00  0.00    +0.000 A 
ATOM     17  C   UNL     1     113.376 127.428 136.889  0.00  0.00    +0.000 A 
ATOM     18  C   UNL     1     113.508 128.240 136.819  0.00  0.00    +0.000 A 
ATOM     19  C   UNL     1     113.304 128.746 137.438  0.00  0.00    +0.000 A 
ATOM     20  C   UNL     1     113.857 128.546 136.096  0.00  0.00    +0.000 A 
ATOM     21  C   UNL     1     113.436 129.592 137.377  0.00  0.00    +0.000 A 
ATOM     22  C   UNL     1     113.997 129.390 136.016  0.00  0.00    +0.000 A 
ATOM     23  C   UNL     1     113.784 129.917 136.661  0.00  0.00    +0.000 A 
BRANCH  16  24
ATOM     24  C   UNL     1     112.503 127.323 138.886  0.00  0.00    +0.000 A 
ATOM     25  C   UNL     1     111.702 127.439 139.044  0.00  0.00    +0.000 A 
ATOM     26  C   UNL     1     112.970 126.899 139.418  0.00  0.00    +0.000 A 
ATOM     27  C   UNL     1     111.367 127.133 139.733  0.00  0.00    +0.000 A 
ATOM     28  C   UNL     1     112.636 126.592 140.108  0.00  0.00    +0.000 A 
ATOM     29  C   UNL     1     111.834 126.710 140.265  0.00  0.00    +0.000 A 
BRANCH  29  30
ATOM     30  O   UNL     1     111.501 126.403 140.954  0.00  0.00    +0.000 OA
ATOM     31  C   UNL     1     110.843 126.768 141.293  0.00  0.00    +0.000 C 
ENDBRANCH  29  30
ENDBRANCH  16  24
ENDBRANCH  10  15
ENDBRANCH   9  10
BRANCH   5  32
ATOM     32  C   UNL     1     110.736 126.380 135.795  0.00  0.00    +0.000 C 
BRANCH  32  33
ATOM     33  O   UNL     1     110.177 126.805 136.227  0.00  0.00    +0.000 OA
BRANCH  33  41
ATOM     34  O   UNL     1     110.341 127.972 135.420  0.00  0.00    +0.000 OA
ATOM     35  O   UNL     1     108.084 128.746 136.079  0.00  0.00    +0.000 OA
ATOM     36  O   UNL     1     108.672 127.321 136.667  0.00  0.00    +0.000 OA
ATOM     37  C   UNL     1     109.295 128.943 135.345  0.00  0.00    +0.000 C 
ATOM     38  C   UNL     1     108.837 128.488 135.859  0.00  0.00    +0.000 C 
ATOM     39  C   UNL     1     110.047 128.685 135.125  0.00  0.00    +0.000 C 
ATOM     40  C   UNL     1     109.131 127.776 136.153  0.00  0.00    +0.000 C 
ATOM     41  C   UNL     1     109.883 127.518 135.933  0.00  0.00    +0.000 C 
ATOM     42  C   UNL     1     110.505 129.140 134.612  0.00  0.00    +0.000 C 
BRANCH  37  43
ATOM     43  O   UNL     1     109.001 129.656 135.052  0.00  0.00    +0.000 OA
BRANCH  43  48
ATOM     44  O   UNL     1     109.609 130.365 136.133  0.00  0.00    +0.000 OA
ATOM     45  O   UNL     1     108.185 131.022 134.615  0.00  0.00    +0.000 OA
ATOM     46  O   UNL     1     108.386 132.414 135.477  0.00  0.00    +0.000 OA
ATOM     47  O   UNL     1     109.402 132.440 136.777  0.00  0.00    +0.000 OA
ATOM     48  C   UNL     1     109.101 130.352 135.483  0.00  0.00    +0.000 C 
ATOM     49  C   UNL     1     108.693 131.035 135.264  0.00  0.00    +0.000 C 
ATOM     50  C   UNL     1     108.794 131.731 135.696  0.00  0.00    +0.000 C 
ATOM     51  C   UNL     1     109.302 131.744 136.346  0.00  0.00    +0.000 C 
ATOM     52  C   UNL     1     109.710 131.061 136.564  0.00  0.00    +0.000 C 
ATOM     53  C   UNL     1     110.218 131.074 137.214  0.00  0.00    +0.000 C 
ENDBRANCH  43  48
ENDBRANCH  37  43
ENDBRANCH  33  41
ENDBRANCH  32  33
ENDBRANCH   5  32
TORSDOF 9
ENDMDL
MODEL 2
REMARK VINA RESULT:     -10.9      1.732      5.698
REMARK  Name = 44257995
REMARK  9 active torsions:
REMARK  status: ('A' for Active; 'I' for Inactive)
REMARK    1  A    between atoms: O_1  and  C_20
REMARK    2  A    between atoms: O_1  and  C_25
REMARK    3  A    between atoms: O_4  and  C_24
REMARK    4  A    between atoms: O_4  and  C_33
REMARK    5  A    between atoms: O_13  and  C_36
REMARK    6  A    between atoms: O_13  and  C_38
REMARK    7  A    between atoms: O_19  and  C_52
REMARK    8  A    between atoms: C_28  and  C_33
REMARK    9  A    between atoms: C_39  and  C_42
REMARK                            x       y       z     vdW  Elec       q    Type
REMARK                         _______ _______ _______ _____ _____    ______ ____
ROOT
ATOM      1  O   UNL     1     109.875 130.017 138.411  0.00  0.00    +0.000 OA
ATOM      2  O   UNL     1     108.652 129.339 140.088  0.00  0.00    +0.000 OA
ATOM      3  O   UNL     1     108.318 130.955 140.092  0.00  0.00    +0.000 OA
ATOM      4  O   UNL     1     109.022 131.945 138.976  0.00  0.00    +0.000 OA
ATOM      5  C   UNL     1     109.523 129.521 138.969  0.00  0.00    +0.000 C 
ATOM      6  C   UNL     1     109.004 129.834 139.530  0.00  0.00    +0.000 C 
ATOM      7  C   UNL     1     108.837 130.642 139.532  0.00  0.00    +0.000 C 
ATOM      8  C   UNL     1     109.189 131.137 138.973  0.00  0.00    +0.000 C 
ATOM      9  C   UNL     1     109.708 130.825 138.414  0.00  0.00    +0.000 C 
ENDROOT
BRANCH   9  10
ATOM     10  O   UNL     1     110.059 131.320 137.856  0.00  0.00    +0.000 OA
BRANCH  10  15
ATOM     11  O   UNL     1     111.636 130.844 136.423  0.00  0.00    +0.000 OA
ATOM     12  O   UNL     1     111.354 131.144 138.863  0.00  0.00    +0.000 OA
ATOM     13  O   UNL     1     112.753 130.868 139.087  0.00  0.00    +0.000 OA
ATOM     14  O   UNL     1     114.468 130.278 136.799  0.00  0.00    +0.000 OA
ATOM     15  C   UNL     1     110.801 131.132 137.546  0.00  0.00    +0.000 A 
ATOM     16  C   UNL     1     110.895 131.032 136.732  0.00  0.00    +0.000 A 
ATOM     17  C   UNL     1     111.448 131.044 138.050  0.00  0.00    +0.000 A 
ATOM     18  C   UNL     1     112.190 130.855 137.740  0.00  0.00    +0.000 A 
ATOM     19  C   UNL     1     112.284 130.755 136.926  0.00  0.00    +0.000 A 
ATOM     20  C   UNL     1     112.856 130.766 138.275  0.00  0.00    +0.000 A 
ATOM     21  C   UNL     1     113.050 130.559 136.592  0.00  0.00    +0.000 A 
ATOM     22  C   UNL     1     113.630 130.570 137.959  0.00  0.00    +0.000 A 
ATOM     23  C   UNL     1     113.728 130.466 137.111  0.00  0.00    +0.000 A 
BRANCH  16  24
ATOM     24  C   UNL     1     110.247 131.120 136.229  0.00  0.00    +0.000 A 
ATOM     25  C   UNL     1     109.930 131.869 136.091  0.00  0.00    +0.000 A 
ATOM     26  C   UNL     1     109.916 130.459 135.863  0.00  0.00    +0.000 A 
ATOM     27  C   UNL     1     109.282 131.957 135.588  0.00  0.00    +0.000 A 
ATOM     28  C   UNL     1     109.269 130.546 135.360  0.00  0.00    +0.000 A 
ATOM     29  C   UNL     1     108.952 131.296 135.222  0.00  0.00    +0.000 A 
BRANCH  29  30
ATOM     30  O   UNL     1     108.304 131.383 134.718  0.00  0.00    +0.000 OA
ATOM     31  C   UNL     1     107.852 132.072 134.742  0.00  0.00    +0.000 C 
ENDBRANCH  29  30
ENDBRANCH  16  24
ENDBRANCH  10  15
ENDBRANCH   9  10
BRANCH   5  32
ATOM     32  C   UNL     1     109.690 128.714 138.968  0.00  0.00    +0.000 C 
BRANCH  32  33
ATOM     33  O   UNL     1     109.540 128.262 138.294  0.00  0.00    +0.000 OA
BRANCH  33  41
ATOM     34  O   UNL     1     110.435 127.255 138.769  0.00  0.00    +0.000 OA
ATOM     35  O   UNL     1     109.934 125.870 136.780  0.00  0.00    +0.000 OA
ATOM     36  O   UNL     1     109.206 127.339 136.968  0.00  0.00    +0.000 OA
ATOM     37  C   UNL     1     110.632 126.059 138.013  0.00  0.00    +0.000 C 
ATOM     38  C   UNL     1     110.101 126.332 137.443  0.00  0.00    +0.000 C 
ATOM     39  C   UNL     1     110.799 126.520 138.676  0.00  0.00    +0.000 C 
ATOM     40  C   UNL     1     109.737 127.066 137.537  0.00  0.00    +0.000 C 
ATOM     41  C   UNL     1     109.905 127.528 138.200  0.00  0.00    +0.000 C 
ATOM     42  C   UNL     1     111.330 126.247 139.245  0.00  0.00    +0.000 C 
BRANCH  37  43
ATOM     43  O   UNL     1     110.996 125.324 137.919  0.00  0.00    +0.000 OA
BRANCH  43  48
ATOM     44  O   UNL     1     112.105 125.945 137.265  0.00  0.00    +0.000 OA
ATOM     45  O   UNL     1     111.576 123.839 137.494  0.00  0.00    +0.000 OA
ATOM     46  O   UNL     1     112.975 123.717 136.628  0.00  0.00    +0.000 OA
ATOM     47  O   UNL     1     113.794 125.080 136.186  0.00  0.00    +0.000 OA
ATOM     48  C   UNL     1     111.696 125.263 137.485  0.00  0.00    +0.000 C 
ATOM     49  C   UNL     1     111.985 124.521 137.274  0.00  0.00    +0.000 C 
ATOM     50  C   UNL     1     112.685 124.460 136.840  0.00  0.00    +0.000 C 
ATOM     51  C   UNL     1     113.094 125.142 136.620  0.00  0.00    +0.000 C 
ATOM     52  C   UNL     1     112.804 125.884 136.832  0.00  0.00    +0.000 C 
ATOM     53  C   UNL     1     113.213 126.565 136.611  0.00  0.00    +0.000 C 
ENDBRANCH  43  48
ENDBRANCH  37  43
ENDBRANCH  33  41
ENDBRANCH  32  33
ENDBRANCH   5  32
TORSDOF 9
ENDMDL
MODEL 3
REMARK VINA RESULT:     -10.7      1.635      4.878
REMARK  Name = 44257995
REMARK  9 active torsions:
REMARK  status: ('A' for Active; 'I' for Inactive)
REMARK    1  A    between atoms: O_1  and  C_20
REMARK    2  A    between atoms: O_1  and  C_25
REMARK    3  A    between atoms: O_4  and  C_24
REMARK    4  A    between atoms: O_4  and  C_33
REMARK    5  A    between atoms: O_13  and  C_36
REMARK    6  A    between atoms: O_13  and  C_38
REMARK    7  A    between atoms: O_19  and  C_52
REMARK    8  A    between atoms: C_28  and  C_33
REMARK    9  A    between atoms: C_39  and  C_42
REMARK                            x       y       z     vdW  Elec       q    Type
REMARK                         _______ _______ _______ _____ _____    ______ ____
ROOT
ATOM      1  O   UNL     1     109.929 128.865 136.644  0.00  0.00    +0.000 OA
ATOM      2  O   UNL     1     108.052 128.199 135.749  0.00  0.00    +0.000 OA
ATOM      3  O   UNL     1     107.836 129.835 135.745  0.00  0.00    +0.000 OA
ATOM      4  O   UNL     1     109.015 130.824 136.340  0.00  0.00    +0.000 OA
ATOM      5  C   UNL     1     109.340 128.370 136.347  0.00  0.00    +0.000 C 
ATOM      6  C   UNL     1     108.642 128.693 136.047  0.00  0.00    +0.000 C 
ATOM      7  C   UNL     1     108.534 129.511 136.045  0.00  0.00    +0.000 C 
ATOM      8  C   UNL     1     109.123 130.006 136.343  0.00  0.00    +0.000 C 
ATOM      9  C   UNL     1     109.820 129.683 136.642  0.00  0.00    +0.000 C 
ENDROOT
BRANCH   9  10
ATOM     10  O   UNL     1     110.409 130.178 136.940  0.00  0.00    +0.000 OA
BRANCH  10  15
ATOM     11  O   UNL     1     112.467 129.688 137.480  0.00  0.00    +0.000 OA
ATOM     12  O   UNL     1     111.054 129.860 135.455  0.00  0.00    +0.000 OA
ATOM     13  O   UNL     1     112.165 129.483 134.613  0.00  0.00    +0.000 OA
ATOM     14  O   UNL     1     114.753 128.922 135.844  0.00  0.00    +0.000 OA
ATOM     15  C   UNL     1     111.203 129.961 136.872  0.00  0.00    +0.000 A 
ATOM     16  C   UNL     1     111.674 129.904 137.547  0.00  0.00    +0.000 A 
ATOM     17  C   UNL     1     111.525 129.802 136.130  0.00  0.00    +0.000 A 
ATOM     18  C   UNL     1     112.319 129.586 136.062  0.00  0.00    +0.000 A 
ATOM     19  C   UNL     1     112.790 129.529 136.737  0.00  0.00    +0.000 A 
ATOM     20  C   UNL     1     112.643 129.423 135.283  0.00  0.00    +0.000 A 
ATOM     21  C   UNL     1     113.617 129.305 136.680  0.00  0.00    +0.000 A 
ATOM     22  C   UNL     1     113.468 129.198 135.205  0.00  0.00    +0.000 A 
ATOM     23  C   UNL     1     113.959 129.138 135.909  0.00  0.00    +0.000 A 
BRANCH  16  24
ATOM     24  C   UNL     1     111.351 130.063 138.290  0.00  0.00    +0.000 A 
ATOM     25  C   UNL     1     111.190 129.445 138.811  0.00  0.00    +0.000 A 
ATOM     26  C   UNL     1     111.190 130.841 138.511  0.00  0.00    +0.000 A 
ATOM     27  C   UNL     1     110.867 129.604 139.553  0.00  0.00    +0.000 A 
ATOM     28  C   UNL     1     110.867 131.001 139.252  0.00  0.00    +0.000 A 
ATOM     29  C   UNL     1     110.705 130.382 139.774  0.00  0.00    +0.000 A 
BRANCH  29  30
ATOM     30  O   UNL     1     110.382 130.542 140.516  0.00  0.00    +0.000 OA
ATOM     31  C   UNL     1     109.578 130.710 140.589  0.00  0.00    +0.000 C 
ENDBRANCH  29  30
ENDBRANCH  16  24
ENDBRANCH  10  15
ENDBRANCH   9  10
BRANCH   5  32
ATOM     32  C   UNL     1     109.447 127.552 136.348  0.00  0.00    +0.000 C 
BRANCH  32  33
ATOM     33  O   UNL     1     109.616 127.159 137.054  0.00  0.00    +0.000 OA
BRANCH  33  41
ATOM     34  O   UNL     1     110.714 126.487 136.434  0.00  0.00    +0.000 OA
ATOM     35  O   UNL     1     110.909 124.994 138.398  0.00  0.00    +0.000 OA
ATOM     36  O   UNL     1     109.746 126.164 138.364  0.00  0.00    +0.000 OA
ATOM     37  C   UNL     1     111.361 125.404 137.106  0.00  0.00    +0.000 C 
ATOM     38  C   UNL     1     110.844 125.492 137.744  0.00  0.00    +0.000 C 
ATOM     39  C   UNL     1     111.296 125.902 136.451  0.00  0.00    +0.000 C 
ATOM     40  C   UNL     1     110.263 126.077 137.726  0.00  0.00    +0.000 C 
ATOM     41  C   UNL     1     110.198 126.574 137.071  0.00  0.00    +0.000 C 
ATOM     42  C   UNL     1     111.812 125.815 135.814  0.00  0.00    +0.000 C 
BRANCH  37  43
ATOM     43  O   UNL     1     111.942 124.819 137.124  0.00  0.00    +0.000 OA
BRANCH  43  48
ATOM     44  O   UNL     1     112.811 125.646 137.901  0.00  0.00    +0.000 OA
ATOM     45  O   UNL     1     113.226 123.880 136.687  0.00  0.00    +0.000 OA
ATOM     46  O   UNL     1     114.737 124.237 137.246  0.00  0.00    +0.000 OA
ATOM     47  O   UNL     1     114.964 125.532 138.241  0.00  0.00    +0.000 OA
ATOM     48  C   UNL     1     112.698 124.998 137.403  0.00  0.00    +0.000 C 
ATOM     49  C   UNL     1     113.339 124.528 137.185  0.00  0.00    +0.000 C 
ATOM     50  C   UNL     1     114.094 124.707 137.464  0.00  0.00    +0.000 C 
ATOM     51  C   UNL     1     114.208 125.355 137.962  0.00  0.00    +0.000 C 
ATOM     52  C   UNL     1     113.566 125.824 138.181  0.00  0.00    +0.000 C 
ATOM     53  C   UNL     1     113.679 126.472 138.678  0.00  0.00    +0.000 C 
ENDBRANCH  43  48
ENDBRANCH  37  43
ENDBRANCH  33  41
ENDBRANCH  32  33
ENDBRANCH   5  32
TORSDOF 9
ENDMDL
MODEL 4
REMARK VINA RESULT:     -10.7      1.648      5.558
REMARK  Name = 44257995
REMARK  9 active torsions:
REMARK  status: ('A' for Active; 'I' for Inactive)
REMARK    1  A    between atoms: O_1  and  C_20
REMARK    2  A    between atoms: O_1  and  C_25
REMARK    3  A    between atoms: O_4  and  C_24
REMARK    4  A    between atoms: O_4  and  C_33
REMARK    5  A    between atoms: O_13  and  C_36
REMARK    6  A    between atoms: O_13  and  C_38
REMARK    7  A    between atoms: O_19  and  C_52
REMARK    8  A    between atoms: C_28  and  C_33
REMARK    9  A    between atoms: C_39  and  C_42
REMARK                            x       y       z     vdW  Elec       q    Type
REMARK                         _______ _______ _______ _____ _____    ______ ____
ROOT
ATOM      1  O   UNL     1     111.492 130.250 136.959  0.00  0.00    +0.000 OA
ATOM      2  O   UNL     1     109.449 130.560 136.256  0.00  0.00    +0.000 OA
ATOM      3  O   UNL     1     109.973 132.119 136.386  0.00  0.00    +0.000 OA
ATOM      4  O   UNL     1     111.510 132.432 136.898  0.00  0.00    +0.000 OA
ATOM      5  C   UNL     1     110.724 130.093 136.703  0.00  0.00    +0.000 C 
ATOM      6  C   UNL     1     110.217 130.716 136.512  0.00  0.00    +0.000 C 
ATOM      7  C   UNL     1     110.480 131.496 136.577  0.00  0.00    +0.000 C 
ATOM      8  C   UNL     1     111.248 131.652 136.833  0.00  0.00    +0.000 C 
ATOM      9  C   UNL     1     111.754 131.029 137.024  0.00  0.00    +0.000 C 
ENDROOT
BRANCH   9  10
ATOM     10  O   UNL     1     112.522 131.186 137.280  0.00  0.00    +0.000 OA
BRANCH  10  15
ATOM     11  O   UNL     1     113.903 129.846 138.312  0.00  0.00    +0.000 OA
ATOM     12  O   UNL     1     111.805 131.080 138.763  0.00  0.00    +0.000 OA
ATOM     13  O   UNL     1     111.763 130.572 140.113  0.00  0.00    +0.000 OA
ATOM     14  O   UNL     1     113.883 128.782 141.024  0.00  0.00    +0.000 OA
ATOM     15  C   UNL     1     112.863 130.721 137.872  0.00  0.00    +0.000 A 
ATOM     16  C   UNL     1     113.562 130.310 137.721  0.00  0.00    +0.000 A 
ATOM     17  C   UNL     1     112.504 130.669 138.612  0.00  0.00    +0.000 A 
ATOM     18  C   UNL     1     112.845 130.204 139.204  0.00  0.00    +0.000 A 
ATOM     19  C   UNL     1     113.544 129.793 139.053  0.00  0.00    +0.000 A 
ATOM     20  C   UNL     1     112.462 130.158 139.971  0.00  0.00    +0.000 A 
ATOM     21  C   UNL     1     113.909 129.306 139.660  0.00  0.00    +0.000 A 
ATOM     22  C   UNL     1     112.811 129.676 140.591  0.00  0.00    +0.000 A 
ATOM     23  C   UNL     1     113.540 129.247 140.435  0.00  0.00    +0.000 A 
BRANCH  16  24
ATOM     24  C   UNL     1     113.921 130.363 136.980  0.00  0.00    +0.000 A 
ATOM     25  C   UNL     1     113.913 129.715 136.470  0.00  0.00    +0.000 A 
ATOM     26  C   UNL     1     114.287 131.065 136.749  0.00  0.00    +0.000 A 
ATOM     27  C   UNL     1     114.271 129.768 135.728  0.00  0.00    +0.000 A 
ATOM     28  C   UNL     1     114.645 131.119 136.008  0.00  0.00    +0.000 A 
ATOM     29  C   UNL     1     114.637 130.471 135.497  0.00  0.00    +0.000 A 
BRANCH  29  30
ATOM     30  O   UNL     1     114.995 130.525 134.756  0.00  0.00    +0.000 OA
ATOM     31  C   UNL     1     115.649 131.017 134.649  0.00  0.00    +0.000 C 
ENDBRANCH  29  30
ENDBRANCH  16  24
ENDBRANCH  10  15
ENDBRANCH   9  10
BRANCH   5  32
ATOM     32  C   UNL     1     110.461 129.314 136.638  0.00  0.00    +0.000 C 
BRANCH  32  33
ATOM     33  O   UNL     1     110.805 128.807 136.086  0.00  0.00    +0.000 OA
BRANCH  33  41
ATOM     34  O   UNL     1     110.992 127.777 137.060  0.00  0.00    +0.000 OA
ATOM     35  O   UNL     1     111.110 126.090 135.254  0.00  0.00    +0.000 OA
ATOM     36  O   UNL     1     110.883 127.681 134.882  0.00  0.00    +0.000 OA
ATOM     37  C   UNL     1     111.144 126.419 136.644  0.00  0.00    +0.000 C 
ATOM     38  C   UNL     1     111.070 126.652 135.856  0.00  0.00    +0.000 C 
ATOM     39  C   UNL     1     111.105 126.982 137.246  0.00  0.00    +0.000 C 
ATOM     40  C   UNL     1     110.957 127.448 135.671  0.00  0.00    +0.000 C 
ATOM     41  C   UNL     1     110.918 128.011 136.273  0.00  0.00    +0.000 C 
ATOM     42  C   UNL     1     111.179 126.748 138.034  0.00  0.00    +0.000 C 
BRANCH  37  43
ATOM     43  O   UNL     1     111.257 125.623 136.829  0.00  0.00    +0.000 OA
BRANCH  43  48
ATOM     44  O   UNL     1     112.674 125.805 136.765  0.00  0.00    +0.000 OA
ATOM     45  O   UNL     1     111.475 123.999 137.019  0.00  0.00    +0.000 OA
ATOM     46  O   UNL     1     112.999 123.368 137.050  0.00  0.00    +0.000 OA
ATOM     47  O   UNL     1     114.306 124.362 136.890  0.00  0.00    +0.000 OA
ATOM     48  C   UNL     1     112.020 125.308 136.845  0.00  0.00    +0.000 C 
ATOM     49  C   UNL     1     112.128 124.496 136.940  0.00  0.00    +0.000 C 
ATOM     50  C   UNL     1     112.891 124.181 136.955  0.00  0.00    +0.000 C 
ATOM     51  C   UNL     1     113.544 124.678 136.875  0.00  0.00    +0.000 C 
ATOM     52  C   UNL     1     113.435 125.490 136.780  0.00  0.00    +0.000 C 
ATOM     53  C   UNL     1     114.089 125.987 136.700  0.00  0.00    +0.000 C 
ENDBRANCH  43  48
ENDBRANCH  37  43
ENDBRANCH  33  41
ENDBRANCH  32  33
ENDBRANCH   5  32
TORSDOF 9
ENDMDL
MODEL 5
REMARK VINA RESULT:     -10.7      2.154      5.038
REMARK  Name = 44257995
REMARK  9 active torsions:
REMARK  status: ('A' for Active; 'I' for Inactive)
REMARK    1  A    between atoms: O_1  and  C_20
REMARK    2  A    between atoms: O_1  and  C_25
REMARK    3  A    between atoms: O_4  and  C_24
REMARK    4  A    between atoms: O_4  and  C_33
REMARK    5  A    between atoms: O_13  and  C_36
REMARK    6  A    between atoms: O_13  and  C_38
REMARK    7  A    between atoms: O_19  and  C_52
REMARK    8  A    between atoms: C_28  and  C_33
REMARK    9  A    between atoms: C_39  and  C_42
REMARK                            x       y       z     vdW  Elec       q    Type
REMARK                         _______ _______ _______ _____ _____    ______ ____
ROOT
ATOM      1  O   UNL     1     110.830 127.078 137.029  0.00  0.00    +0.000 OA
ATOM      2  O   UNL     1     108.677 126.747 137.174  0.00  0.00    +0.000 OA
ATOM      3  O   UNL     1     108.885 126.728 135.538  0.00  0.00    +0.000 OA
ATOM      4  O   UNL     1     110.390 126.942 134.895  0.00  0.00    +0.000 OA
ATOM      5  C   UNL     1     110.078 126.971 137.350  0.00  0.00    +0.000 C 
ATOM      6  C   UNL     1     109.429 126.854 136.853  0.00  0.00    +0.000 C 
ATOM      7  C   UNL     1     109.534 126.844 136.035  0.00  0.00    +0.000 C 
ATOM      8  C   UNL     1     110.286 126.952 135.713  0.00  0.00    +0.000 C 
ATOM      9  C   UNL     1     110.934 127.068 136.210  0.00  0.00    +0.000 C 
ENDROOT
BRANCH   9  10
ATOM     10  O   UNL     1     111.686 127.176 135.888  0.00  0.00    +0.000 OA
BRANCH  10  15
ATOM     11  O   UNL     1     113.628 126.797 136.809  0.00  0.00    +0.000 OA
ATOM     12  O   UNL     1     111.679 125.527 135.965  0.00  0.00    +0.000 OA
ATOM     13  O   UNL     1     112.306 124.276 136.317  0.00  0.00    +0.000 OA
ATOM     14  O   UNL     1     114.954 124.310 137.546  0.00  0.00    +0.000 OA
ATOM     15  C   UNL     1     112.333 126.774 136.208  0.00  0.00    +0.000 A 
ATOM     16  C   UNL     1     112.983 127.198 136.490  0.00  0.00    +0.000 A 
ATOM     17  C   UNL     1     112.329 125.950 136.247  0.00  0.00    +0.000 A 
ATOM     18  C   UNL     1     112.976 125.549 136.567  0.00  0.00    +0.000 A 
ATOM     19  C   UNL     1     113.625 125.973 136.848  0.00  0.00    +0.000 A 
ATOM     20  C   UNL     1     112.960 124.691 136.601  0.00  0.00    +0.000 A 
ATOM     21  C   UNL     1     114.304 125.567 137.183  0.00  0.00    +0.000 A 
ATOM     22  C   UNL     1     113.629 124.267 136.933  0.00  0.00    +0.000 A 
ATOM     23  C   UNL     1     114.307 124.708 137.226  0.00  0.00    +0.000 A 
BRANCH  16  24
ATOM     24  C   UNL     1     112.986 128.022 136.451  0.00  0.00    +0.000 A 
ATOM     25  C   UNL     1     112.898 128.468 137.139  0.00  0.00    +0.000 A 
ATOM     26  C   UNL     1     113.077 128.400 135.723  0.00  0.00    +0.000 A 
ATOM     27  C   UNL     1     112.901 129.292 137.100  0.00  0.00    +0.000 A 
ATOM     28  C   UNL     1     113.080 129.224 135.683  0.00  0.00    +0.000 A 
ATOM     29  C   UNL     1     112.992 129.670 136.372  0.00  0.00    +0.000 A 
BRANCH  29  30
ATOM     30  O   UNL     1     112.995 130.494 136.332  0.00  0.00    +0.000 OA
ATOM     31  C   UNL     1     113.631 130.920 136.639  0.00  0.00    +0.000 C 
ENDBRANCH  29  30
ENDBRANCH  16  24
ENDBRANCH  10  15
ENDBRANCH   9  10
BRANCH   5  32
ATOM     32  C   UNL     1     109.974 126.980 138.168  0.00  0.00    +0.000 C 
BRANCH  32  33
ATOM     33  O   UNL     1     110.532 126.625 138.660  0.00  0.00    +0.000 OA
BRANCH  33  41
ATOM     34  O   UNL     1     110.115 127.463 139.740  0.00  0.00    +0.000 OA
ATOM     35  O   UNL     1     111.792 126.398 141.215  0.00  0.00    +0.000 OA
ATOM     36  O   UNL     1     111.651 125.915 139.644  0.00  0.00    +0.000 OA
ATOM     37  C   UNL     1     110.745 127.350 141.017  0.00  0.00    +0.000 C 
ATOM     38  C   UNL     1     111.233 126.753 140.723  0.00  0.00    +0.000 C 
ATOM     39  C   UNL     1     110.185 127.705 140.525  0.00  0.00    +0.000 C 
ATOM     40  C   UNL     1     111.162 126.512 139.938  0.00  0.00    +0.000 C 
ATOM     41  C   UNL     1     110.603 126.867 139.446  0.00  0.00    +0.000 C 
ATOM     42  C   UNL     1     109.698 128.301 140.819  0.00  0.00    +0.000 C 
BRANCH  37  43
ATOM     43  O   UNL     1     110.816 127.591 141.803  0.00  0.00    +0.000 OA
BRANCH  43  48
ATOM     44  O   UNL     1     111.808 128.549 141.426  0.00  0.00    +0.000 OA
ATOM     45  O   UNL     1     110.791 128.218 143.329  0.00  0.00    +0.000 OA
ATOM     46  O   UNL     1     111.769 129.489 143.715  0.00  0.00    +0.000 OA
ATOM     47  O   UNL     1     112.773 130.134 142.575  0.00  0.00    +0.000 OA
ATOM     48  C   UNL     1     111.306 128.227 141.996  0.00  0.00    +0.000 C 
ATOM     49  C   UNL     1     111.293 128.540 142.759  0.00  0.00    +0.000 C 
ATOM     50  C   UNL     1     111.782 129.176 142.951  0.00  0.00    +0.000 C 
ATOM     51  C   UNL     1     112.284 129.498 142.381  0.00  0.00    +0.000 C 
ATOM     52  C   UNL     1     112.296 129.184 141.619  0.00  0.00    +0.000 C 
ATOM     53  C   UNL     1     112.798 129.507 141.049  0.00  0.00    +0.000 C 
ENDBRANCH  43  48
ENDBRANCH  37  43
ENDBRANCH  33  41
ENDBRANCH  32  33
ENDBRANCH   5  32
TORSDOF 9
ENDMDL
MODEL 6
REMARK VINA RESULT:     -10.6      1.726      5.667
REMARK  Name = 44257995
REMARK  9 active torsions:
REMARK  status: ('A' for Active; 'I' for Inactive)
REMARK    1  A    between atoms: O_1  and  C_20
REMARK    2  A    between atoms: O_1  and  C_25
REMARK    3  A    between atoms: O_4  and  C_24
REMARK    4  A    between atoms: O_4  and  C_33
REMARK    5  A    between atoms: O_13  and  C_36
REMARK    6  A    between atoms: O_13  and  C_38
REMARK    7  A    between atoms: O_19  and  C_52
REMARK    8  A    between atoms: C_28  and  C_33
REMARK    9  A    between atoms: C_39  and  C_42
REMARK                            x       y       z     vdW  Elec       q    Type
REMARK                         _______ _______ _______ _____ _____    ______ ____
ROOT
ATOM      1  O   UNL     1     109.600 129.418 136.974  0.00  0.00    +0.000 OA
ATOM      2  O   UNL     1     108.083 128.865 135.505  0.00  0.00    +0.000 OA
ATOM      3  O   UNL     1     107.771 130.476 135.684  0.00  0.00    +0.000 OA
ATOM      4  O   UNL     1     108.678 131.381 136.723  0.00  0.00    +0.000 OA
ATOM      5  C   UNL     1     109.146 128.965 136.454  0.00  0.00    +0.000 C 
ATOM      6  C   UNL     1     108.536 129.318 136.024  0.00  0.00    +0.000 C 
ATOM      7  C   UNL     1     108.381 130.123 136.114  0.00  0.00    +0.000 C 
ATOM      8  C   UNL     1     108.835 130.576 136.633  0.00  0.00    +0.000 C 
ATOM      9  C   UNL     1     109.444 130.223 137.063  0.00  0.00    +0.000 C 
ENDROOT
BRANCH   9  10
ATOM     10  O   UNL     1     109.897 130.676 137.582  0.00  0.00    +0.000 OA
BRANCH  10  15
ATOM     11  O   UNL     1     111.064 129.999 139.299  0.00  0.00    +0.000 OA
ATOM     12  O   UNL     1     108.695 130.263 138.634  0.00  0.00    +0.000 OA
ATOM     13  O   UNL     1     108.251 129.760 139.911  0.00  0.00    +0.000 OA
ATOM     14  O   UNL     1     110.241 128.976 141.899  0.00  0.00    +0.000 OA
ATOM     15  C   UNL     1     110.086 130.381 138.330  0.00  0.00    +0.000 A 
ATOM     16  C   UNL     1     110.876 130.294 138.552  0.00  0.00    +0.000 A 
ATOM     17  C   UNL     1     109.484 130.175 138.855  0.00  0.00    +0.000 A 
ATOM     18  C   UNL     1     109.673 129.880 139.603  0.00  0.00    +0.000 A 
ATOM     19  C   UNL     1     110.463 129.793 139.825  0.00  0.00    +0.000 A 
ATOM     20  C   UNL     1     109.038 129.669 140.141  0.00  0.00    +0.000 A 
ATOM     21  C   UNL     1     110.672 129.487 140.600  0.00  0.00    +0.000 A 
ATOM     22  C   UNL     1     109.227 129.361 140.921  0.00  0.00    +0.000 A 
ATOM     23  C   UNL     1     110.050 129.270 141.152  0.00  0.00    +0.000 A 
BRANCH  16  24
ATOM     24  C   UNL     1     111.477 130.501 138.026  0.00  0.00    +0.000 A 
ATOM     25  C   UNL     1     111.943 129.915 137.680  0.00  0.00    +0.000 A 
ATOM     26  C   UNL     1     111.612 131.294 137.846  0.00  0.00    +0.000 A 
ATOM     27  C   UNL     1     112.544 130.122 137.153  0.00  0.00    +0.000 A 
ATOM     28  C   UNL     1     112.212 131.503 137.320  0.00  0.00    +0.000 A 
ATOM     29  C   UNL     1     112.679 130.916 136.974  0.00  0.00    +0.000 A 
BRANCH  29  30
ATOM     30  O   UNL     1     113.279 131.124 136.448  0.00  0.00    +0.000 OA
ATOM     31  C   UNL     1     114.045 130.839 136.562  0.00  0.00    +0.000 C 
ENDBRANCH  29  30
ENDBRANCH  16  24
ENDBRANCH  10  15
ENDBRANCH   9  10
BRANCH   5  32
ATOM     32  C   UNL     1     109.302 128.160 136.364  0.00  0.00    +0.000 C 
BRANCH  32  33
ATOM     33  O   UNL     1     109.505 127.703 137.020  0.00  0.00    +0.000 OA
BRANCH  33  41
ATOM     34  O   UNL     1     110.117 126.741 136.159  0.00  0.00    +0.000 OA
ATOM     35  O   UNL     1     110.714 125.361 138.126  0.00  0.00    +0.000 OA
ATOM     36  O   UNL     1     109.903 126.783 138.331  0.00  0.00    +0.000 OA
ATOM     37  C   UNL     1     110.722 125.570 136.711  0.00  0.00    +0.000 C 
ATOM     38  C   UNL     1     110.515 125.821 137.470  0.00  0.00    +0.000 C 
ATOM     39  C   UNL     1     110.523 126.029 136.056  0.00  0.00    +0.000 C 
ATOM     40  C   UNL     1     110.110 126.532 137.572  0.00  0.00    +0.000 C 
ATOM     41  C   UNL     1     109.911 126.992 136.917  0.00  0.00    +0.000 C 
ATOM     42  C   UNL     1     110.730 125.778 135.298  0.00  0.00    +0.000 C 
BRANCH  37  43
ATOM     43  O   UNL     1     111.128 124.859 136.609  0.00  0.00    +0.000 OA
BRANCH  43  48
ATOM     44  O   UNL     1     112.392 125.527 136.624  0.00  0.00    +0.000 OA
ATOM     45  O   UNL     1     111.879 123.429 136.947  0.00  0.00    +0.000 OA
ATOM     46  O   UNL     1     113.518 123.382 137.131  0.00  0.00    +0.000 OA
ATOM     47  O   UNL     1     114.406 124.764 136.977  0.00  0.00    +0.000 OA
ATOM     48  C   UNL     1     111.948 124.835 136.701  0.00  0.00    +0.000 C 
ATOM     49  C   UNL     1     112.323 124.120 136.870  0.00  0.00    +0.000 C 
ATOM     50  C   UNL     1     113.142 124.097 136.962  0.00  0.00    +0.000 C 
ATOM     51  C   UNL     1     113.586 124.789 136.885  0.00  0.00    +0.000 C 
ATOM     52  C   UNL     1     113.210 125.503 136.716  0.00  0.00    +0.000 C 
ATOM     53  C   UNL     1     113.654 126.194 136.639  0.00  0.00    +0.000 C 
ENDBRANCH  43  48
ENDBRANCH  37  43
ENDBRANCH  33  41
ENDBRANCH  32  33
ENDBRANCH   5  32
TORSDOF 9
ENDMDL
MODEL 7
REMARK VINA RESULT:     -10.6      1.861      5.721
REMARK  Name = 44257995
REMARK  9 active torsions:
REMARK  status: ('A' for Active; 'I' for Inactive)
REMARK    1  A    between atoms: O_1  and  C_20
REMARK    2  A    between atoms: O_1  and  C_25
REMARK    3  A    between atoms: O_4  and  C_24
REMARK    4  A    between atoms: O_4  and  C_33
REMARK    5  A    between atoms: O_13  and  C_36
REMARK    6  A    between atoms: O_13  and  C_38
REMARK    7  A    between atoms: O_19  and  C_52
REMARK    8  A    between atoms: C_28  and  C_33
REMARK    9  A    between atoms: C_39  and  C_42
REMARK                            x       y       z     vdW  Elec       q    Type
REMARK                         _______ _______ _______ _____ _____    ______ ____
ROOT
ATOM      1  O   UNL     1     113.498 129.415 139.270  0.00  0.00    +0.000 OA
ATOM      2  O   UNL     1     114.664 128.733 140.985  0.00  0.00    +0.000 OA
ATOM      3  O   UNL     1     114.976 130.352 141.021  0.00  0.00    +0.000 OA
ATOM      4  O   UNL     1     114.303 131.347 139.890  0.00  0.00    +0.000 OA
ATOM      5  C   UNL     1     113.834 128.918 139.836  0.00  0.00    +0.000 C 
ATOM      6  C   UNL     1     114.327 129.230 140.419  0.00  0.00    +0.000 C 
ATOM      7  C   UNL     1     114.483 130.040 140.437  0.00  0.00    +0.000 C 
ATOM      8  C   UNL     1     114.146 130.537 139.871  0.00  0.00    +0.000 C 
ATOM      9  C   UNL     1     113.654 130.225 139.288  0.00  0.00    +0.000 C 
ENDROOT
BRANCH   9  10
ATOM     10  O   UNL     1     113.318 130.723 138.723  0.00  0.00    +0.000 OA
BRANCH  10  15
ATOM     11  O   UNL     1     111.670 130.266 137.366  0.00  0.00    +0.000 OA
ATOM     12  O   UNL     1     112.039 130.746 139.766  0.00  0.00    +0.000 OA
ATOM     13  O   UNL     1     110.628 130.614 140.038  0.00  0.00    +0.000 OA
ATOM     14  O   UNL     1     108.810 129.985 137.842  0.00  0.00    +0.000 OA
ATOM     15  C   UNL     1     112.555 130.574 138.444  0.00  0.00    +0.000 A 
ATOM     16  C   UNL     1     112.432 130.414 137.644  0.00  0.00    +0.000 A 
ATOM     17  C   UNL     1     111.916 130.586 138.966  0.00  0.00    +0.000 A 
ATOM     18  C   UNL     1     111.153 130.438 138.687  0.00  0.00    +0.000 A 
ATOM     19  C   UNL     1     111.030 130.278 137.887  0.00  0.00    +0.000 A 
ATOM     20  C   UNL     1     110.496 130.453 139.240  0.00  0.00    +0.000 A 
ATOM     21  C   UNL     1     110.241 130.122 137.585  0.00  0.00    +0.000 A 
ATOM     22  C   UNL     1     109.699 130.300 138.957  0.00  0.00    +0.000 A 
ATOM     23  C   UNL     1     109.571 130.133 138.123  0.00  0.00    +0.000 A 
BRANCH  16  24
ATOM     24  C   UNL     1     113.071 130.402 137.123  0.00  0.00    +0.000 A 
ATOM     25  C   UNL     1     113.336 129.687 136.811  0.00  0.00    +0.000 A 
ATOM     26  C   UNL     1     113.446 131.107 136.915  0.00  0.00    +0.000 A 
ATOM     27  C   UNL     1     113.976 129.675 136.290  0.00  0.00    +0.000 A 
ATOM     28  C   UNL     1     114.085 131.097 136.394  0.00  0.00    +0.000 A 
ATOM     29  C   UNL     1     114.351 130.380 136.081  0.00  0.00    +0.000 A 
BRANCH  29  30
ATOM     30  O   UNL     1     114.990 130.370 135.561  0.00  0.00    +0.000 OA
ATOM     31  C   UNL     1     114.955 129.917 134.871  0.00  0.00    +0.000 C 
ENDBRANCH  29  30
ENDBRANCH  16  24
ENDBRANCH  10  15
ENDBRANCH   9  10
BRANCH   5  32
ATOM     32  C   UNL     1     113.679 128.108 139.818  0.00  0.00    +0.000 C 
BRANCH  32  33
ATOM     33  O   UNL     1     112.900 127.836 139.832  0.00  0.00    +0.000 OA
BRANCH  33  41
ATOM     34  O   UNL     1     113.240 126.786 138.925  0.00  0.00    +0.000 OA
ATOM     35  O   UNL     1     111.003 125.780 139.250  0.00  0.00    +0.000 OA
ATOM     36  O   UNL     1     111.408 127.166 140.048  0.00  0.00    +0.000 OA
ATOM     37  C   UNL     1     112.293 125.757 138.634  0.00  0.00    +0.000 C 
ATOM     38  C   UNL     1     111.749 126.115 139.142  0.00  0.00    +0.000 C 
ATOM     39  C   UNL     1     113.038 126.093 138.526  0.00  0.00    +0.000 C 
ATOM     40  C   UNL     1     111.952 126.808 139.541  0.00  0.00    +0.000 C 
ATOM     41  C   UNL     1     112.698 127.143 139.432  0.00  0.00    +0.000 C 
ATOM     42  C   UNL     1     113.581 125.735 138.018  0.00  0.00    +0.000 C 
BRANCH  37  43
ATOM     43  O   UNL     1     112.089 125.064 138.235  0.00  0.00    +0.000 OA
BRANCH  43  48
ATOM     44  O   UNL     1     111.488 125.826 137.185  0.00  0.00    +0.000 OA
ATOM     45  O   UNL     1     111.995 123.706 137.304  0.00  0.00    +0.000 OA
ATOM     46  O   UNL     1     111.347 123.787 135.788  0.00  0.00    +0.000 OA
ATOM     47  O   UNL     1     110.793 125.227 135.205  0.00  0.00    +0.000 OA
ATOM     48  C   UNL     1     111.765 125.105 137.477  0.00  0.00    +0.000 C 
ATOM     49  C   UNL     1     111.718 124.426 137.012  0.00  0.00    +0.000 C 
ATOM     50  C   UNL     1     111.394 124.467 136.254  0.00  0.00    +0.000 C 
ATOM     51  C   UNL     1     111.117 125.187 135.962  0.00  0.00    +0.000 C 
ATOM     52  C   UNL     1     111.164 125.866 136.428  0.00  0.00    +0.000 C 
ATOM     53  C   UNL     1     110.887 126.586 136.136  0.00  0.00    +0.000 C 
ENDBRANCH  43  48
ENDBRANCH  37  43
ENDBRANCH  33  41
ENDBRANCH  32  33
ENDBRANCH   5  32
TORSDOF 9
ENDMDL
MODEL 8
REMARK VINA RESULT:     -10.6      1.536      3.484
REMARK  Name = 44257995
REMARK  9 active torsions:
REMARK  status: ('A' for Active; 'I' for Inactive)
REMARK    1  A    between atoms: O_1  and  C_20
REMARK    2  A    between atoms: O_1  and  C_25
REMARK    3  A    between atoms: O_4  and  C_24
REMARK    4  A    between atoms: O_4  and  C_33
REMARK    5  A    between atoms: O_13  and  C_36
REMARK    6  A    between atoms: O_13  and  C_38
REMARK    7  A    between atoms: O_19  and  C_52
REMARK    8  A    between atoms: C_28  and  C_33
REMARK    9  A    between atoms: C_39  and  C_42
REMARK                            x       y       z     vdW  Elec       q    Type
REMARK                         _______ _______ _______ _____ _____    ______ ____
ROOT
ATOM      1  O   UNL     1     111.361 126.456 136.505  0.00  0.00    +0.000 OA
ATOM      2  O   UNL     1     109.954 126.770 134.865  0.00  0.00    +0.000 OA
ATOM      3  O   UNL     1     110.127 125.130 134.817  0.00  0.00    +0.000 OA
ATOM      4  O   UNL     1     111.122 124.374 135.894  0.00  0.00    +0.000 OA
ATOM      5  C   UNL     1     110.863 126.834 135.967  0.00  0.00    +0.000 C 
ATOM      6  C   UNL     1     110.452 126.392 135.404  0.00  0.00    +0.000 C 
ATOM      7  C   UNL     1     110.539 125.572 135.380  0.00  0.00    +0.000 C 
ATOM      8  C   UNL     1     111.036 125.194 135.919  0.00  0.00    +0.000 C 
ATOM      9  C   UNL     1     111.447 125.636 136.481  0.00  0.00    +0.000 C 
ENDROOT
BRANCH   9  10
ATOM     10  O   UNL     1     111.945 125.258 137.019  0.00  0.00    +0.000 OA
BRANCH  10  15
ATOM     11  O   UNL     1     112.998 126.106 138.733  0.00  0.00    +0.000 OA
ATOM     12  O   UNL     1     110.682 125.588 138.029  0.00  0.00    +0.000 OA
ATOM     13  O   UNL     1     110.160 126.090 139.278  0.00  0.00    +0.000 OA
ATOM     14  O   UNL     1     112.016 127.136 141.275  0.00  0.00    +0.000 OA
ATOM     15  C   UNL     1     112.085 125.596 137.759  0.00  0.00    +0.000 A 
ATOM     16  C   UNL     1     112.857 125.768 137.994  0.00  0.00    +0.000 A 
ATOM     17  C   UNL     1     111.454 125.761 138.264  0.00  0.00    +0.000 A 
ATOM     18  C   UNL     1     111.595 126.099 139.004  0.00  0.00    +0.000 A 
ATOM     19  C   UNL     1     112.367 126.271 139.238  0.00  0.00    +0.000 A 
ATOM     20  C   UNL     1     110.929 126.266 139.520  0.00  0.00    +0.000 A 
ATOM     21  C   UNL     1     112.526 126.623 140.005  0.00  0.00    +0.000 A 
ATOM     22  C   UNL     1     111.068 126.618 140.291  0.00  0.00    +0.000 A 
ATOM     23  C   UNL     1     111.873 126.798 140.536  0.00  0.00    +0.000 A 
BRANCH  16  24
ATOM     24  C   UNL     1     113.488 125.603 137.488  0.00  0.00    +0.000 A 
ATOM     25  C   UNL     1     113.841 126.210 137.056  0.00  0.00    +0.000 A 
ATOM     26  C   UNL     1     113.766 124.829 137.415  0.00  0.00    +0.000 A 
ATOM     27  C   UNL     1     114.472 126.044 136.551  0.00  0.00    +0.000 A 
ATOM     28  C   UNL     1     114.396 124.663 136.911  0.00  0.00    +0.000 A 
ATOM     29  C   UNL     1     114.750 125.271 136.478  0.00  0.00    +0.000 A 
BRANCH  29  30
ATOM     30  O   UNL     1     115.380 125.104 135.973  0.00  0.00    +0.000 OA
ATOM     31  C   UNL     1     115.580 125.633 135.373  0.00  0.00    +0.000 C 
ENDBRANCH  29  30
ENDBRANCH  16  24
ENDBRANCH  10  15
ENDBRANCH   9  10
BRANCH   5  32
ATOM     32  C   UNL     1     110.776 127.654 135.990  0.00  0.00    +0.000 C 
BRANCH  32  33
ATOM     33  O   UNL     1     111.437 128.137 136.098  0.00  0.00    +0.000 OA
BRANCH  33  41
ATOM     34  O   UNL     1     110.617 129.306 136.050  0.00  0.00    +0.000 OA
ATOM     35  O   UNL     1     112.497 130.660 136.921  0.00  0.00    +0.000 OA
ATOM     36  O   UNL     1     112.690 129.039 136.679  0.00  0.00    +0.000 OA
ATOM     37  C   UNL     1     111.147 130.568 136.461  0.00  0.00    +0.000 C 
ATOM     38  C   UNL     1     111.870 130.209 136.630  0.00  0.00    +0.000 C 
ATOM     39  C   UNL     1     110.520 130.117 136.171  0.00  0.00    +0.000 C 
ATOM     40  C   UNL     1     111.966 129.398 136.509  0.00  0.00    +0.000 C 
ATOM     41  C   UNL     1     111.340 128.947 136.219  0.00  0.00    +0.000 C 
ATOM     42  C   UNL     1     109.797 130.476 136.001  0.00  0.00    +0.000 C 
BRANCH  37  43
ATOM     43  O   UNL     1     111.051 131.378 136.582  0.00  0.00    +0.000 OA
BRANCH  43  48
ATOM     44  O   UNL     1     110.676 131.132 137.940  0.00  0.00    +0.000 OA
ATOM     45  O   UNL     1     110.736 132.985 136.787  0.00  0.00    +0.000 OA
ATOM     46  O   UNL     1     110.205 133.542 138.246  0.00  0.00    +0.000 OA
ATOM     47  O   UNL     1     109.988 132.493 139.501  0.00  0.00    +0.000 OA
ATOM     48  C   UNL     1     110.785 131.657 137.313  0.00  0.00    +0.000 C 
ATOM     49  C   UNL     1     110.628 132.460 137.414  0.00  0.00    +0.000 C 
ATOM     50  C   UNL     1     110.362 132.738 138.144  0.00  0.00    +0.000 C 
ATOM     51  C   UNL     1     110.254 132.213 138.771  0.00  0.00    +0.000 C 
ATOM     52  C   UNL     1     110.411 131.411 138.669  0.00  0.00    +0.000 C 
ATOM     53  C   UNL     1     110.302 130.886 139.296  0.00  0.00    +0.000 C 
ENDBRANCH  43  48
ENDBRANCH  37  43
ENDBRANCH  33  41
ENDBRANCH  32  33
ENDBRANCH   5  32
TORSDOF 9
ENDMDL
MODEL 9
REMARK VINA RESULT:     -10.4      2.348      5.135
REMARK  Name = 44257995
REMARK  9 active torsions:
REMARK  status: ('A' for Active; 'I' for Inactive)
REMARK    1  A    between atoms: O_1  and  C_20
REMARK    2  A    between atoms: O_1  and  C_25
REMARK    3  A    between atoms: O_4  and  C_24
REMARK    4  A    between atoms: O_4  and  C_33
REMARK    5  A    between atoms: O_13  and  C_36
REMARK    6  A    between atoms: O_13  and  C_38
REMARK    7  A    between atoms: O_19  and  C_52
REMARK    8  A    between atoms: C_28  and  C_33
REMARK    9  A    between atoms: C_39  and  C_42
REMARK                            x       y       z     vdW  Elec       q    Type
REMARK                         _______ _______ _______ _____ _____    ______ ____
ROOT
ATOM      1  O   UNL     1     111.481 127.581 137.037  0.00  0.00    +0.000 OA
ATOM      2  O   UNL     1     111.272 129.225 135.615  0.00  0.00    +0.000 OA
ATOM      3  O   UNL     1     111.077 127.924 134.619  0.00  0.00    +0.000 OA
ATOM      4  O   UNL     1     111.151 126.395 135.234  0.00  0.00    +0.000 OA
ATOM      5  C   UNL     1     111.444 128.346 136.730  0.00  0.00    +0.000 C 
ATOM      6  C   UNL     1     111.309 128.460 135.923  0.00  0.00    +0.000 C 
ATOM      7  C   UNL     1     111.212 127.810 135.426  0.00  0.00    +0.000 C 
ATOM      8  C   UNL     1     111.249 127.045 135.733  0.00  0.00    +0.000 C 
ATOM      9  C   UNL     1     111.384 126.931 136.539  0.00  0.00    +0.000 C 
ENDROOT
BRANCH   9  10
ATOM     10  O   UNL     1     111.421 126.167 136.846  0.00  0.00    +0.000 OA
BRANCH  10  15
ATOM     11  O   UNL     1     111.510 125.559 138.941  0.00  0.00    +0.000 OA
ATOM     12  O   UNL     1     109.889 126.530 137.342  0.00  0.00    +0.000 OA
ATOM     13  O   UNL     1     108.870 126.581 138.363  0.00  0.00    +0.000 OA
ATOM     14  O   UNL     1     109.503 125.633 141.051  0.00  0.00    +0.000 OA
ATOM     15  C   UNL     1     111.195 126.025 137.628  0.00  0.00    +0.000 A 
ATOM     16  C   UNL     1     111.735 125.701 138.161  0.00  0.00    +0.000 A 
ATOM     17  C   UNL     1     110.430 126.206 137.875  0.00  0.00    +0.000 A 
ATOM     18  C   UNL     1     110.204 126.064 138.656  0.00  0.00    +0.000 A 
ATOM     19  C   UNL     1     110.744 125.741 139.189  0.00  0.00    +0.000 A 
ATOM     20  C   UNL     1     109.404 126.258 138.902  0.00  0.00    +0.000 A 
ATOM     21  C   UNL     1     110.522 125.589 140.005  0.00  0.00    +0.000 A 
ATOM     22  C   UNL     1     109.162 126.113 139.714  0.00  0.00    +0.000 A 
ATOM     23  C   UNL     1     109.726 125.776 140.269  0.00  0.00    +0.000 A 
BRANCH  16  24
ATOM     24  C   UNL     1     112.501 125.520 137.912  0.00  0.00    +0.000 A 
ATOM     25  C   UNL     1     112.631 124.880 137.409  0.00  0.00    +0.000 A 
ATOM     26  C   UNL     1     113.137 125.979 138.168  0.00  0.00    +0.000 A 
ATOM     27  C   UNL     1     113.397 124.699 137.160  0.00  0.00    +0.000 A 
ATOM     28  C   UNL     1     113.903 125.799 137.920  0.00  0.00    +0.000 A 
ATOM     29  C   UNL     1     114.033 125.158 137.416  0.00  0.00    +0.000 A 
BRANCH  29  30
ATOM     30  O   UNL     1     114.798 124.978 137.168  0.00  0.00    +0.000 OA
ATOM     31  C   UNL     1     115.016 125.095 136.381  0.00  0.00    +0.000 C 
ENDBRANCH  29  30
ENDBRANCH  16  24
ENDBRANCH  10  15
ENDBRANCH   9  10
BRANCH   5  32
ATOM     32  C   UNL     1     111.542 128.996 137.227  0.00  0.00    +0.000 C 
BRANCH  32  33
ATOM     33  O   UNL     1     112.149 129.002 137.786  0.00  0.00    +0.000 OA
BRANCH  33  41
ATOM     34  O   UNL     1     111.310 129.524 138.819  0.00  0.00    +0.000 OA
ATOM     35  O   UNL     1     113.291 130.510 139.928  0.00  0.00    +0.000 OA
ATOM     36  O   UNL     1     113.469 129.659 138.526  0.00  0.00    +0.000 OA
ATOM     37  C   UNL     1     111.881 130.278 139.890  0.00  0.00    +0.000 C 
ATOM     38  C   UNL     1     112.631 130.181 139.558  0.00  0.00    +0.000 C 
ATOM     39  C   UNL     1     111.221 129.950 139.520  0.00  0.00    +0.000 C 
ATOM     40  C   UNL     1     112.719 129.756 138.857  0.00  0.00    +0.000 C 
ATOM     41  C   UNL     1     112.059 129.427 138.488  0.00  0.00    +0.000 C 
ATOM     42  C   UNL     1     110.472 130.047 139.852  0.00  0.00    +0.000 C 
BRANCH  37  43
ATOM     43  O   UNL     1     111.793 130.704 140.591  0.00  0.00    +0.000 OA
BRANCH  43  48
ATOM     44  O   UNL     1     111.897 129.494 141.347  0.00  0.00    +0.000 OA
ATOM     45  O   UNL     1     111.847 131.581 141.988  0.00  0.00    +0.000 OA
ATOM     46  O   UNL     1     111.979 130.811 143.441  0.00  0.00    +0.000 OA
ATOM     47  O   UNL     1     112.056 129.163 143.498  0.00  0.00    +0.000 OA
ATOM     48  C   UNL     1     111.859 130.318 141.318  0.00  0.00    +0.000 C 
ATOM     49  C   UNL     1     111.886 130.757 142.016  0.00  0.00    +0.000 C 
ATOM     50  C   UNL     1     111.951 130.371 142.742  0.00  0.00    +0.000 C 
ATOM     51  C   UNL     1     111.990 129.548 142.771  0.00  0.00    +0.000 C 
ATOM     52  C   UNL     1     111.963 129.110 142.073  0.00  0.00    +0.000 C 
ATOM     53  C   UNL     1     112.001 128.286 142.101  0.00  0.00    +0.000 C 
ENDBRANCH  43  48
ENDBRANCH  37  43
ENDBRANCH  33  41
ENDBRANCH  32  33
ENDBRANCH   5  32
TORSDOF 9
ENDMDL
MODEL 10
REMARK VINA RESULT:     -10.4      1.668      3.353
REMARK  Name = 44257995
REMARK  9 active torsions:
REMARK  status: ('A' for Active; 'I' for Inactive)
REMARK    1  A    between atoms: O_1  and  C_20
REMARK    2  A    between atoms: O_1  and  C_25
REMARK    3  A    between atoms: O_4  and  C_24
REMARK    4  A    between atoms: O_4  and  C_33
REMARK    5  A    between atoms: O_13  and  C_36
REMARK    6  A    between atoms: O_13  and  C_38
REMARK    7  A    between atoms: O_19  and  C_52
REMARK    8  A    between atoms: C_28  and  C_33
REMARK    9  A    between atoms: C_39  and  C_42
REMARK                            x       y       z     vdW  Elec       q    Type
REMARK                         _______ _______ _______ _____ _____    ______ ____
ROOT
ATOM      1  O   UNL     1     112.683 127.385 138.510  0.00  0.00    +0.000 OA
ATOM      2  O   UNL     1     113.024 126.303 136.644  0.00  0.00    +0.000 OA
ATOM      3  O   UNL     1     114.115 125.564 137.637  0.00  0.00    +0.000 OA
ATOM      4  O   UNL     1     114.251 126.038 139.211  0.00  0.00    +0.000 OA
ATOM      5  C   UNL     1     112.614 127.147 137.723  0.00  0.00    +0.000 C 
ATOM      6  C   UNL     1     113.092 126.540 137.431  0.00  0.00    +0.000 C 
ATOM      7  C   UNL     1     113.637 126.171 137.928  0.00  0.00    +0.000 C 
ATOM      8  C   UNL     1     113.705 126.408 138.715  0.00  0.00    +0.000 C 
ATOM      9  C   UNL     1     113.229 127.015 139.006  0.00  0.00    +0.000 C 
ENDROOT
BRANCH   9  10
ATOM     10  O   UNL     1     113.297 127.252 139.793  0.00  0.00    +0.000 OA
BRANCH  10  15
ATOM     11  O   UNL     1     111.864 128.383 140.989  0.00  0.00    +0.000 OA
ATOM     12  O   UNL     1     112.109 126.126 140.004  0.00  0.00    +0.000 OA
ATOM     13  O   UNL     1     110.830 125.724 140.538  0.00  0.00    +0.000 OA
ATOM     14  O   UNL     1     109.274 127.641 142.097  0.00  0.00    +0.000 OA
ATOM     15  C   UNL     1     112.621 127.442 140.227  0.00  0.00    +0.000 A 
ATOM     16  C   UNL     1     112.539 128.194 140.556  0.00  0.00    +0.000 A 
ATOM     17  C   UNL     1     112.027 126.879 140.333  0.00  0.00    +0.000 A 
ATOM     18  C   UNL     1     111.351 127.068 140.767  0.00  0.00    +0.000 A 
ATOM     19  C   UNL     1     111.269 127.821 141.095  0.00  0.00    +0.000 A 
ATOM     20  C   UNL     1     110.740 126.474 140.870  0.00  0.00    +0.000 A 
ATOM     21  C   UNL     1     110.571 128.031 141.549  0.00  0.00    +0.000 A 
ATOM     22  C   UNL     1     110.034 126.664 141.320  0.00  0.00    +0.000 A 
ATOM     23  C   UNL     1     109.948 127.449 141.663  0.00  0.00    +0.000 A 
BRANCH  16  24
ATOM     24  C   UNL     1     113.133 128.757 140.450  0.00  0.00    +0.000 A 
ATOM     25  C   UNL     1     113.846 128.687 140.859  0.00  0.00    +0.000 A 
ATOM     26  C   UNL     1     113.015 129.389 139.934  0.00  0.00    +0.000 A 
ATOM     27  C   UNL     1     114.440 129.249 140.753  0.00  0.00    +0.000 A 
ATOM     28  C   UNL     1     113.608 129.952 139.827  0.00  0.00    +0.000 A 
ATOM     29  C   UNL     1     114.321 129.882 140.237  0.00  0.00    +0.000 A 
BRANCH  29  30
ATOM     30  O   UNL     1     114.915 130.445 140.130  0.00  0.00    +0.000 OA
ATOM     31  C   UNL     1     115.079 130.990 140.727  0.00  0.00    +0.000 C 
ENDBRANCH  29  30
ENDBRANCH  16  24
ENDBRANCH  10  15
ENDBRANCH   9  10
BRANCH   5  32
ATOM     32  C   UNL     1     112.069 127.517 137.226  0.00  0.00    +0.000 C 
BRANCH  32  33
ATOM     33  O   UNL     1     111.272 127.544 137.436  0.00  0.00    +0.000 OA
BRANCH  33  41
ATOM     34  O   UNL     1     111.090 128.749 136.690  0.00  0.00    +0.000 OA
ATOM     35  O   UNL     1     108.635 128.463 136.824  0.00  0.00    +0.000 OA
ATOM     36  O   UNL     1     109.635 127.353 137.525  0.00  0.00    +0.000 OA
ATOM     37  C   UNL     1     109.773 129.209 136.384  0.00  0.00    +0.000 C 
ATOM     38  C   UNL     1     109.454 128.559 136.779  0.00  0.00    +0.000 C 
ATOM     39  C   UNL     1     110.591 129.305 136.339  0.00  0.00    +0.000 C 
ATOM     40  C   UNL     1     109.954 128.004 137.130  0.00  0.00    +0.000 C 
ATOM     41  C   UNL     1     110.772 128.100 137.085  0.00  0.00    +0.000 C 
ATOM     42  C   UNL     1     110.909 129.955 135.944  0.00  0.00    +0.000 C 
BRANCH  37  43
ATOM     43  O   UNL     1     109.272 129.764 136.033  0.00  0.00    +0.000 OA
BRANCH  43  48
ATOM     44  O   UNL     1     109.266 130.549 137.228  0.00  0.00    +0.000 OA
ATOM     45  O   UNL     1     107.979 130.617 135.466  0.00  0.00    +0.000 OA
ATOM     46  O   UNL     1     107.325 131.828 136.376  0.00  0.00    +0.000 OA
ATOM     47  O   UNL     1     107.966 132.187 137.854  0.00  0.00    +0.000 OA
ATOM     48  C   UNL     1     108.945 130.370 136.489  0.00  0.00    +0.000 C 
ATOM     49  C   UNL     1     108.299 130.796 136.205  0.00  0.00    +0.000 C 
ATOM     50  C   UNL     1     107.973 131.401 136.660  0.00  0.00    +0.000 C 
ATOM     51  C   UNL     1     108.293 131.581 137.399  0.00  0.00    +0.000 C 
ATOM     52  C   UNL     1     108.939 131.154 137.683  0.00  0.00    +0.000 C 
ATOM     53  C   UNL     1     109.259 131.334 138.421  0.00  0.00    +0.000 C 
ENDBRANCH  43  48
ENDBRANCH  37  43
ENDBRANCH  33  41
ENDBRANCH  32  33
ENDBRANCH   5  32
TORSDOF 9
ENDMDL
