MODEL 1
REMARK VINA RESULT:      -9.9      0.000      0.000
REMARK  Name = 44259783
REMARK  8 active torsions:
REMARK  status: ('A' for Active; 'I' for Inactive)
REMARK    1  A    between atoms: O_3  and  C_24
REMARK    2  A    between atoms: O_3  and  C_29
REMARK    3  A    between atoms: O_6  and  C_28
REMARK    4  A    between atoms: O_6  and  C_31
REMARK    5  A    between atoms: O_15  and  C_41
REMARK    6  A    between atoms: C_19  and  C_29
REMARK    7  A    between atoms: C_27  and  C_30
REMARK    8  A    between atoms: C_32  and  C_36
REMARK                            x       y       z     vdW  Elec       q    Type
REMARK                         _______ _______ _______ _____ _____    ______ ____
ROOT
ATOM      1  O   UNL     1     112.806 126.744 138.186  0.00  0.00    +0.000 OA
ENDROOT
BRANCH   1   6
ATOM      2  O   UNL     1     113.350 127.186 136.119  0.00  0.00    +0.000 OA
ATOM      3  O   UNL     1     113.175 128.349 138.297  0.00  0.00    +0.000 OA
ATOM      4  O   UNL     1     113.604 129.590 137.702  0.00  0.00    +0.000 OA
ATOM      5  O   UNL     1     114.223 129.656 134.848  0.00  0.00    +0.000 OA
ATOM      6  C   UNL     1     113.049 127.159 137.516  0.00  0.00    +0.000 A 
ATOM      7  C   UNL     1     113.107 126.771 136.790  0.00  0.00    +0.000 A 
ATOM      8  C   UNL     1     113.234 127.961 137.571  0.00  0.00    +0.000 A 
ATOM      9  C   UNL     1     113.476 128.376 136.901  0.00  0.00    +0.000 A 
ATOM     10  C   UNL     1     113.535 127.988 136.175  0.00  0.00    +0.000 A 
ATOM     11  C   UNL     1     113.666 129.211 136.971  0.00  0.00    +0.000 A 
ATOM     12  C   UNL     1     113.786 128.409 135.469  0.00  0.00    +0.000 A 
ATOM     13  C   UNL     1     113.919 129.648 136.277  0.00  0.00    +0.000 A 
ATOM     14  C   UNL     1     113.980 129.245 135.521  0.00  0.00    +0.000 A 
BRANCH   7  17
ATOM     15  O   UNL     1     111.309 124.695 135.999  0.00  0.00    +0.000 OA
ATOM     16  O   UNL     1     112.367 123.563 136.565  0.00  0.00    +0.000 OA
ATOM     17  C   UNL     1     112.923 125.969 136.734  0.00  0.00    +0.000 A 
ATOM     18  C   UNL     1     112.208 125.733 136.395  0.00  0.00    +0.000 A 
ATOM     19  C   UNL     1     113.452 125.403 137.017  0.00  0.00    +0.000 A 
ATOM     20  C   UNL     1     112.024 124.931 136.339  0.00  0.00    +0.000 A 
ATOM     21  C   UNL     1     113.266 124.601 136.961  0.00  0.00    +0.000 A 
ATOM     22  C   UNL     1     112.553 124.365 136.622  0.00  0.00    +0.000 A 
ENDBRANCH   7  17
BRANCH  13  23
ATOM     23  O   UNL     1     114.103 130.450 136.335  0.00  0.00    +0.000 OA
ATOM     24  C   UNL     1     114.886 130.700 136.270  0.00  0.00    +0.000 C 
ENDBRANCH  13  23
ENDBRANCH   1   6
BRANCH   1  33
ATOM     25  O   UNL     1     111.525 127.376 138.205  0.00  0.00    +0.000 OA
ATOM     26  O   UNL     1     110.118 127.710 139.839  0.00  0.00    +0.000 OA
ATOM     27  O   UNL     1     111.337 126.928 140.631  0.00  0.00    +0.000 OA
ATOM     28  O   UNL     1     112.681 126.445 139.804  0.00  0.00    +0.000 OA
ATOM     29  C   UNL     1     110.853 127.618 138.618  0.00  0.00    +0.000 C 
ATOM     30  C   UNL     1     110.790 127.468 139.426  0.00  0.00    +0.000 C 
ATOM     31  C   UNL     1     111.399 127.077 139.822  0.00  0.00    +0.000 C 
ATOM     32  C   UNL     1     112.071 126.836 139.409  0.00  0.00    +0.000 C 
ATOM     33  C   UNL     1     112.134 126.986 138.600  0.00  0.00    +0.000 C 
BRANCH  29  34
ATOM     34  C   UNL     1     110.244 128.009 138.222  0.00  0.00    +0.000 C 
BRANCH  34  35
ATOM     35  O   UNL     1     110.026 127.770 137.462  0.00  0.00    +0.000 OA
BRANCH  35  41
ATOM     36  O   UNL     1     109.913 129.074 136.888  0.00  0.00    +0.000 OA
ATOM     37  O   UNL     1     108.713 127.274 136.595  0.00  0.00    +0.000 OA
ATOM     38  O   UNL     1     107.944 128.329 135.587  0.00  0.00    +0.000 OA
ATOM     39  O   UNL     1     108.487 129.880 135.446  0.00  0.00    +0.000 OA
ATOM     40  C   UNL     1     108.985 128.049 136.524  0.00  0.00    +0.000 C 
ATOM     41  C   UNL     1     109.641 128.297 136.958  0.00  0.00    +0.000 C 
ATOM     42  C   UNL     1     108.600 128.577 136.020  0.00  0.00    +0.000 C 
ATOM     43  C   UNL     1     108.871 129.353 135.950  0.00  0.00    +0.000 C 
ATOM     44  C   UNL     1     109.528 129.601 136.384  0.00  0.00    +0.000 C 
BRANCH  44  46
ATOM     45  O   UNL     1     110.605 130.524 136.211  0.00  0.00    +0.000 OA
ATOM     46  C   UNL     1     109.800 130.376 136.314  0.00  0.00    +0.000 C 
ENDBRANCH  44  46
ENDBRANCH  35  41
ENDBRANCH  34  35
ENDBRANCH  29  34
ENDBRANCH   1  33
TORSDOF 8
ENDMDL
MODEL 2
REMARK VINA RESULT:      -9.9      1.748      3.568
REMARK  Name = 44259783
REMARK  8 active torsions:
REMARK  status: ('A' for Active; 'I' for Inactive)
REMARK    1  A    between atoms: O_3  and  C_24
REMARK    2  A    between atoms: O_3  and  C_29
REMARK    3  A    between atoms: O_6  and  C_28
REMARK    4  A    between atoms: O_6  and  C_31
REMARK    5  A    between atoms: O_15  and  C_41
REMARK    6  A    between atoms: C_19  and  C_29
REMARK    7  A    between atoms: C_27  and  C_30
REMARK    8  A    between atoms: C_32  and  C_36
REMARK                            x       y       z     vdW  Elec       q    Type
REMARK                         _______ _______ _______ _____ _____    ______ ____
ROOT
ATOM      1  O   UNL     1     111.715 126.119 137.831  0.00  0.00    +0.000 OA
ENDROOT
BRANCH   1   6
ATOM      2  O   UNL     1     112.799 127.094 136.207  0.00  0.00    +0.000 OA
ATOM      3  O   UNL     1     110.702 127.376 137.491  0.00  0.00    +0.000 OA
ATOM      4  O   UNL     1     110.361 128.553 136.731  0.00  0.00    +0.000 OA
ATOM      5  O   UNL     1     112.177 129.463 134.632  0.00  0.00    +0.000 OA
ATOM      6  C   UNL     1     111.907 126.653 137.234  0.00  0.00    +0.000 A 
ATOM      7  C   UNL     1     112.606 126.559 136.806  0.00  0.00    +0.000 A 
ATOM      8  C   UNL     1     111.401 127.282 137.063  0.00  0.00    +0.000 A 
ATOM      9  C   UNL     1     111.593 127.817 136.466  0.00  0.00    +0.000 A 
ATOM     10  C   UNL     1     112.293 127.723 136.038  0.00  0.00    +0.000 A 
ATOM     11  C   UNL     1     111.058 128.468 136.298  0.00  0.00    +0.000 A 
ATOM     12  C   UNL     1     112.504 128.273 135.412  0.00  0.00    +0.000 A 
ATOM     13  C   UNL     1     111.253 129.027 135.676  0.00  0.00    +0.000 A 
ATOM     14  C   UNL     1     111.981 128.930 135.231  0.00  0.00    +0.000 A 
BRANCH   7  17
ATOM     15  O   UNL     1     114.992 125.565 138.027  0.00  0.00    +0.000 OA
ATOM     16  O   UNL     1     114.636 124.048 137.486  0.00  0.00    +0.000 OA
ATOM     17  C   UNL     1     113.113 125.931 136.976  0.00  0.00    +0.000 A 
ATOM     18  C   UNL     1     113.799 126.062 137.416  0.00  0.00    +0.000 A 
ATOM     19  C   UNL     1     112.935 125.172 136.706  0.00  0.00    +0.000 A 
ATOM     20  C   UNL     1     114.306 125.434 137.586  0.00  0.00    +0.000 A 
ATOM     21  C   UNL     1     113.443 124.545 136.876  0.00  0.00    +0.000 A 
ATOM     22  C   UNL     1     114.128 124.675 137.316  0.00  0.00    +0.000 A 
ENDBRANCH   7  17
BRANCH  13  23
ATOM     23  O   UNL     1     110.745 129.655 135.508  0.00  0.00    +0.000 OA
ATOM     24  C   UNL     1     110.232 129.610 134.864  0.00  0.00    +0.000 C 
ENDBRANCH  13  23
ENDBRANCH   1   6
BRANCH   1  33
ATOM     25  O   UNL     1     111.986 127.063 138.870  0.00  0.00    +0.000 OA
ATOM     26  O   UNL     1     111.234 127.194 140.914  0.00  0.00    +0.000 OA
ATOM     27  O   UNL     1     110.451 125.844 140.380  0.00  0.00    +0.000 OA
ATOM     28  O   UNL     1     110.692 125.306 138.839  0.00  0.00    +0.000 OA
ATOM     29  C   UNL     1     111.866 127.332 139.640  0.00  0.00    +0.000 C 
ATOM     30  C   UNL     1     111.354 126.926 140.143  0.00  0.00    +0.000 C 
ATOM     31  C   UNL     1     110.963 126.250 139.877  0.00  0.00    +0.000 C 
ATOM     32  C   UNL     1     111.083 125.981 139.106  0.00  0.00    +0.000 C 
ATOM     33  C   UNL     1     111.595 126.388 138.602  0.00  0.00    +0.000 C 
BRANCH  29  34
ATOM     34  C   UNL     1     112.258 128.007 139.907  0.00  0.00    +0.000 C 
BRANCH  34  35
ATOM     35  O   UNL     1     113.077 128.067 139.828  0.00  0.00    +0.000 OA
BRANCH  35  41
ATOM     36  O   UNL     1     113.194 129.338 139.185  0.00  0.00    +0.000 OA
ATOM     37  O   UNL     1     114.268 128.492 140.887  0.00  0.00    +0.000 OA
ATOM     38  O   UNL     1     114.981 129.976 140.774  0.00  0.00    +0.000 OA
ATOM     39  O   UNL     1     114.503 131.033 139.603  0.00  0.00    +0.000 OA
ATOM     40  C   UNL     1     114.029 129.021 140.302  0.00  0.00    +0.000 C 
ATOM     41  C   UNL     1     113.434 128.808 139.772  0.00  0.00    +0.000 C 
ATOM     42  C   UNL     1     114.386 129.763 140.245  0.00  0.00    +0.000 C 
ATOM     43  C   UNL     1     114.147 130.292 139.659  0.00  0.00    +0.000 C 
ATOM     44  C   UNL     1     113.551 130.079 139.129  0.00  0.00    +0.000 C 
BRANCH  44  46
ATOM     45  O   UNL     1     112.519 130.826 138.483  0.00  0.00    +0.000 OA
ATOM     46  C   UNL     1     113.312 130.608 138.543  0.00  0.00    +0.000 C 
ENDBRANCH  44  46
ENDBRANCH  35  41
ENDBRANCH  34  35
ENDBRANCH  29  34
ENDBRANCH   1  33
TORSDOF 8
ENDMDL
MODEL 3
REMARK VINA RESULT:      -9.8      1.711      4.047
REMARK  Name = 44259783
REMARK  8 active torsions:
REMARK  status: ('A' for Active; 'I' for Inactive)
REMARK    1  A    between atoms: O_3  and  C_24
REMARK    2  A    between atoms: O_3  and  C_29
REMARK    3  A    between atoms: O_6  and  C_28
REMARK    4  A    between atoms: O_6  and  C_31
REMARK    5  A    between atoms: O_15  and  C_41
REMARK    6  A    between atoms: C_19  and  C_29
REMARK    7  A    between atoms: C_27  and  C_30
REMARK    8  A    between atoms: C_32  and  C_36
REMARK                            x       y       z     vdW  Elec       q    Type
REMARK                         _______ _______ _______ _____ _____    ______ ____
ROOT
ATOM      1  O   UNL     1     111.850 125.380 136.843  0.00  0.00    +0.000 OA
ENDROOT
BRANCH   1   6
ATOM      2  O   UNL     1     112.964 125.991 138.618  0.00  0.00    +0.000 OA
ATOM      3  O   UNL     1     110.621 125.861 137.833  0.00  0.00    +0.000 OA
ATOM      4  O   UNL     1     110.141 126.388 139.087  0.00  0.00    +0.000 OA
ATOM      5  O   UNL     1     112.070 127.060 141.175  0.00  0.00    +0.000 OA
ATOM      6  C   UNL     1     112.016 125.663 137.599  0.00  0.00    +0.000 A 
ATOM      7  C   UNL     1     112.798 125.707 137.861  0.00  0.00    +0.000 A 
ATOM      8  C   UNL     1     111.402 125.904 138.095  0.00  0.00    +0.000 A 
ATOM      9  C   UNL     1     111.568 126.188 138.851  0.00  0.00    +0.000 A 
ATOM     10  C   UNL     1     112.349 126.231 139.113  0.00  0.00    +0.000 A 
ATOM     11  C   UNL     1     110.919 126.435 139.357  0.00  0.00    +0.000 A 
ATOM     12  C   UNL     1     112.535 126.525 139.899  0.00  0.00    +0.000 A 
ATOM     13  C   UNL     1     111.086 126.732 140.146  0.00  0.00    +0.000 A 
ATOM     14  C   UNL     1     111.899 126.777 140.418  0.00  0.00    +0.000 A 
BRANCH   7  17
ATOM     15  O   UNL     1     114.962 126.355 136.111  0.00  0.00    +0.000 OA
ATOM     16  O   UNL     1     115.259 124.748 135.883  0.00  0.00    +0.000 OA
ATOM     17  C   UNL     1     113.413 125.466 137.367  0.00  0.00    +0.000 A 
ATOM     18  C   UNL     1     113.880 126.031 136.986  0.00  0.00    +0.000 A 
ATOM     19  C   UNL     1     113.561 124.663 137.253  0.00  0.00    +0.000 A 
ATOM     20  C   UNL     1     114.495 125.790 136.492  0.00  0.00    +0.000 A 
ATOM     21  C   UNL     1     114.177 124.424 136.758  0.00  0.00    +0.000 A 
ATOM     22  C   UNL     1     114.643 124.987 136.378  0.00  0.00    +0.000 A 
ENDBRANCH   7  17
BRANCH  13  23
ATOM     23  O   UNL     1     110.469 126.972 140.639  0.00  0.00    +0.000 OA
ATOM     24  C   UNL     1     110.227 126.489 141.262  0.00  0.00    +0.000 C 
ENDBRANCH  13  23
ENDBRANCH   1   6
BRANCH   1  33
ATOM     25  O   UNL     1     111.580 126.678 136.310  0.00  0.00    +0.000 OA
ATOM     26  O   UNL     1     110.292 127.307 134.664  0.00  0.00    +0.000 OA
ATOM     27  O   UNL     1     110.054 125.674 134.641  0.00  0.00    +0.000 OA
ATOM     28  O   UNL     1     110.833 124.711 135.730  0.00  0.00    +0.000 OA
ATOM     29  C   UNL     1     111.190 127.160 135.765  0.00  0.00    +0.000 C 
ATOM     30  C   UNL     1     110.682 126.825 135.209  0.00  0.00    +0.000 C 
ATOM     31  C   UNL     1     110.562 126.009 135.197  0.00  0.00    +0.000 C 
ATOM     32  C   UNL     1     110.951 125.527 135.741  0.00  0.00    +0.000 C 
ATOM     33  C   UNL     1     111.461 125.862 136.299  0.00  0.00    +0.000 C 
BRANCH  29  34
ATOM     34  C   UNL     1     111.310 127.976 135.778  0.00  0.00    +0.000 C 
BRANCH  34  35
ATOM     35  O   UNL     1     112.076 128.279 135.800  0.00  0.00    +0.000 OA
BRANCH  35  41
ATOM     36  O   UNL     1     111.768 129.258 136.795  0.00  0.00    +0.000 OA
ATOM     37  O   UNL     1     113.268 129.256 135.209  0.00  0.00    +0.000 OA
ATOM     38  O   UNL     1     113.554 130.723 135.909  0.00  0.00    +0.000 OA
ATOM     39  O   UNL     1     112.650 131.213 137.198  0.00  0.00    +0.000 OA
ATOM     40  C   UNL     1     112.816 129.501 135.854  0.00  0.00    +0.000 C 
ATOM     41  C   UNL     1     112.220 129.013 136.149  0.00  0.00    +0.000 C 
ATOM     42  C   UNL     1     112.959 130.235 136.204  0.00  0.00    +0.000 C 
ATOM     43  C   UNL     1     112.507 130.480 136.849  0.00  0.00    +0.000 C 
ATOM     44  C   UNL     1     111.911 129.991 137.144  0.00  0.00    +0.000 C 
BRANCH  44  46
ATOM     45  O   UNL     1     111.375 129.743 138.445  0.00  0.00    +0.000 OA
ATOM     46  C   UNL     1     111.459 130.236 137.789  0.00  0.00    +0.000 C 
ENDBRANCH  44  46
ENDBRANCH  35  41
ENDBRANCH  34  35
ENDBRANCH  29  34
ENDBRANCH   1  33
TORSDOF 8
ENDMDL
MODEL 4
REMARK VINA RESULT:      -9.8      1.428      2.027
REMARK  Name = 44259783
REMARK  8 active torsions:
REMARK  status: ('A' for Active; 'I' for Inactive)
REMARK    1  A    between atoms: O_3  and  C_24
REMARK    2  A    between atoms: O_3  and  C_29
REMARK    3  A    between atoms: O_6  and  C_28
REMARK    4  A    between atoms: O_6  and  C_31
REMARK    5  A    between atoms: O_15  and  C_41
REMARK    6  A    between atoms: C_19  and  C_29
REMARK    7  A    between atoms: C_27  and  C_30
REMARK    8  A    between atoms: C_32  and  C_36
REMARK                            x       y       z     vdW  Elec       q    Type
REMARK                         _______ _______ _______ _____ _____    ______ ____
ROOT
ATOM      1  O   UNL     1     111.226 127.288 137.212  0.00  0.00    +0.000 OA
ENDROOT
BRANCH   1   6
ATOM      2  O   UNL     1     112.194 128.010 135.393  0.00  0.00    +0.000 OA
ATOM      3  O   UNL     1     112.299 128.374 137.839  0.00  0.00    +0.000 OA
ATOM      4  O   UNL     1     113.348 129.351 137.677  0.00  0.00    +0.000 OA
ATOM      5  O   UNL     1     114.308 129.971 134.989  0.00  0.00    +0.000 OA
ATOM      6  C   UNL     1     111.727 127.709 136.710  0.00  0.00    +0.000 A 
ATOM      7  C   UNL     1     111.692 127.588 135.895  0.00  0.00    +0.000 A 
ATOM      8  C   UNL     1     112.264 128.252 137.023  0.00  0.00    +0.000 A 
ATOM      9  C   UNL     1     112.765 128.673 136.522  0.00  0.00    +0.000 A 
ATOM     10  C   UNL     1     112.730 128.552 135.707  0.00  0.00    +0.000 A 
ATOM     11  C   UNL     1     113.320 129.236 136.861  0.00  0.00    +0.000 A 
ATOM     12  C   UNL     1     113.247 128.985 135.174  0.00  0.00    +0.000 A 
ATOM     13  C   UNL     1     113.844 129.678 136.343  0.00  0.00    +0.000 A 
ATOM     14  C   UNL     1     113.808 129.551 135.494  0.00  0.00    +0.000 A 
BRANCH   7  17
ATOM     15  O   UNL     1     110.863 124.884 135.483  0.00  0.00    +0.000 OA
ATOM     16  O   UNL     1     109.548 125.416 134.640  0.00  0.00    +0.000 OA
ATOM     17  C   UNL     1     111.156 127.046 135.581  0.00  0.00    +0.000 A 
ATOM     18  C   UNL     1     111.277 126.236 135.689  0.00  0.00    +0.000 A 
ATOM     19  C   UNL     1     110.498 127.311 135.160  0.00  0.00    +0.000 A 
ATOM     20  C   UNL     1     110.741 125.694 135.375  0.00  0.00    +0.000 A 
ATOM     21  C   UNL     1     109.962 126.768 134.846  0.00  0.00    +0.000 A 
ATOM     22  C   UNL     1     110.084 125.959 134.954  0.00  0.00    +0.000 A 
ENDBRANCH   7  17
BRANCH  13  23
ATOM     23  O   UNL     1     114.380 130.220 136.659  0.00  0.00    +0.000 OA
ATOM     24  C   UNL     1     114.222 131.028 136.619  0.00  0.00    +0.000 C 
ENDBRANCH  13  23
ENDBRANCH   1   6
BRANCH   1  33
ATOM     25  O   UNL     1     110.367 128.401 137.469  0.00  0.00    +0.000 OA
ATOM     26  O   UNL     1     109.164 128.903 139.219  0.00  0.00    +0.000 OA
ATOM     27  O   UNL     1     109.850 127.485 139.709  0.00  0.00    +0.000 OA
ATOM     28  O   UNL     1     110.881 126.677 138.705  0.00  0.00    +0.000 OA
ATOM     29  C   UNL     1     109.852 128.805 137.971  0.00  0.00    +0.000 C 
ATOM     30  C   UNL     1     109.680 128.500 138.717  0.00  0.00    +0.000 C 
ATOM     31  C   UNL     1     110.022 127.790 138.963  0.00  0.00    +0.000 C 
ATOM     32  C   UNL     1     110.538 127.386 138.461  0.00  0.00    +0.000 C 
ATOM     33  C   UNL     1     110.711 127.692 137.714  0.00  0.00    +0.000 C 
BRANCH  29  34
ATOM     34  C   UNL     1     109.509 129.514 137.726  0.00  0.00    +0.000 C 
BRANCH  34  35
ATOM     35  O   UNL     1     109.144 129.561 136.988  0.00  0.00    +0.000 OA
BRANCH  35  41
ATOM     36  O   UNL     1     109.584 130.897 136.734  0.00  0.00    +0.000 OA
ATOM     37  O   UNL     1     107.802 129.829 136.065  0.00  0.00    +0.000 OA
ATOM     38  O   UNL     1     107.572 131.299 135.351  0.00  0.00    +0.000 OA
ATOM     39  O   UNL     1     108.683 132.499 135.559  0.00  0.00    +0.000 OA
ATOM     40  C   UNL     1     108.357 130.430 136.169  0.00  0.00    +0.000 C 
ATOM     41  C   UNL     1     109.028 130.296 136.630  0.00  0.00    +0.000 C 
ATOM     42  C   UNL     1     108.243 131.165 135.812  0.00  0.00    +0.000 C 
ATOM     43  C   UNL     1     108.798 131.765 135.916  0.00  0.00    +0.000 C 
ATOM     44  C   UNL     1     109.469 131.631 136.377  0.00  0.00    +0.000 C 
BRANCH  44  46
ATOM     45  O   UNL     1     110.825 132.045 136.552  0.00  0.00    +0.000 OA
ATOM     46  C   UNL     1     110.025 132.232 136.481  0.00  0.00    +0.000 C 
ENDBRANCH  44  46
ENDBRANCH  35  41
ENDBRANCH  34  35
ENDBRANCH  29  34
ENDBRANCH   1  33
TORSDOF 8
ENDMDL
MODEL 5
REMARK VINA RESULT:      -9.7      1.630      4.657
REMARK  Name = 44259783
REMARK  8 active torsions:
REMARK  status: ('A' for Active; 'I' for Inactive)
REMARK    1  A    between atoms: O_3  and  C_24
REMARK    2  A    between atoms: O_3  and  C_29
REMARK    3  A    between atoms: O_6  and  C_28
REMARK    4  A    between atoms: O_6  and  C_31
REMARK    5  A    between atoms: O_15  and  C_41
REMARK    6  A    between atoms: C_19  and  C_29
REMARK    7  A    between atoms: C_27  and  C_30
REMARK    8  A    between atoms: C_32  and  C_36
REMARK                            x       y       z     vdW  Elec       q    Type
REMARK                         _______ _______ _______ _____ _____    ______ ____
ROOT
ATOM      1  O   UNL     1     112.302 128.653 135.517  0.00  0.00    +0.000 OA
ENDROOT
BRANCH   1   6
ATOM      2  O   UNL     1     113.983 127.525 136.334  0.00  0.00    +0.000 OA
ATOM      3  O   UNL     1     111.554 127.247 135.950  0.00  0.00    +0.000 OA
ATOM      4  O   UNL     1     111.587 125.919 136.511  0.00  0.00    +0.000 OA
ATOM      5  O   UNL     1     114.128 124.851 137.479  0.00  0.00    +0.000 OA
ATOM      6  C   UNL     1     112.737 128.043 135.861  0.00  0.00    +0.000 A 
ATOM      7  C   UNL     1     113.547 128.135 135.989  0.00  0.00    +0.000 A 
ATOM      8  C   UNL     1     112.363 127.340 136.078  0.00  0.00    +0.000 A 
ATOM      9  C   UNL     1     112.798 126.730 136.422  0.00  0.00    +0.000 A 
ATOM     10  C   UNL     1     113.608 126.822 136.550  0.00  0.00    +0.000 A 
ATOM     11  C   UNL     1     112.397 126.002 136.643  0.00  0.00    +0.000 A 
ATOM     12  C   UNL     1     114.073 126.194 136.908  0.00  0.00    +0.000 A 
ATOM     13  C   UNL     1     112.846 125.363 137.002  0.00  0.00    +0.000 A 
ATOM     14  C   UNL     1     113.689 125.460 137.135  0.00  0.00    +0.000 A 
BRANCH   7  17
ATOM     15  O   UNL     1     114.723 130.636 136.716  0.00  0.00    +0.000 OA
ATOM     16  O   UNL     1     115.046 130.946 135.127  0.00  0.00    +0.000 OA
ATOM     17  C   UNL     1     113.921 128.838 135.773  0.00  0.00    +0.000 A 
ATOM     18  C   UNL     1     114.135 129.386 136.352  0.00  0.00    +0.000 A 
ATOM     19  C   UNL     1     114.082 128.993 134.979  0.00  0.00    +0.000 A 
ATOM     20  C   UNL     1     114.510 130.088 136.136  0.00  0.00    +0.000 A 
ATOM     21  C   UNL     1     114.457 129.696 134.764  0.00  0.00    +0.000 A 
ATOM     22  C   UNL     1     114.671 130.243 135.342  0.00  0.00    +0.000 A 
ENDBRANCH   7  17
BRANCH  13  23
ATOM     23  O   UNL     1     112.469 124.662 137.217  0.00  0.00    +0.000 OA
ATOM     24  C   UNL     1     112.534 123.994 136.738  0.00  0.00    +0.000 C 
ENDBRANCH  13  23
ENDBRANCH   1   6
BRANCH   1  33
ATOM     25  O   UNL     1     111.681 129.042 136.744  0.00  0.00    +0.000 OA
ATOM     26  O   UNL     1     109.746 129.971 137.135  0.00  0.00    +0.000 OA
ATOM     27  O   UNL     1     109.708 129.853 135.490  0.00  0.00    +0.000 OA
ATOM     28  O   UNL     1     110.986 129.193 134.681  0.00  0.00    +0.000 OA
ATOM     29  C   UNL     1     111.042 129.372 137.149  0.00  0.00    +0.000 C 
ATOM     30  C   UNL     1     110.385 129.642 136.731  0.00  0.00    +0.000 C 
ATOM     31  C   UNL     1     110.365 129.583 135.908  0.00  0.00    +0.000 C 
ATOM     32  C   UNL     1     111.004 129.253 135.504  0.00  0.00    +0.000 C 
ATOM     33  C   UNL     1     111.663 128.982 135.922  0.00  0.00    +0.000 C 
BRANCH  29  34
ATOM     34  C   UNL     1     111.062 129.431 137.972  0.00  0.00    +0.000 C 
BRANCH  34  35
ATOM     35  O   UNL     1     111.700 129.798 138.343  0.00  0.00    +0.000 OA
BRANCH  35  41
ATOM     36  O   UNL     1     111.889 128.832 139.379  0.00  0.00    +0.000 OA
ATOM     37  O   UNL     1     112.044 131.009 139.410  0.00  0.00    +0.000 OA
ATOM     38  O   UNL     1     112.405 130.648 140.979  0.00  0.00    +0.000 OA
ATOM     39  O   UNL     1     112.422 129.077 141.481  0.00  0.00    +0.000 OA
ATOM     40  C   UNL     1     112.053 130.224 139.661  0.00  0.00    +0.000 C 
ATOM     41  C   UNL     1     111.881 129.618 139.128  0.00  0.00    +0.000 C 
ATOM     42  C   UNL     1     112.233 130.042 140.446  0.00  0.00    +0.000 C 
ATOM     43  C   UNL     1     112.242 129.257 140.697  0.00  0.00    +0.000 C 
ATOM     44  C   UNL     1     112.070 128.652 140.164  0.00  0.00    +0.000 C 
BRANCH  44  46
ATOM     45  O   UNL     1     112.424 127.285 139.941  0.00  0.00    +0.000 OA
ATOM     46  C   UNL     1     112.078 127.866 140.414  0.00  0.00    +0.000 C 
ENDBRANCH  44  46
ENDBRANCH  35  41
ENDBRANCH  34  35
ENDBRANCH  29  34
ENDBRANCH   1  33
TORSDOF 8
ENDMDL
MODEL 6
REMARK VINA RESULT:      -9.6      1.720      4.290
REMARK  Name = 44259783
REMARK  8 active torsions:
REMARK  status: ('A' for Active; 'I' for Inactive)
REMARK    1  A    between atoms: O_3  and  C_24
REMARK    2  A    between atoms: O_3  and  C_29
REMARK    3  A    between atoms: O_6  and  C_28
REMARK    4  A    between atoms: O_6  and  C_31
REMARK    5  A    between atoms: O_15  and  C_41
REMARK    6  A    between atoms: C_19  and  C_29
REMARK    7  A    between atoms: C_27  and  C_30
REMARK    8  A    between atoms: C_32  and  C_36
REMARK                            x       y       z     vdW  Elec       q    Type
REMARK                         _______ _______ _______ _____ _____    ______ ____
ROOT
ATOM      1  O   UNL     1     113.309 127.683 136.006  0.00  0.00    +0.000 OA
ENDROOT
BRANCH   1   6
ATOM      2  O   UNL     1     111.604 126.592 136.821  0.00  0.00    +0.000 OA
ATOM      3  O   UNL     1     112.055 128.523 135.340  0.00  0.00    +0.000 OA
ATOM      4  O   UNL     1     110.642 128.744 135.150  0.00  0.00    +0.000 OA
ATOM      5  O   UNL     1     108.737 126.976 136.483  0.00  0.00    +0.000 OA
ATOM      6  C   UNL     1     112.532 127.460 136.166  0.00  0.00    +0.000 A 
ATOM      7  C   UNL     1     112.382 126.816 136.660  0.00  0.00    +0.000 A 
ATOM      8  C   UNL     1     111.905 127.879 135.834  0.00  0.00    +0.000 A 
ATOM      9  C   UNL     1     111.127 127.656 135.994  0.00  0.00    +0.000 A 
ATOM     10  C   UNL     1     110.977 127.012 136.488  0.00  0.00    +0.000 A 
ATOM     11  C   UNL     1     110.482 128.102 135.642  0.00  0.00    +0.000 A 
ATOM     12  C   UNL     1     110.171 126.769 136.663  0.00  0.00    +0.000 A 
ATOM     13  C   UNL     1     109.671 127.873 135.806  0.00  0.00    +0.000 A 
ATOM     14  C   UNL     1     109.514 127.203 136.319  0.00  0.00    +0.000 A 
BRANCH   7  17
ATOM     15  O   UNL     1     113.971 126.132 138.935  0.00  0.00    +0.000 OA
ATOM     16  O   UNL     1     114.889 125.135 137.994  0.00  0.00    +0.000 OA
ATOM     17  C   UNL     1     113.009 126.395 136.993  0.00  0.00    +0.000 A 
ATOM     18  C   UNL     1     113.176 126.474 137.797  0.00  0.00    +0.000 A 
ATOM     19  C   UNL     1     113.468 125.897 136.522  0.00  0.00    +0.000 A 
ATOM     20  C   UNL     1     113.803 126.053 138.130  0.00  0.00    +0.000 A 
ATOM     21  C   UNL     1     114.095 125.477 136.857  0.00  0.00    +0.000 A 
ATOM     22  C   UNL     1     114.262 125.555 137.660  0.00  0.00    +0.000 A 
ENDBRANCH   7  17
BRANCH  13  23
ATOM     23  O   UNL     1     109.045 128.295 135.472  0.00  0.00    +0.000 OA
ATOM     24  C   UNL     1     108.664 128.882 135.907  0.00  0.00    +0.000 C 
ENDBRANCH  13  23
ENDBRANCH   1   6
BRANCH   1  33
ATOM     25  O   UNL     1     113.272 128.837 136.848  0.00  0.00    +0.000 OA
ATOM     26  O   UNL     1     114.325 130.743 136.710  0.00  0.00    +0.000 OA
ATOM     27  O   UNL     1     114.909 129.966 135.377  0.00  0.00    +0.000 OA
ATOM     28  O   UNL     1     114.401 128.436 135.024  0.00  0.00    +0.000 OA
ATOM     29  C   UNL     1     113.526 129.602 137.024  0.00  0.00    +0.000 C 
ATOM     30  C   UNL     1     114.071 129.978 136.534  0.00  0.00    +0.000 C 
ATOM     31  C   UNL     1     114.364 129.590 135.867  0.00  0.00    +0.000 C 
ATOM     32  C   UNL     1     114.110 128.825 135.691  0.00  0.00    +0.000 C 
ATOM     33  C   UNL     1     113.563 128.448 136.182  0.00  0.00    +0.000 C 
BRANCH  29  34
ATOM     34  C   UNL     1     113.233 129.990 137.691  0.00  0.00    +0.000 C 
BRANCH  34  35
ATOM     35  O   UNL     1     113.306 129.641 138.436  0.00  0.00    +0.000 OA
BRANCH  35  41
ATOM     36  O   UNL     1     111.976 129.849 138.915  0.00  0.00    +0.000 OA
ATOM     37  O   UNL     1     113.906 130.080 139.909  0.00  0.00    +0.000 OA
ATOM     38  O   UNL     1     112.876 130.508 141.125  0.00  0.00    +0.000 OA
ATOM     39  O   UNL     1     111.247 130.497 140.867  0.00  0.00    +0.000 OA
ATOM     40  C   UNL     1     113.091 130.074 139.780  0.00  0.00    +0.000 C 
ATOM     41  C   UNL     1     112.791 129.855 139.044  0.00  0.00    +0.000 C 
ATOM     42  C   UNL     1     112.576 130.288 140.388  0.00  0.00    +0.000 C 
ATOM     43  C   UNL     1     111.762 130.283 140.260  0.00  0.00    +0.000 C 
ATOM     44  C   UNL     1     111.462 130.064 139.524  0.00  0.00    +0.000 C 
BRANCH  44  46
ATOM     45  O   UNL     1     110.300 129.442 138.968  0.00  0.00    +0.000 OA
ATOM     46  C   UNL     1     110.647 130.058 139.394  0.00  0.00    +0.000 C 
ENDBRANCH  44  46
ENDBRANCH  35  41
ENDBRANCH  34  35
ENDBRANCH  29  34
ENDBRANCH   1  33
TORSDOF 8
ENDMDL
MODEL 7
REMARK VINA RESULT:      -9.6      1.126      4.518
REMARK  Name = 44259783
REMARK  8 active torsions:
REMARK  status: ('A' for Active; 'I' for Inactive)
REMARK    1  A    between atoms: O_3  and  C_24
REMARK    2  A    between atoms: O_3  and  C_29
REMARK    3  A    between atoms: O_6  and  C_28
REMARK    4  A    between atoms: O_6  and  C_31
REMARK    5  A    between atoms: O_15  and  C_41
REMARK    6  A    between atoms: C_19  and  C_29
REMARK    7  A    between atoms: C_27  and  C_30
REMARK    8  A    between atoms: C_32  and  C_36
REMARK                            x       y       z     vdW  Elec       q    Type
REMARK                         _______ _______ _______ _____ _____    ______ ____
ROOT
ATOM      1  O   UNL     1     111.850 128.213 135.656  0.00  0.00    +0.000 OA
ENDROOT
BRANCH   1   6
ATOM      2  O   UNL     1     113.524 127.074 136.471  0.00  0.00    +0.000 OA
ATOM      3  O   UNL     1     111.209 126.693 135.681  0.00  0.00    +0.000 OA
ATOM      4  O   UNL     1     111.314 125.282 135.963  0.00  0.00    +0.000 OA
ATOM      5  O   UNL     1     113.809 124.237 137.066  0.00  0.00    +0.000 OA
ATOM      6  C   UNL     1     112.300 127.580 135.931  0.00  0.00    +0.000 A 
ATOM      7  C   UNL     1     113.072 127.707 136.195  0.00  0.00    +0.000 A 
ATOM      8  C   UNL     1     111.981 126.820 135.944  0.00  0.00    +0.000 A 
ATOM      9  C   UNL     1     112.431 126.187 136.220  0.00  0.00    +0.000 A 
ATOM     10  C   UNL     1     113.203 126.314 136.483  0.00  0.00    +0.000 A 
ATOM     11  C   UNL     1     112.086 125.400 136.229  0.00  0.00    +0.000 A 
ATOM     12  C   UNL     1     113.683 125.662 136.773  0.00  0.00    +0.000 A 
ATOM     13  C   UNL     1     112.551 124.736 136.515  0.00  0.00    +0.000 A 
ATOM     14  C   UNL     1     113.354 124.869 136.789  0.00  0.00    +0.000 A 
BRANCH   7  17
ATOM     15  O   UNL     1     113.844 130.090 137.572  0.00  0.00    +0.000 OA
ATOM     16  O   UNL     1     114.355 130.747 136.147  0.00  0.00    +0.000 OA
ATOM     17  C   UNL     1     113.393 128.467 136.182  0.00  0.00    +0.000 A 
ATOM     18  C   UNL     1     113.458 128.899 136.883  0.00  0.00    +0.000 A 
ATOM     19  C   UNL     1     113.648 128.796 135.470  0.00  0.00    +0.000 A 
ATOM     20  C   UNL     1     113.779 129.658 136.871  0.00  0.00    +0.000 A 
ATOM     21  C   UNL     1     113.969 129.556 135.459  0.00  0.00    +0.000 A 
ATOM     22  C   UNL     1     114.035 129.987 136.158  0.00  0.00    +0.000 A 
ENDBRANCH   7  17
BRANCH  13  23
ATOM     23  O   UNL     1     112.228 123.977 136.527  0.00  0.00    +0.000 OA
ATOM     24  C   UNL     1     111.962 123.653 137.236  0.00  0.00    +0.000 C 
ENDBRANCH  13  23
ENDBRANCH   1   6
BRANCH   1  33
ATOM     25  O   UNL     1     111.034 128.293 136.826  0.00  0.00    +0.000 OA
ATOM     26  O   UNL     1     108.962 128.927 137.083  0.00  0.00    +0.000 OA
ATOM     27  O   UNL     1     109.149 129.125 135.456  0.00  0.00    +0.000 OA
ATOM     28  O   UNL     1     110.593 128.768 134.742  0.00  0.00    +0.000 OA
ATOM     29  C   UNL     1     110.311 128.471 137.183  0.00  0.00    +0.000 C 
ATOM     30  C   UNL     1     109.684 128.749 136.726  0.00  0.00    +0.000 C 
ATOM     31  C   UNL     1     109.777 128.848 135.912  0.00  0.00    +0.000 C 
ATOM     32  C   UNL     1     110.499 128.669 135.556  0.00  0.00    +0.000 C 
ATOM     33  C   UNL     1     111.128 128.392 136.013  0.00  0.00    +0.000 C 
BRANCH  29  34
ATOM     34  C   UNL     1     110.218 128.372 137.997  0.00  0.00    +0.000 C 
BRANCH  34  35
ATOM     35  O   UNL     1     110.743 128.737 138.519  0.00  0.00    +0.000 OA
BRANCH  35  41
ATOM     36  O   UNL     1     110.991 127.619 139.373  0.00  0.00    +0.000 OA
ATOM     37  O   UNL     1     110.697 129.732 139.835  0.00  0.00    +0.000 OA
ATOM     38  O   UNL     1     110.923 129.111 141.346  0.00  0.00    +0.000 OA
ATOM     39  O   UNL     1     111.194 127.496 141.542  0.00  0.00    +0.000 OA
ATOM     40  C   UNL     1     110.833 128.925 139.933  0.00  0.00    +0.000 C 
ATOM     41  C   UNL     1     110.855 128.427 139.275  0.00  0.00    +0.000 C 
ATOM     42  C   UNL     1     110.946 128.614 140.689  0.00  0.00    +0.000 C 
ATOM     43  C   UNL     1     111.081 127.807 140.787  0.00  0.00    +0.000 C 
ATOM     44  C   UNL     1     111.104 127.309 140.129  0.00  0.00    +0.000 C 
BRANCH  44  46
ATOM     45  O   UNL     1     111.778 126.111 139.738  0.00  0.00    +0.000 OA
ATOM     46  C   UNL     1     111.240 126.501 140.227  0.00  0.00    +0.000 C 
ENDBRANCH  44  46
ENDBRANCH  35  41
ENDBRANCH  34  35
ENDBRANCH  29  34
ENDBRANCH   1  33
TORSDOF 8
ENDMDL
MODEL 8
REMARK VINA RESULT:      -9.6      1.309      4.419
REMARK  Name = 44259783
REMARK  8 active torsions:
REMARK  status: ('A' for Active; 'I' for Inactive)
REMARK    1  A    between atoms: O_3  and  C_24
REMARK    2  A    between atoms: O_3  and  C_29
REMARK    3  A    between atoms: O_6  and  C_28
REMARK    4  A    between atoms: O_6  and  C_31
REMARK    5  A    between atoms: O_15  and  C_41
REMARK    6  A    between atoms: C_19  and  C_29
REMARK    7  A    between atoms: C_27  and  C_30
REMARK    8  A    between atoms: C_32  and  C_36
REMARK                            x       y       z     vdW  Elec       q    Type
REMARK                         _______ _______ _______ _____ _____    ______ ____
ROOT
ATOM      1  O   UNL     1     112.082 128.417 135.903  0.00  0.00    +0.000 OA
ENDROOT
BRANCH   1   6
ATOM      2  O   UNL     1     111.431 126.352 136.180  0.00  0.00    +0.000 OA
ATOM      3  O   UNL     1     113.526 127.670 136.179  0.00  0.00    +0.000 OA
ATOM      4  O   UNL     1     114.304 126.487 136.458  0.00  0.00    +0.000 OA
ATOM      5  O   UNL     1     112.934 123.923 136.743  0.00  0.00    +0.000 OA
ATOM      6  C   UNL     1     112.106 127.605 136.041  0.00  0.00    +0.000 A 
ATOM      7  C   UNL     1     111.407 127.166 136.041  0.00  0.00    +0.000 A 
ATOM      8  C   UNL     1     112.828 127.231 136.179  0.00  0.00    +0.000 A 
ATOM      9  C   UNL     1     112.852 126.418 136.318  0.00  0.00    +0.000 A 
ATOM     10  C   UNL     1     112.153 125.979 136.318  0.00  0.00    +0.000 A 
ATOM     11  C   UNL     1     113.610 126.040 136.460  0.00  0.00    +0.000 A 
ATOM     12  C   UNL     1     112.165 125.132 136.461  0.00  0.00    +0.000 A 
ATOM     13  C   UNL     1     113.642 125.194 136.605  0.00  0.00    +0.000 A 
ATOM     14  C   UNL     1     112.914 124.737 136.605  0.00  0.00    +0.000 A 
BRANCH   7  17
ATOM     15  O   UNL     1     108.914 128.168 137.016  0.00  0.00    +0.000 OA
ATOM     16  O   UNL     1     108.516 128.659 135.491  0.00  0.00    +0.000 OA
ATOM     17  C   UNL     1     110.685 127.539 135.903  0.00  0.00    +0.000 A 
ATOM     18  C   UNL     1     110.161 127.667 136.528  0.00  0.00    +0.000 A 
ATOM     19  C   UNL     1     110.486 127.785 135.141  0.00  0.00    +0.000 A 
ATOM     20  C   UNL     1     109.438 128.040 136.390  0.00  0.00    +0.000 A 
ATOM     21  C   UNL     1     109.762 128.158 135.004  0.00  0.00    +0.000 A 
ATOM     22  C   UNL     1     109.239 128.286 135.628  0.00  0.00    +0.000 A 
ENDBRANCH   7  17
BRANCH  13  23
ATOM     23  O   UNL     1     114.365 124.822 136.743  0.00  0.00    +0.000 OA
ATOM     24  C   UNL     1     114.628 124.704 137.516  0.00  0.00    +0.000 C 
ENDBRANCH  13  23
ENDBRANCH   1   6
BRANCH   1  33
ATOM     25  O   UNL     1     112.298 128.778 137.269  0.00  0.00    +0.000 OA
ATOM     26  O   UNL     1     113.292 130.509 138.150  0.00  0.00    +0.000 OA
ATOM     27  O   UNL     1     113.464 130.836 136.542  0.00  0.00    +0.000 OA
ATOM     28  O   UNL     1     112.859 129.790 135.418  0.00  0.00    +0.000 OA
ATOM     29  C   UNL     1     112.601 129.301 137.830  0.00  0.00    +0.000 C 
ATOM     30  C   UNL     1     112.989 129.986 137.588  0.00  0.00    +0.000 C 
ATOM     31  C   UNL     1     113.076 130.150 136.784  0.00  0.00    +0.000 C 
ATOM     32  C   UNL     1     112.773 129.627 136.222  0.00  0.00    +0.000 C 
ATOM     33  C   UNL     1     112.384 128.940 136.465  0.00  0.00    +0.000 C 
BRANCH  29  34
ATOM     34  C   UNL     1     112.515 129.137 138.635  0.00  0.00    +0.000 C 
BRANCH  34  35
ATOM     35  O   UNL     1     111.764 128.999 138.948  0.00  0.00    +0.000 OA
BRANCH  35  41
ATOM     36  O   UNL     1     112.067 127.827 139.709  0.00  0.00    +0.000 OA
ATOM     37  O   UNL     1     110.825 129.558 140.184  0.00  0.00    +0.000 OA
ATOM     38  O   UNL     1     110.658 128.666 141.563  0.00  0.00    +0.000 OA
ATOM     39  O   UNL     1     111.431 127.216 141.704  0.00  0.00    +0.000 OA
ATOM     40  C   UNL     1     111.211 128.833 140.256  0.00  0.00    +0.000 C 
ATOM     41  C   UNL     1     111.681 128.553 139.638  0.00  0.00    +0.000 C 
ATOM     42  C   UNL     1     111.128 128.386 140.945  0.00  0.00    +0.000 C 
ATOM     43  C   UNL     1     111.514 127.662 141.016  0.00  0.00    +0.000 C 
ATOM     44  C   UNL     1     111.984 127.382 140.398  0.00  0.00    +0.000 C 
BRANCH  44  46
ATOM     45  O   UNL     1     112.350 126.116 139.846  0.00  0.00    +0.000 OA
ATOM     46  C   UNL     1     112.370 126.657 140.469  0.00  0.00    +0.000 C 
ENDBRANCH  44  46
ENDBRANCH  35  41
ENDBRANCH  34  35
ENDBRANCH  29  34
ENDBRANCH   1  33
TORSDOF 8
ENDMDL
MODEL 9
REMARK VINA RESULT:      -9.6      1.249      3.250
REMARK  Name = 44259783
REMARK  8 active torsions:
REMARK  status: ('A' for Active; 'I' for Inactive)
REMARK    1  A    between atoms: O_3  and  C_24
REMARK    2  A    between atoms: O_3  and  C_29
REMARK    3  A    between atoms: O_6  and  C_28
REMARK    4  A    between atoms: O_6  and  C_31
REMARK    5  A    between atoms: O_15  and  C_41
REMARK    6  A    between atoms: C_19  and  C_29
REMARK    7  A    between atoms: C_27  and  C_30
REMARK    8  A    between atoms: C_32  and  C_36
REMARK                            x       y       z     vdW  Elec       q    Type
REMARK                         _______ _______ _______ _____ _____    ______ ____
ROOT
ATOM      1  O   UNL     1     113.173 126.674 137.258  0.00  0.00    +0.000 OA
ENDROOT
BRANCH   1   6
ATOM      2  O   UNL     1     111.766 126.051 138.806  0.00  0.00    +0.000 OA
ATOM      3  O   UNL     1     113.462 127.811 138.418  0.00  0.00    +0.000 OA
ATOM      4  O   UNL     1     113.203 128.387 139.715  0.00  0.00    +0.000 OA
ATOM      5  O   UNL     1     111.189 127.158 141.437  0.00  0.00    +0.000 OA
ATOM      6  C   UNL     1     112.752 126.656 137.967  0.00  0.00    +0.000 A 
ATOM      7  C   UNL     1     112.187 126.069 138.096  0.00  0.00    +0.000 A 
ATOM      8  C   UNL     1     112.896 127.224 138.548  0.00  0.00    +0.000 A 
ATOM      9  C   UNL     1     112.476 127.206 139.256  0.00  0.00    +0.000 A 
ATOM     10  C   UNL     1     111.911 126.619 139.386  0.00  0.00    +0.000 A 
ATOM     11  C   UNL     1     112.636 127.804 139.853  0.00  0.00    +0.000 A 
ATOM     12  C   UNL     1     111.466 126.590 140.121  0.00  0.00    +0.000 A 
ATOM     13  C   UNL     1     112.201 127.790 140.594  0.00  0.00    +0.000 A 
ATOM     14  C   UNL     1     111.612 127.179 140.728  0.00  0.00    +0.000 A 
BRANCH   7  17
ATOM     15  O   UNL     1     110.562 125.059 135.973  0.00  0.00    +0.000 OA
ATOM     16  O   UNL     1     111.605 123.795 135.777  0.00  0.00    +0.000 OA
ATOM     17  C   UNL     1     112.042 125.500 137.517  0.00  0.00    +0.000 A 
ATOM     18  C   UNL     1     111.375 125.564 137.035  0.00  0.00    +0.000 A 
ATOM     19  C   UNL     1     112.563 124.868 137.418  0.00  0.00    +0.000 A 
ATOM     20  C   UNL     1     111.230 124.995 136.455  0.00  0.00    +0.000 A 
ATOM     21  C   UNL     1     112.417 124.300 136.838  0.00  0.00    +0.000 A 
ATOM     22  C   UNL     1     111.751 124.363 136.357  0.00  0.00    +0.000 A 
ENDBRANCH   7  17
BRANCH  13  23
ATOM     23  O   UNL     1     112.347 128.360 141.172  0.00  0.00    +0.000 OA
ATOM     24  C   UNL     1     111.822 128.987 141.277  0.00  0.00    +0.000 C 
ENDBRANCH  13  23
ENDBRANCH   1   6
BRANCH   1  33
ATOM     25  O   UNL     1     112.476 127.819 136.762  0.00  0.00    +0.000 OA
ATOM     26  O   UNL     1     113.097 129.376 135.364  0.00  0.00    +0.000 OA
ATOM     27  O   UNL     1     114.454 128.437 135.409  0.00  0.00    +0.000 OA
ATOM     28  O   UNL     1     114.491 127.086 136.356  0.00  0.00    +0.000 OA
ATOM     29  C   UNL     1     112.457 128.494 136.288  0.00  0.00    +0.000 C 
ATOM     30  C   UNL     1     113.116 128.700 135.838  0.00  0.00    +0.000 C 
ATOM     31  C   UNL     1     113.795 128.231 135.860  0.00  0.00    +0.000 C 
ATOM     32  C   UNL     1     113.814 127.556 136.333  0.00  0.00    +0.000 C 
ATOM     33  C   UNL     1     113.154 127.349 136.785  0.00  0.00    +0.000 C 
BRANCH  29  34
ATOM     34  C   UNL     1     111.779 128.963 136.266  0.00  0.00    +0.000 C 
BRANCH  34  35
ATOM     35  O   UNL     1     111.050 128.625 136.078  0.00  0.00    +0.000 OA
BRANCH  35  41
ATOM     36  O   UNL     1     110.245 129.192 137.114  0.00  0.00    +0.000 OA
ATOM     37  O   UNL     1     109.863 128.948 134.978  0.00  0.00    +0.000 OA
ATOM     38  O   UNL     1     108.464 129.676 135.464  0.00  0.00    +0.000 OA
ATOM     39  O   UNL     1     108.253 130.081 137.049  0.00  0.00    +0.000 OA
ATOM     40  C   UNL     1     109.757 129.150 135.770  0.00  0.00    +0.000 C 
ATOM     41  C   UNL     1     110.351 128.989 136.320  0.00  0.00    +0.000 C 
ATOM     42  C   UNL     1     109.058 129.515 136.014  0.00  0.00    +0.000 C 
ATOM     43  C   UNL     1     108.952 129.717 136.806  0.00  0.00    +0.000 C 
ATOM     44  C   UNL     1     109.545 129.556 137.356  0.00  0.00    +0.000 C 
BRANCH  44  46
ATOM     45  O   UNL     1     109.423 129.170 138.726  0.00  0.00    +0.000 OA
ATOM     46  C   UNL     1     109.440 129.758 138.148  0.00  0.00    +0.000 C 
ENDBRANCH  44  46
ENDBRANCH  35  41
ENDBRANCH  34  35
ENDBRANCH  29  34
ENDBRANCH   1  33
TORSDOF 8
ENDMDL
MODEL 10
REMARK VINA RESULT:      -9.6      1.319      3.761
REMARK  Name = 44259783
REMARK  8 active torsions:
REMARK  status: ('A' for Active; 'I' for Inactive)
REMARK    1  A    between atoms: O_3  and  C_24
REMARK    2  A    between atoms: O_3  and  C_29
REMARK    3  A    between atoms: O_6  and  C_28
REMARK    4  A    between atoms: O_6  and  C_31
REMARK    5  A    between atoms: O_15  and  C_41
REMARK    6  A    between atoms: C_19  and  C_29
REMARK    7  A    between atoms: C_27  and  C_30
REMARK    8  A    between atoms: C_32  and  C_36
REMARK                            x       y       z     vdW  Elec       q    Type
REMARK                         _______ _______ _______ _____ _____    ______ ____
ROOT
ATOM      1  O   UNL     1     112.104 126.632 136.587  0.00  0.00    +0.000 OA
ENDROOT
BRANCH   1   6
ATOM      2  O   UNL     1     112.873 127.824 138.246  0.00  0.00    +0.000 OA
ATOM      3  O   UNL     1     111.389 125.880 137.870  0.00  0.00    +0.000 OA
ATOM      4  O   UNL     1     111.149 125.752 139.287  0.00  0.00    +0.000 OA
ATOM      5  O   UNL     1     112.436 127.628 141.119  0.00  0.00    +0.000 OA
ATOM      6  C   UNL     1     112.241 126.904 137.354  0.00  0.00    +0.000 A 
ATOM      7  C   UNL     1     112.736 127.552 137.479  0.00  0.00    +0.000 A 
ATOM      8  C   UNL     1     111.883 126.528 137.995  0.00  0.00    +0.000 A 
ATOM      9  C   UNL     1     112.020 126.800 138.762  0.00  0.00    +0.000 A 
ATOM     10  C   UNL     1     112.515 127.448 138.887  0.00  0.00    +0.000 A 
ATOM     11  C   UNL     1     111.642 126.399 139.422  0.00  0.00    +0.000 A 
ATOM     12  C   UNL     1     112.666 127.740 139.681  0.00  0.00    +0.000 A 
ATOM     13  C   UNL     1     111.781 126.678 140.222  0.00  0.00    +0.000 A 
ATOM     14  C   UNL     1     112.297 127.353 140.353  0.00  0.00    +0.000 A 
BRANCH   7  17
ATOM     15  O   UNL     1     112.925 129.795 135.719  0.00  0.00    +0.000 OA
ATOM     16  O   UNL     1     114.165 129.061 134.916  0.00  0.00    +0.000 OA
ATOM     17  C   UNL     1     113.093 127.929 136.838  0.00  0.00    +0.000 A 
ATOM     18  C   UNL     1     112.830 128.674 136.599  0.00  0.00    +0.000 A 
ATOM     19  C   UNL     1     113.713 127.561 136.437  0.00  0.00    +0.000 A 
ATOM     20  C   UNL     1     113.188 129.050 135.958  0.00  0.00    +0.000 A 
ATOM     21  C   UNL     1     114.070 127.939 135.796  0.00  0.00    +0.000 A 
ATOM     22  C   UNL     1     113.808 128.683 135.557  0.00  0.00    +0.000 A 
ENDBRANCH   7  17
BRANCH  13  23
ATOM     23  O   UNL     1     111.423 126.300 140.862  0.00  0.00    +0.000 OA
ATOM     24  C   UNL     1     110.763 126.637 141.224  0.00  0.00    +0.000 C 
ENDBRANCH  13  23
ENDBRANCH   1   6
BRANCH   1  33
ATOM     25  O   UNL     1     110.793 127.190 136.475  0.00  0.00    +0.000 OA
ATOM     26  O   UNL     1     109.021 126.476 135.419  0.00  0.00    +0.000 OA
ATOM     27  O   UNL     1     110.102 125.282 135.059  0.00  0.00    +0.000 OA
ATOM     28  O   UNL     1     111.643 125.360 135.643  0.00  0.00    +0.000 OA
ATOM     29  C   UNL     1     110.022 127.151 136.183  0.00  0.00    +0.000 C 
ATOM     30  C   UNL     1     109.792 126.515 135.711  0.00  0.00    +0.000 C 
ATOM     31  C   UNL     1     110.332 125.918 135.531  0.00  0.00    +0.000 C 
ATOM     32  C   UNL     1     111.102 125.957 135.823  0.00  0.00    +0.000 C 
ATOM     33  C   UNL     1     111.333 126.593 136.295  0.00  0.00    +0.000 C 
BRANCH  29  34
ATOM     34  C   UNL     1     109.482 127.748 136.364  0.00  0.00    +0.000 C 
BRANCH  34  35
ATOM     35  O   UNL     1     109.618 128.519 136.104  0.00  0.00    +0.000 OA
BRANCH  35  41
ATOM     36  O   UNL     1     109.494 129.190 137.359  0.00  0.00    +0.000 OA
ATOM     37  O   UNL     1     108.780 129.736 135.370  0.00  0.00    +0.000 OA
ATOM     38  O   UNL     1     108.236 131.015 136.258  0.00  0.00    +0.000 OA
ATOM     39  O   UNL     1     108.531 131.078 137.880  0.00  0.00    +0.000 OA
ATOM     40  C   UNL     1     108.927 129.767 136.180  0.00  0.00    +0.000 C 
ATOM     41  C   UNL     1     109.346 129.159 136.547  0.00  0.00    +0.000 C 
ATOM     42  C   UNL     1     108.655 130.407 136.625  0.00  0.00    +0.000 C 
ATOM     43  C   UNL     1     108.802 130.439 137.436  0.00  0.00    +0.000 C 
ATOM     44  C   UNL     1     109.222 129.830 137.803  0.00  0.00    +0.000 C 
BRANCH  44  46
ATOM     45  O   UNL     1     109.359 129.169 139.062  0.00  0.00    +0.000 OA
ATOM     46  C   UNL     1     109.369 129.861 138.613  0.00  0.00    +0.000 C 
ENDBRANCH  44  46
ENDBRANCH  35  41
ENDBRANCH  34  35
ENDBRANCH  29  34
ENDBRANCH   1  33
TORSDOF 8
ENDMDL
