MODEL 1
REMARK VINA RESULT:     -11.0      0.000      0.000
REMARK  Name = 6442954
REMARK  10 active torsions:
REMARK  status: ('A' for Active; 'I' for Inactive)
REMARK    1  A    between atoms: O_1  and  C_18
REMARK    2  A    between atoms: O_1  and  C_20
REMARK    3  A    between atoms: O_5  and  C_25
REMARK    4  A    between atoms: O_5  and  C_30
REMARK    5  A    between atoms: O_10  and  C_28
REMARK    6  A    between atoms: O_10  and  C_33
REMARK    7  A    between atoms: C_26  and  C_28
REMARK    8  A    between atoms: C_31  and  C_35
REMARK    9  A    between atoms: C_33  and  C_38
REMARK   10  A    between atoms: C_46  and  C_48
REMARK                            x       y       z     vdW  Elec       q    Type
REMARK                         _______ _______ _______ _____ _____    ______ ____
ROOT
ATOM      1  O   UNL     1     113.005 128.468 137.028  0.00  0.00    +0.000 OA
ATOM      2  O   UNL     1     111.647 129.508 135.239  0.00  0.00    +0.000 OA
ATOM      3  O   UNL     1     113.063 128.749 134.864  0.00  0.00    +0.000 OA
ATOM      4  C   UNL     1     111.844 129.194 136.619  0.00  0.00    +0.000 C 
ATOM      5  C   UNL     1     112.099 129.161 135.836  0.00  0.00    +0.000 C 
ATOM      6  C   UNL     1     112.807 128.782 135.647  0.00  0.00    +0.000 C 
ATOM      7  C   UNL     1     112.297 128.848 137.215  0.00  0.00    +0.000 C 
ATOM      8  C   UNL     1     113.260 128.435 136.244  0.00  0.00    +0.000 C 
ATOM      9  C   UNL     1     113.968 128.055 136.057  0.00  0.00    +0.000 C 
ENDROOT
BRANCH   4  10
ATOM     10  O   UNL     1     111.136 129.574 136.807  0.00  0.00    +0.000 OA
BRANCH  10  15
ATOM     11  O   UNL     1     110.368 128.413 136.480  0.00  0.00    +0.000 OA
ATOM     12  O   UNL     1     109.790 130.513 136.632  0.00  0.00    +0.000 OA
ATOM     13  O   UNL     1     108.350 129.822 136.219  0.00  0.00    +0.000 OA
ATOM     14  O   UNL     1     108.255 128.192 135.980  0.00  0.00    +0.000 OA
ATOM     15  C   UNL     1     110.416 129.228 136.600  0.00  0.00    +0.000 C 
ATOM     16  C   UNL     1     109.743 129.697 136.513  0.00  0.00    +0.000 C 
ATOM     17  C   UNL     1     109.023 129.352 136.306  0.00  0.00    +0.000 C 
ATOM     18  C   UNL     1     108.976 128.537 136.186  0.00  0.00    +0.000 C 
ATOM     19  C   UNL     1     109.648 128.067 136.274  0.00  0.00    +0.000 C 
BRANCH  19  20
ATOM     20  C   UNL     1     109.601 127.253 136.154  0.00  0.00    +0.000 C 
BRANCH  20  21
ATOM     21  O   UNL     1     110.122 126.881 135.633  0.00  0.00    +0.000 OA
BRANCH  21  23
ATOM     22  O   UNL     1     109.602 125.646 135.139  0.00  0.00    +0.000 OA
ATOM     23  C   UNL     1     110.151 126.058 135.597  0.00  0.00    +0.000 C 
BRANCH  23  24
ATOM     24  C   UNL     1     110.729 125.646 136.017  0.00  0.00    +0.000 C 
ATOM     25  C   UNL     1     111.170 125.057 135.644  0.00  0.00    +0.000 C 
BRANCH  25  27
ATOM     26  O   UNL     1     113.484 123.410 137.325  0.00  0.00    +0.000 OA
ATOM     27  C   UNL     1     111.748 124.644 136.065  0.00  0.00    +0.000 A 
ATOM     28  C   UNL     1     112.530 124.906 136.054  0.00  0.00    +0.000 A 
ATOM     29  C   UNL     1     111.545 123.971 136.495  0.00  0.00    +0.000 A 
ATOM     30  C   UNL     1     113.109 124.495 136.474  0.00  0.00    +0.000 A 
ATOM     31  C   UNL     1     112.123 123.560 136.915  0.00  0.00    +0.000 A 
ATOM     32  C   UNL     1     112.905 123.822 136.904  0.00  0.00    +0.000 A 
ENDBRANCH  25  27
ENDBRANCH  23  24
ENDBRANCH  21  23
ENDBRANCH  20  21
ENDBRANCH  19  20
ENDBRANCH  10  15
ENDBRANCH   4  10
BRANCH   7  33
ATOM     33  O   UNL     1     112.041 128.881 137.999  0.00  0.00    +0.000 OA
BRANCH  33  38
ATOM     34  O   UNL     1     113.186 128.731 139.851  0.00  0.00    +0.000 OA
ATOM     35  O   UNL     1     112.969 130.242 137.904  0.00  0.00    +0.000 OA
ATOM     36  O   UNL     1     113.977 131.124 138.440  0.00  0.00    +0.000 OA
ATOM     37  O   UNL     1     115.226 130.466 140.995  0.00  0.00    +0.000 OA
ATOM     38  C   UNL     1     112.577 129.057 138.601  0.00  0.00    +0.000 A 
ATOM     39  C   UNL     1     112.650 128.554 139.250  0.00  0.00    +0.000 A 
ATOM     40  C   UNL     1     113.041 129.738 138.552  0.00  0.00    +0.000 A 
ATOM     41  C   UNL     1     113.578 129.915 139.154  0.00  0.00    +0.000 A 
ATOM     42  C   UNL     1     113.650 129.411 139.804  0.00  0.00    +0.000 A 
ATOM     43  C   UNL     1     114.056 130.627 139.093  0.00  0.00    +0.000 A 
ATOM     44  C   UNL     1     114.205 129.584 140.437  0.00  0.00    +0.000 A 
ATOM     45  C   UNL     1     114.616 130.816 139.716  0.00  0.00    +0.000 A 
ATOM     46  C   UNL     1     114.691 130.292 140.392  0.00  0.00    +0.000 A 
BRANCH  39  48
ATOM     47  O   UNL     1     110.793 125.833 139.445  0.00  0.00    +0.000 OA
ATOM     48  C   UNL     1     112.186 127.873 139.298  0.00  0.00    +0.000 A 
ATOM     49  C   UNL     1     111.394 127.929 139.524  0.00  0.00    +0.000 A 
ATOM     50  C   UNL     1     112.513 127.137 139.121  0.00  0.00    +0.000 A 
ATOM     51  C   UNL     1     110.930 127.250 139.573  0.00  0.00    +0.000 A 
ATOM     52  C   UNL     1     112.049 126.457 139.170  0.00  0.00    +0.000 A 
ATOM     53  C   UNL     1     111.257 126.513 139.396  0.00  0.00    +0.000 A 
ENDBRANCH  39  48
ENDBRANCH  33  38
ENDBRANCH   7  33
TORSDOF 10
ENDMDL
MODEL 2
REMARK VINA RESULT:     -10.8      0.933      2.451
REMARK  Name = 6442954
REMARK  10 active torsions:
REMARK  status: ('A' for Active; 'I' for Inactive)
REMARK    1  A    between atoms: O_1  and  C_18
REMARK    2  A    between atoms: O_1  and  C_20
REMARK    3  A    between atoms: O_5  and  C_25
REMARK    4  A    between atoms: O_5  and  C_30
REMARK    5  A    between atoms: O_10  and  C_28
REMARK    6  A    between atoms: O_10  and  C_33
REMARK    7  A    between atoms: C_26  and  C_28
REMARK    8  A    between atoms: C_31  and  C_35
REMARK    9  A    between atoms: C_33  and  C_38
REMARK   10  A    between atoms: C_46  and  C_48
REMARK                            x       y       z     vdW  Elec       q    Type
REMARK                         _______ _______ _______ _____ _____    ______ ____
ROOT
ATOM      1  O   UNL     1     111.878 127.894 138.867  0.00  0.00    +0.000 OA
ATOM      2  O   UNL     1     109.408 127.732 138.897  0.00  0.00    +0.000 OA
ATOM      3  O   UNL     1     110.324 126.490 139.483  0.00  0.00    +0.000 OA
ATOM      4  C   UNL     1     110.596 128.460 138.585  0.00  0.00    +0.000 C 
ATOM      5  C   UNL     1     110.231 127.786 138.887  0.00  0.00    +0.000 C 
ATOM      6  C   UNL     1     110.689 127.165 139.180  0.00  0.00    +0.000 C 
ATOM      7  C   UNL     1     111.420 128.514 138.574  0.00  0.00    +0.000 C 
ATOM      8  C   UNL     1     111.512 127.219 139.170  0.00  0.00    +0.000 C 
ATOM      9  C   UNL     1     111.970 126.598 139.463  0.00  0.00    +0.000 C 
ENDROOT
BRANCH   4  10
ATOM     10  O   UNL     1     110.139 129.082 138.292  0.00  0.00    +0.000 OA
BRANCH  10  15
ATOM     11  O   UNL     1     110.018 128.439 137.020  0.00  0.00    +0.000 OA
ATOM     12  O   UNL     1     108.867 130.064 137.917  0.00  0.00    +0.000 OA
ATOM     13  O   UNL     1     108.110 129.913 136.459  0.00  0.00    +0.000 OA
ATOM     14  O   UNL     1     108.625 128.780 135.375  0.00  0.00    +0.000 OA
ATOM     15  C   UNL     1     109.761 129.006 137.562  0.00  0.00    +0.000 C 
ATOM     16  C   UNL     1     109.125 129.497 137.375  0.00  0.00    +0.000 C 
ATOM     17  C   UNL     1     108.746 129.422 136.645  0.00  0.00    +0.000 C 
ATOM     18  C   UNL     1     109.003 128.856 136.104  0.00  0.00    +0.000 C 
ATOM     19  C   UNL     1     109.639 128.364 136.291  0.00  0.00    +0.000 C 
BRANCH  19  20
ATOM     20  C   UNL     1     109.897 127.798 135.750  0.00  0.00    +0.000 C 
BRANCH  20  21
ATOM     21  O   UNL     1     109.921 127.002 135.964  0.00  0.00    +0.000 OA
BRANCH  21  23
ATOM     22  O   UNL     1     110.071 126.296 134.732  0.00  0.00    +0.000 OA
ATOM     23  C   UNL     1     110.331 126.460 135.497  0.00  0.00    +0.000 C 
BRANCH  23  24
ATOM     24  C   UNL     1     111.002 126.083 135.795  0.00  0.00    +0.000 C 
ATOM     25  C   UNL     1     110.996 125.268 135.919  0.00  0.00    +0.000 C 
BRANCH  25  27
ATOM     26  O   UNL     1     113.676 123.755 137.110  0.00  0.00    +0.000 OA
ATOM     27  C   UNL     1     111.666 124.890 136.217  0.00  0.00    +0.000 A 
ATOM     28  C   UNL     1     111.592 124.170 136.613  0.00  0.00    +0.000 A 
ATOM     29  C   UNL     1     112.410 125.231 136.118  0.00  0.00    +0.000 A 
ATOM     30  C   UNL     1     112.262 123.792 136.911  0.00  0.00    +0.000 A 
ATOM     31  C   UNL     1     113.080 124.853 136.415  0.00  0.00    +0.000 A 
ATOM     32  C   UNL     1     113.006 124.134 136.812  0.00  0.00    +0.000 A 
ENDBRANCH  25  27
ENDBRANCH  23  24
ENDBRANCH  21  23
ENDBRANCH  20  21
ENDBRANCH  19  20
ENDBRANCH  10  15
ENDBRANCH   4  10
BRANCH   7  33
ATOM     33  O   UNL     1     111.785 129.190 138.271  0.00  0.00    +0.000 OA
BRANCH  33  38
ATOM     34  O   UNL     1     113.815 129.928 138.581  0.00  0.00    +0.000 OA
ATOM     35  O   UNL     1     111.739 129.564 139.878  0.00  0.00    +0.000 OA
ATOM     36  O   UNL     1     112.368 130.060 141.078  0.00  0.00    +0.000 OA
ATOM     37  O   UNL     1     115.149 130.941 140.964  0.00  0.00    +0.000 OA
ATOM     38  C   UNL     1     112.455 129.498 138.642  0.00  0.00    +0.000 A 
ATOM     39  C   UNL     1     113.146 129.619 138.210  0.00  0.00    +0.000 A 
ATOM     40  C   UNL     1     112.431 129.685 139.446  0.00  0.00    +0.000 A 
ATOM     41  C   UNL     1     113.100 129.994 139.817  0.00  0.00    +0.000 A 
ATOM     42  C   UNL     1     113.793 130.115 139.384  0.00  0.00    +0.000 A 
ATOM     43  C   UNL     1     113.064 130.185 140.654  0.00  0.00    +0.000 A 
ATOM     44  C   UNL     1     114.496 130.436 139.759  0.00  0.00    +0.000 A 
ATOM     45  C   UNL     1     113.758 130.507 141.046  0.00  0.00    +0.000 A 
ATOM     46  C   UNL     1     114.478 130.633 140.596  0.00  0.00    +0.000 A 
BRANCH  39  48
ATOM     47  O   UNL     1     113.242 128.869 134.998  0.00  0.00    +0.000 OA
ATOM     48  C   UNL     1     113.170 129.432 137.407  0.00  0.00    +0.000 A 
ATOM     49  C   UNL     1     113.484 128.710 137.161  0.00  0.00    +0.000 A 
ATOM     50  C   UNL     1     112.880 129.966 136.850  0.00  0.00    +0.000 A 
ATOM     51  C   UNL     1     113.508 128.522 136.359  0.00  0.00    +0.000 A 
ATOM     52  C   UNL     1     112.904 129.779 136.046  0.00  0.00    +0.000 A 
ATOM     53  C   UNL     1     113.218 129.057 135.801  0.00  0.00    +0.000 A 
ENDBRANCH  39  48
ENDBRANCH  33  38
ENDBRANCH   7  33
TORSDOF 10
ENDMDL
MODEL 3
REMARK VINA RESULT:     -10.7      1.475      5.073
REMARK  Name = 6442954
REMARK  10 active torsions:
REMARK  status: ('A' for Active; 'I' for Inactive)
REMARK    1  A    between atoms: O_1  and  C_18
REMARK    2  A    between atoms: O_1  and  C_20
REMARK    3  A    between atoms: O_5  and  C_25
REMARK    4  A    between atoms: O_5  and  C_30
REMARK    5  A    between atoms: O_10  and  C_28
REMARK    6  A    between atoms: O_10  and  C_33
REMARK    7  A    between atoms: C_26  and  C_28
REMARK    8  A    between atoms: C_31  and  C_35
REMARK    9  A    between atoms: C_33  and  C_38
REMARK   10  A    between atoms: C_46  and  C_48
REMARK                            x       y       z     vdW  Elec       q    Type
REMARK                         _______ _______ _______ _____ _____    ______ ____
ROOT
ATOM      1  O   UNL     1     110.159 128.653 137.907  0.00  0.00    +0.000 OA
ATOM      2  O   UNL     1     109.334 126.346 138.254  0.00  0.00    +0.000 OA
ATOM      3  O   UNL     1     109.387 127.402 139.520  0.00  0.00    +0.000 OA
ATOM      4  C   UNL     1     109.857 127.356 137.390  0.00  0.00    +0.000 C 
ATOM      5  C   UNL     1     109.609 127.115 138.138  0.00  0.00    +0.000 C 
ATOM      6  C   UNL     1     109.635 127.642 138.772  0.00  0.00    +0.000 C 
ATOM      7  C   UNL     1     110.132 128.125 137.274  0.00  0.00    +0.000 C 
ATOM      8  C   UNL     1     109.910 128.412 138.657  0.00  0.00    +0.000 C 
ATOM      9  C   UNL     1     109.937 128.940 139.289  0.00  0.00    +0.000 C 
ENDROOT
BRANCH   4  10
ATOM     10  O   UNL     1     109.830 126.828 136.756  0.00  0.00    +0.000 OA
BRANCH  10  15
ATOM     11  O   UNL     1     111.014 126.189 137.240  0.00  0.00    +0.000 OA
ATOM     12  O   UNL     1     109.800 125.797 135.468  0.00  0.00    +0.000 OA
ATOM     13  O   UNL     1     110.968 124.642 135.308  0.00  0.00    +0.000 OA
ATOM     14  O   UNL     1     112.167 124.519 136.435  0.00  0.00    +0.000 OA
ATOM     15  C   UNL     1     110.415 126.251 136.676  0.00  0.00    +0.000 C 
ATOM     16  C   UNL     1     110.400 125.735 136.032  0.00  0.00    +0.000 C 
ATOM     17  C   UNL     1     110.984 125.158 135.952  0.00  0.00    +0.000 C 
ATOM     18  C   UNL     1     111.583 125.097 136.515  0.00  0.00    +0.000 C 
ATOM     19  C   UNL     1     111.598 125.612 137.160  0.00  0.00    +0.000 C 
BRANCH  19  20
ATOM     20  C   UNL     1     112.197 125.551 137.723  0.00  0.00    +0.000 C 
BRANCH  20  21
ATOM     21  O   UNL     1     112.703 126.188 137.860  0.00  0.00    +0.000 OA
BRANCH  21  23
ATOM     22  O   UNL     1     113.848 125.708 138.566  0.00  0.00    +0.000 OA
ATOM     23  C   UNL     1     113.184 126.197 138.529  0.00  0.00    +0.000 C 
BRANCH  23  24
ATOM     24  C   UNL     1     113.003 126.694 139.162  0.00  0.00    +0.000 C 
ATOM     25  C   UNL     1     113.575 127.206 139.463  0.00  0.00    +0.000 C 
BRANCH  25  27
ATOM     26  O   UNL     1     112.849 129.191 141.996  0.00  0.00    +0.000 OA
ATOM     27  C   UNL     1     113.394 127.703 140.096  0.00  0.00    +0.000 A 
ATOM     28  C   UNL     1     113.041 127.393 140.775  0.00  0.00    +0.000 A 
ATOM     29  C   UNL     1     113.564 128.508 140.051  0.00  0.00    +0.000 A 
ATOM     30  C   UNL     1     112.859 127.889 141.408  0.00  0.00    +0.000 A 
ATOM     31  C   UNL     1     113.383 129.004 140.684  0.00  0.00    +0.000 A 
ATOM     32  C   UNL     1     113.031 128.695 141.362  0.00  0.00    +0.000 A 
ENDBRANCH  25  27
ENDBRANCH  23  24
ENDBRANCH  21  23
ENDBRANCH  20  21
ENDBRANCH  19  20
ENDBRANCH  10  15
ENDBRANCH   4  10
BRANCH   7  33
ATOM     33  O   UNL     1     110.380 128.366 136.525  0.00  0.00    +0.000 OA
BRANCH  33  38
ATOM     34  O   UNL     1     110.583 130.385 135.720  0.00  0.00    +0.000 OA
ATOM     35  O   UNL     1     108.801 128.841 136.472  0.00  0.00    +0.000 OA
ATOM     36  O   UNL     1     107.786 129.823 136.175  0.00  0.00    +0.000 OA
ATOM     37  O   UNL     1     108.589 132.414 135.096  0.00  0.00    +0.000 OA
ATOM     38  C   UNL     1     110.185 129.119 136.248  0.00  0.00    +0.000 A 
ATOM     39  C   UNL     1     110.779 129.633 135.997  0.00  0.00    +0.000 A 
ATOM     40  C   UNL     1     109.395 129.355 136.222  0.00  0.00    +0.000 A 
ATOM     41  C   UNL     1     109.199 130.108 135.945  0.00  0.00    +0.000 A 
ATOM     42  C   UNL     1     109.794 130.623 135.694  0.00  0.00    +0.000 A 
ATOM     43  C   UNL     1     108.373 130.344 135.922  0.00  0.00    +0.000 A 
ATOM     44  C   UNL     1     109.603 131.408 135.403  0.00  0.00    +0.000 A 
ATOM     45  C   UNL     1     108.163 131.126 135.634  0.00  0.00    +0.000 A 
ATOM     46  C   UNL     1     108.782 131.661 135.373  0.00  0.00    +0.000 A 
BRANCH  39  48
ATOM     47  O   UNL     1     113.938 128.684 136.099  0.00  0.00    +0.000 OA
ATOM     48  C   UNL     1     111.569 129.396 136.023  0.00  0.00    +0.000 A 
ATOM     49  C   UNL     1     111.876 128.920 135.423  0.00  0.00    +0.000 A 
ATOM     50  C   UNL     1     112.051 129.634 136.648  0.00  0.00    +0.000 A 
ATOM     51  C   UNL     1     112.665 128.682 135.448  0.00  0.00    +0.000 A 
ATOM     52  C   UNL     1     112.841 129.397 136.674  0.00  0.00    +0.000 A 
ATOM     53  C   UNL     1     113.148 128.921 136.074  0.00  0.00    +0.000 A 
ENDBRANCH  39  48
ENDBRANCH  33  38
ENDBRANCH   7  33
TORSDOF 10
ENDMDL
MODEL 4
REMARK VINA RESULT:     -10.6      1.547      4.725
REMARK  Name = 6442954
REMARK  10 active torsions:
REMARK  status: ('A' for Active; 'I' for Inactive)
REMARK    1  A    between atoms: O_1  and  C_18
REMARK    2  A    between atoms: O_1  and  C_20
REMARK    3  A    between atoms: O_5  and  C_25
REMARK    4  A    between atoms: O_5  and  C_30
REMARK    5  A    between atoms: O_10  and  C_28
REMARK    6  A    between atoms: O_10  and  C_33
REMARK    7  A    between atoms: C_26  and  C_28
REMARK    8  A    between atoms: C_31  and  C_35
REMARK    9  A    between atoms: C_33  and  C_38
REMARK   10  A    between atoms: C_46  and  C_48
REMARK                            x       y       z     vdW  Elec       q    Type
REMARK                         _______ _______ _______ _____ _____    ______ ____
ROOT
ATOM      1  O   UNL     1     110.395 128.285 137.958  0.00  0.00    +0.000 OA
ATOM      2  O   UNL     1     110.570 128.468 140.420  0.00  0.00    +0.000 OA
ATOM      3  O   UNL     1     109.771 127.193 139.743  0.00  0.00    +0.000 OA
ATOM      4  C   UNL     1     110.853 128.983 139.118  0.00  0.00    +0.000 C 
ATOM      5  C   UNL     1     110.512 128.407 139.600  0.00  0.00    +0.000 C 
ATOM      6  C   UNL     1     110.112 127.769 139.261  0.00  0.00    +0.000 C 
ATOM      7  C   UNL     1     110.794 128.922 138.298  0.00  0.00    +0.000 C 
ATOM      8  C   UNL     1     110.053 127.708 138.441  0.00  0.00    +0.000 C 
ATOM      9  C   UNL     1     109.654 127.071 138.101  0.00  0.00    +0.000 C 
ENDROOT
BRANCH   4  10
ATOM     10  O   UNL     1     111.252 129.621 139.457  0.00  0.00    +0.000 OA
BRANCH  10  15
ATOM     11  O   UNL     1     112.380 128.778 139.709  0.00  0.00    +0.000 OA
ATOM     12  O   UNL     1     112.063 130.902 140.108  0.00  0.00    +0.000 OA
ATOM     13  O   UNL     1     113.596 130.701 140.685  0.00  0.00    +0.000 OA
ATOM     14  O   UNL     1     114.317 129.218 140.611  0.00  0.00    +0.000 OA
ATOM     15  C   UNL     1     112.019 129.520 139.745  0.00  0.00    +0.000 C 
ATOM     16  C   UNL     1     112.425 130.160 140.071  0.00  0.00    +0.000 C 
ATOM     17  C   UNL     1     113.191 130.060 140.360  0.00  0.00    +0.000 C 
ATOM     18  C   UNL     1     113.551 129.319 140.323  0.00  0.00    +0.000 C 
ATOM     19  C   UNL     1     113.146 128.678 139.997  0.00  0.00    +0.000 C 
BRANCH  19  20
ATOM     20  C   UNL     1     113.506 127.937 139.961  0.00  0.00    +0.000 C 
BRANCH  20  21
ATOM     21  O   UNL     1     113.571 127.545 139.238  0.00  0.00    +0.000 OA
BRANCH  21  23
ATOM     22  O   UNL     1     114.327 126.439 139.735  0.00  0.00    +0.000 OA
ATOM     23  C   UNL     1     113.759 126.742 139.219  0.00  0.00    +0.000 C 
BRANCH  23  24
ATOM     24  C   UNL     1     113.378 126.241 138.685  0.00  0.00    +0.000 C 
ATOM     25  C   UNL     1     113.820 125.740 138.202  0.00  0.00    +0.000 C 
BRANCH  25  27
ATOM     26  O   UNL     1     112.297 123.737 136.068  0.00  0.00    +0.000 OA
ATOM     27  C   UNL     1     113.440 125.239 137.668  0.00  0.00    +0.000 A 
ATOM     28  C   UNL     1     112.642 125.057 137.771  0.00  0.00    +0.000 A 
ATOM     29  C   UNL     1     113.857 124.920 137.032  0.00  0.00    +0.000 A 
ATOM     30  C   UNL     1     112.260 124.557 137.238  0.00  0.00    +0.000 A 
ATOM     31  C   UNL     1     113.476 124.420 136.499  0.00  0.00    +0.000 A 
ATOM     32  C   UNL     1     112.678 124.238 136.602  0.00  0.00    +0.000 A 
ENDBRANCH  25  27
ENDBRANCH  23  24
ENDBRANCH  21  23
ENDBRANCH  20  21
ENDBRANCH  19  20
ENDBRANCH  10  15
ENDBRANCH   4  10
BRANCH   7  33
ATOM     33  O   UNL     1     111.135 129.499 137.815  0.00  0.00    +0.000 OA
BRANCH  33  38
ATOM     34  O   UNL     1     110.648 130.044 135.760  0.00  0.00    +0.000 OA
ATOM     35  O   UNL     1     109.630 130.145 138.012  0.00  0.00    +0.000 OA
ATOM     36  O   UNL     1     108.441 130.764 137.479  0.00  0.00    +0.000 OA
ATOM     37  O   UNL     1     108.280 131.292 134.612  0.00  0.00    +0.000 OA
ATOM     38  C   UNL     1     110.722 129.788 137.163  0.00  0.00    +0.000 A 
ATOM     39  C   UNL     1     111.061 129.754 136.412  0.00  0.00    +0.000 A 
ATOM     40  C   UNL     1     109.969 130.111 137.262  0.00  0.00    +0.000 A 
ATOM     41  C   UNL     1     109.556 130.401 136.609  0.00  0.00    +0.000 A 
ATOM     42  C   UNL     1     109.896 130.367 135.857  0.00  0.00    +0.000 A 
ATOM     43  C   UNL     1     108.772 130.735 136.724  0.00  0.00    +0.000 A 
ATOM     44  C   UNL     1     109.475 130.665 135.170  0.00  0.00    +0.000 A 
ATOM     45  C   UNL     1     108.337 131.038 136.048  0.00  0.00    +0.000 A 
ATOM     46  C   UNL     1     108.691 131.003 135.267  0.00  0.00    +0.000 A 
BRANCH  39  48
ATOM     47  O   UNL     1     114.073 128.465 136.016  0.00  0.00    +0.000 OA
ATOM     48  C   UNL     1     111.814 129.431 136.313  0.00  0.00    +0.000 A 
ATOM     49  C   UNL     1     112.482 129.879 136.498  0.00  0.00    +0.000 A 
ATOM     50  C   UNL     1     111.899 128.662 136.029  0.00  0.00    +0.000 A 
ATOM     51  C   UNL     1     113.235 129.557 136.399  0.00  0.00    +0.000 A 
ATOM     52  C   UNL     1     112.652 128.339 135.930  0.00  0.00    +0.000 A 
ATOM     53  C   UNL     1     113.320 128.787 136.115  0.00  0.00    +0.000 A 
ENDBRANCH  39  48
ENDBRANCH  33  38
ENDBRANCH   7  33
TORSDOF 10
ENDMDL
MODEL 5
REMARK VINA RESULT:     -10.5      1.941      4.357
REMARK  Name = 6442954
REMARK  10 active torsions:
REMARK  status: ('A' for Active; 'I' for Inactive)
REMARK    1  A    between atoms: O_1  and  C_18
REMARK    2  A    between atoms: O_1  and  C_20
REMARK    3  A    between atoms: O_5  and  C_25
REMARK    4  A    between atoms: O_5  and  C_30
REMARK    5  A    between atoms: O_10  and  C_28
REMARK    6  A    between atoms: O_10  and  C_33
REMARK    7  A    between atoms: C_26  and  C_28
REMARK    8  A    between atoms: C_31  and  C_35
REMARK    9  A    between atoms: C_33  and  C_38
REMARK   10  A    between atoms: C_46  and  C_48
REMARK                            x       y       z     vdW  Elec       q    Type
REMARK                         _______ _______ _______ _____ _____    ______ ____
ROOT
ATOM      1  O   UNL     1     112.512 130.073 137.587  0.00  0.00    +0.000 OA
ATOM      2  O   UNL     1     113.920 130.654 139.538  0.00  0.00    +0.000 OA
ATOM      3  O   UNL     1     114.621 130.356 138.074  0.00  0.00    +0.000 OA
ATOM      4  C   UNL     1     112.632 130.416 138.969  0.00  0.00    +0.000 C 
ATOM      5  C   UNL     1     113.451 130.461 138.887  0.00  0.00    +0.000 C 
ATOM      6  C   UNL     1     113.802 130.312 138.155  0.00  0.00    +0.000 C 
ATOM      7  C   UNL     1     112.163 130.223 138.318  0.00  0.00    +0.000 C 
ATOM      8  C   UNL     1     113.333 130.118 137.505  0.00  0.00    +0.000 C 
ATOM      9  C   UNL     1     113.683 129.969 136.773  0.00  0.00    +0.000 C 
ENDROOT
BRANCH   4  10
ATOM     10  O   UNL     1     112.281 130.565 139.701  0.00  0.00    +0.000 OA
BRANCH  10  15
ATOM     11  O   UNL     1     112.442 129.213 140.135  0.00  0.00    +0.000 OA
ATOM     12  O   UNL     1     112.238 131.065 141.272  0.00  0.00    +0.000 OA
ATOM     13  O   UNL     1     112.378 129.964 142.493  0.00  0.00    +0.000 OA
ATOM     14  O   UNL     1     112.560 128.362 142.141  0.00  0.00    +0.000 OA
ATOM     15  C   UNL     1     112.350 130.014 140.311  0.00  0.00    +0.000 C 
ATOM     16  C   UNL     1     112.329 130.264 141.097  0.00  0.00    +0.000 C 
ATOM     17  C   UNL     1     112.399 129.713 141.707  0.00  0.00    +0.000 C 
ATOM     18  C   UNL     1     112.490 128.913 141.531  0.00  0.00    +0.000 C 
ATOM     19  C   UNL     1     112.511 128.662 140.745  0.00  0.00    +0.000 C 
BRANCH  19  20
ATOM     20  C   UNL     1     112.602 127.862 140.570  0.00  0.00    +0.000 C 
BRANCH  20  21
ATOM     21  O   UNL     1     113.139 127.624 139.990  0.00  0.00    +0.000 OA
BRANCH  21  23
ATOM     22  O   UNL     1     112.656 126.283 140.078  0.00  0.00    +0.000 OA
ATOM     23  C   UNL     1     113.125 126.850 139.705  0.00  0.00    +0.000 C 
BRANCH  23  24
ATOM     24  C   UNL     1     113.579 126.643 139.048  0.00  0.00    +0.000 C 
ATOM     25  C   UNL     1     113.305 126.072 138.521  0.00  0.00    +0.000 C 
BRANCH  25  27
ATOM     26  O   UNL     1     115.119 125.244 135.892  0.00  0.00    +0.000 OA
ATOM     27  C   UNL     1     113.759 125.864 137.864  0.00  0.00    +0.000 A 
ATOM     28  C   UNL     1     113.687 126.292 137.162  0.00  0.00    +0.000 A 
ATOM     29  C   UNL     1     114.283 125.230 137.908  0.00  0.00    +0.000 A 
ATOM     30  C   UNL     1     114.140 126.086 136.504  0.00  0.00    +0.000 A 
ATOM     31  C   UNL     1     114.737 125.023 137.251  0.00  0.00    +0.000 A 
ATOM     32  C   UNL     1     114.665 125.451 136.549  0.00  0.00    +0.000 A 
ENDBRANCH  25  27
ENDBRANCH  23  24
ENDBRANCH  21  23
ENDBRANCH  20  21
ENDBRANCH  19  20
ENDBRANCH  10  15
ENDBRANCH   4  10
BRANCH   7  33
ATOM     33  O   UNL     1     111.342 130.178 138.400  0.00  0.00    +0.000 OA
BRANCH  33  38
ATOM     34  O   UNL     1     109.792 130.395 136.880  0.00  0.00    +0.000 OA
ATOM     35  O   UNL     1     111.503 131.775 138.016  0.00  0.00    +0.000 OA
ATOM     36  O   UNL     1     111.109 132.938 137.260  0.00  0.00    +0.000 OA
ATOM     37  O   UNL     1     108.942 132.701 135.317  0.00  0.00    +0.000 OA
ATOM     38  C   UNL     1     110.852 130.516 137.829  0.00  0.00    +0.000 A 
ATOM     39  C   UNL     1     110.282 130.057 137.451  0.00  0.00    +0.000 A 
ATOM     40  C   UNL     1     110.933 131.315 137.638  0.00  0.00    +0.000 A 
ATOM     41  C   UNL     1     110.442 131.654 137.067  0.00  0.00    +0.000 A 
ATOM     42  C   UNL     1     109.871 131.193 136.688  0.00  0.00    +0.000 A 
ATOM     43  C   UNL     1     110.535 132.487 136.875  0.00  0.00    +0.000 A 
ATOM     44  C   UNL     1     109.355 131.534 136.092  0.00  0.00    +0.000 A 
ATOM     45  C   UNL     1     110.028 132.844 136.282  0.00  0.00    +0.000 A 
ATOM     46  C   UNL     1     109.434 132.365 135.888  0.00  0.00    +0.000 A 
BRANCH  39  48
ATOM     47  O   UNL     1     109.960 126.862 138.214  0.00  0.00    +0.000 OA
ATOM     48  C   UNL     1     110.201 129.258 137.642  0.00  0.00    +0.000 A 
ATOM     49  C   UNL     1     110.530 128.682 137.152  0.00  0.00    +0.000 A 
ATOM     50  C   UNL     1     109.792 129.036 138.323  0.00  0.00    +0.000 A 
ATOM     51  C   UNL     1     110.449 127.883 137.342  0.00  0.00    +0.000 A 
ATOM     52  C   UNL     1     109.712 128.237 138.514  0.00  0.00    +0.000 A 
ATOM     53  C   UNL     1     110.040 127.661 138.024  0.00  0.00    +0.000 A 
ENDBRANCH  39  48
ENDBRANCH  33  38
ENDBRANCH   7  33
TORSDOF 10
ENDMDL
MODEL 6
REMARK VINA RESULT:     -10.5      1.154      4.220
REMARK  Name = 6442954
REMARK  10 active torsions:
REMARK  status: ('A' for Active; 'I' for Inactive)
REMARK    1  A    between atoms: O_1  and  C_18
REMARK    2  A    between atoms: O_1  and  C_20
REMARK    3  A    between atoms: O_5  and  C_25
REMARK    4  A    between atoms: O_5  and  C_30
REMARK    5  A    between atoms: O_10  and  C_28
REMARK    6  A    between atoms: O_10  and  C_33
REMARK    7  A    between atoms: C_26  and  C_28
REMARK    8  A    between atoms: C_31  and  C_35
REMARK    9  A    between atoms: C_33  and  C_38
REMARK   10  A    between atoms: C_46  and  C_48
REMARK                            x       y       z     vdW  Elec       q    Type
REMARK                         _______ _______ _______ _____ _____    ______ ____
ROOT
ATOM      1  O   UNL     1     111.800 128.131 138.776  0.00  0.00    +0.000 OA
ATOM      2  O   UNL     1     111.693 125.705 139.255  0.00  0.00    +0.000 OA
ATOM      3  O   UNL     1     110.366 126.655 139.501  0.00  0.00    +0.000 OA
ATOM      4  C   UNL     1     112.427 126.848 138.813  0.00  0.00    +0.000 C 
ATOM      5  C   UNL     1     111.728 126.514 139.095  0.00  0.00    +0.000 C 
ATOM      6  C   UNL     1     111.064 126.988 139.219  0.00  0.00    +0.000 C 
ATOM      7  C   UNL     1     112.463 127.656 138.653  0.00  0.00    +0.000 C 
ATOM      8  C   UNL     1     111.100 127.797 139.059  0.00  0.00    +0.000 C 
ATOM      9  C   UNL     1     110.437 128.272 139.182  0.00  0.00    +0.000 C 
ENDROOT
BRANCH   4  10
ATOM     10  O   UNL     1     113.091 126.373 138.689  0.00  0.00    +0.000 OA
BRANCH  10  15
ATOM     11  O   UNL     1     112.514 125.883 137.476  0.00  0.00    +0.000 OA
ATOM     12  O   UNL     1     114.443 125.468 138.413  0.00  0.00    +0.000 OA
ATOM     13  O   UNL     1     114.542 124.524 137.063  0.00  0.00    +0.000 OA
ATOM     14  O   UNL     1     113.290 124.487 135.989  0.00  0.00    +0.000 OA
ATOM     15  C   UNL     1     113.141 125.902 138.014  0.00  0.00    +0.000 C 
ATOM     16  C   UNL     1     113.816 125.449 137.875  0.00  0.00    +0.000 C 
ATOM     17  C   UNL     1     113.866 124.977 137.200  0.00  0.00    +0.000 C 
ATOM     18  C   UNL     1     113.240 124.959 136.664  0.00  0.00    +0.000 C 
ATOM     19  C   UNL     1     112.564 125.411 136.801  0.00  0.00    +0.000 C 
BRANCH  19  20
ATOM     20  C   UNL     1     111.939 125.393 136.265  0.00  0.00    +0.000 C 
BRANCH  20  21
ATOM     21  O   UNL     1     111.778 126.051 135.794  0.00  0.00    +0.000 OA
BRANCH  21  23
ATOM     22  O   UNL     1     110.682 125.560 135.020  0.00  0.00    +0.000 OA
ATOM     23  C   UNL     1     111.026 126.157 135.475  0.00  0.00    +0.000 C 
BRANCH  23  24
ATOM     24  C   UNL     1     110.615 126.860 135.610  0.00  0.00    +0.000 C 
ATOM     25  C   UNL     1     109.977 127.065 135.129  0.00  0.00    +0.000 C 
BRANCH  25  27
ATOM     26  O   UNL     1     108.336 129.877 135.667  0.00  0.00    +0.000 OA
ATOM     27  C   UNL     1     109.567 127.768 135.264  0.00  0.00    +0.000 A 
ATOM     28  C   UNL     1     109.785 128.455 134.864  0.00  0.00    +0.000 A 
ATOM     29  C   UNL     1     108.939 127.783 135.798  0.00  0.00    +0.000 A 
ATOM     30  C   UNL     1     109.375 129.159 134.998  0.00  0.00    +0.000 A 
ATOM     31  C   UNL     1     108.529 128.485 135.932  0.00  0.00    +0.000 A 
ATOM     32  C   UNL     1     108.747 129.173 135.532  0.00  0.00    +0.000 A 
ENDBRANCH  25  27
ENDBRANCH  23  24
ENDBRANCH  21  23
ENDBRANCH  20  21
ENDBRANCH  19  20
ENDBRANCH  10  15
ENDBRANCH   4  10
BRANCH   7  33
ATOM     33  O   UNL     1     113.163 127.991 138.370  0.00  0.00    +0.000 OA
BRANCH  33  38
ATOM     34  O   UNL     1     113.895 130.039 138.538  0.00  0.00    +0.000 OA
ATOM     35  O   UNL     1     113.401 128.104 139.998  0.00  0.00    +0.000 OA
ATOM     36  O   UNL     1     113.802 128.848 141.168  0.00  0.00    +0.000 OA
ATOM     37  O   UNL     1     114.720 131.601 140.853  0.00  0.00    +0.000 OA
ATOM     38  C   UNL     1     113.447 128.693 138.697  0.00  0.00    +0.000 A 
ATOM     39  C   UNL     1     113.611 129.337 138.210  0.00  0.00    +0.000 A 
ATOM     40  C   UNL     1     113.566 128.749 139.512  0.00  0.00    +0.000 A 
ATOM     41  C   UNL     1     113.850 129.451 139.839  0.00  0.00    +0.000 A 
ATOM     42  C   UNL     1     114.014 130.097 139.352  0.00  0.00    +0.000 A 
ATOM     43  C   UNL     1     113.970 129.498 140.689  0.00  0.00    +0.000 A 
ATOM     44  C   UNL     1     114.310 130.833 139.681  0.00  0.00    +0.000 A 
ATOM     45  C   UNL     1     114.265 130.226 141.036  0.00  0.00    +0.000 A 
ATOM     46  C   UNL     1     114.437 130.898 140.528  0.00  0.00    +0.000 A 
BRANCH  39  48
ATOM     47  O   UNL     1     113.138 129.112 134.952  0.00  0.00    +0.000 OA
ATOM     48  C   UNL     1     113.492 129.281 137.396  0.00  0.00    +0.000 A 
ATOM     49  C   UNL     1     114.042 128.885 136.925  0.00  0.00    +0.000 A 
ATOM     50  C   UNL     1     112.824 129.620 137.052  0.00  0.00    +0.000 A 
ATOM     51  C   UNL     1     113.925 128.829 136.111  0.00  0.00    +0.000 A 
ATOM     52  C   UNL     1     112.705 129.564 136.237  0.00  0.00    +0.000 A 
ATOM     53  C   UNL     1     113.255 129.168 135.767  0.00  0.00    +0.000 A 
ENDBRANCH  39  48
ENDBRANCH  33  38
ENDBRANCH   7  33
TORSDOF 10
ENDMDL
MODEL 7
REMARK VINA RESULT:     -10.5      1.505      4.449
REMARK  Name = 6442954
REMARK  10 active torsions:
REMARK  status: ('A' for Active; 'I' for Inactive)
REMARK    1  A    between atoms: O_1  and  C_18
REMARK    2  A    between atoms: O_1  and  C_20
REMARK    3  A    between atoms: O_5  and  C_25
REMARK    4  A    between atoms: O_5  and  C_30
REMARK    5  A    between atoms: O_10  and  C_28
REMARK    6  A    between atoms: O_10  and  C_33
REMARK    7  A    between atoms: C_26  and  C_28
REMARK    8  A    between atoms: C_31  and  C_35
REMARK    9  A    between atoms: C_33  and  C_38
REMARK   10  A    between atoms: C_46  and  C_48
REMARK                            x       y       z     vdW  Elec       q    Type
REMARK                         _______ _______ _______ _____ _____    ______ ____
ROOT
ATOM      1  O   UNL     1     110.943 129.611 139.083  0.00  0.00    +0.000 OA
ATOM      2  O   UNL     1     109.494 127.668 139.580  0.00  0.00    +0.000 OA
ATOM      3  O   UNL     1     108.929 129.200 139.816  0.00  0.00    +0.000 OA
ATOM      4  C   UNL     1     110.742 128.197 139.131  0.00  0.00    +0.000 C 
ATOM      5  C   UNL     1     109.977 128.316 139.414  0.00  0.00    +0.000 C 
ATOM      6  C   UNL     1     109.694 129.082 139.533  0.00  0.00    +0.000 C 
ATOM      7  C   UNL     1     111.225 128.845 138.965  0.00  0.00    +0.000 C 
ATOM      8  C   UNL     1     110.177 129.729 139.367  0.00  0.00    +0.000 C 
ATOM      9  C   UNL     1     109.895 130.496 139.484  0.00  0.00    +0.000 C 
ENDROOT
BRANCH   4  10
ATOM     10  O   UNL     1     111.025 127.431 139.013  0.00  0.00    +0.000 OA
BRANCH  10  15
ATOM     11  O   UNL     1     110.238 127.324 137.824  0.00  0.00    +0.000 OA
ATOM     12  O   UNL     1     111.646 125.928 138.737  0.00  0.00    +0.000 OA
ATOM     13  O   UNL     1     111.170 125.069 137.411  0.00  0.00    +0.000 OA
ATOM     14  O   UNL     1     110.073 125.713 136.361  0.00  0.00    +0.000 OA
ATOM     15  C   UNL     1     110.787 127.002 138.350  0.00  0.00    +0.000 C 
ATOM     16  C   UNL     1     111.097 126.250 138.212  0.00  0.00    +0.000 C 
ATOM     17  C   UNL     1     110.859 125.821 137.549  0.00  0.00    +0.000 C 
ATOM     18  C   UNL     1     110.311 126.143 137.024  0.00  0.00    +0.000 C 
ATOM     19  C   UNL     1     110.000 126.895 137.161  0.00  0.00    +0.000 C 
BRANCH  19  20
ATOM     20  C   UNL     1     109.451 127.217 136.637  0.00  0.00    +0.000 C 
BRANCH  20  21
ATOM     21  O   UNL     1     109.594 127.951 136.289  0.00  0.00    +0.000 OA
BRANCH  21  23
ATOM     22  O   UNL     1     108.216 128.054 135.928  0.00  0.00    +0.000 OA
ATOM     23  C   UNL     1     108.970 128.386 135.971  0.00  0.00    +0.000 C 
BRANCH  23  24
ATOM     24  C   UNL     1     109.098 129.154 135.697  0.00  0.00    +0.000 C 
ATOM     25  C   UNL     1     108.638 129.776 135.981  0.00  0.00    +0.000 C 
BRANCH  25  27
ATOM     26  O   UNL     1     109.151 132.845 134.881  0.00  0.00    +0.000 OA
ATOM     27  C   UNL     1     108.766 130.544 135.707  0.00  0.00    +0.000 A 
ATOM     28  C   UNL     1     108.927 130.674 134.908  0.00  0.00    +0.000 A 
ATOM     29  C   UNL     1     108.734 131.180 136.230  0.00  0.00    +0.000 A 
ATOM     30  C   UNL     1     109.056 131.441 134.633  0.00  0.00    +0.000 A 
ATOM     31  C   UNL     1     108.862 131.947 135.955  0.00  0.00    +0.000 A 
ATOM     32  C   UNL     1     109.023 132.077 135.157  0.00  0.00    +0.000 A 
ENDBRANCH  25  27
ENDBRANCH  23  24
ENDBRANCH  21  23
ENDBRANCH  20  21
ENDBRANCH  19  20
ENDBRANCH  10  15
ENDBRANCH   4  10
BRANCH   7  33
ATOM     33  O   UNL     1     111.991 128.727 138.681  0.00  0.00    +0.000 OA
BRANCH  33  38
ATOM     34  O   UNL     1     113.682 130.107 138.665  0.00  0.00    +0.000 OA
ATOM     35  O   UNL     1     112.308 128.852 140.296  0.00  0.00    +0.000 OA
ATOM     36  O   UNL     1     113.074 129.386 141.396  0.00  0.00    +0.000 OA
ATOM     37  O   UNL     1     115.271 131.224 140.834  0.00  0.00    +0.000 OA
ATOM     38  C   UNL     1     112.608 129.208 138.945  0.00  0.00    +0.000 A 
ATOM     39  C   UNL     1     113.065 129.626 138.401  0.00  0.00    +0.000 A 
ATOM     40  C   UNL     1     112.765 129.270 139.752  0.00  0.00    +0.000 A 
ATOM     41  C   UNL     1     113.382 129.751 140.016  0.00  0.00    +0.000 A 
ATOM     42  C   UNL     1     113.840 130.170 139.472  0.00  0.00    +0.000 A 
ATOM     43  C   UNL     1     113.537 129.808 140.860  0.00  0.00    +0.000 A 
ATOM     44  C   UNL     1     114.485 130.674 139.734  0.00  0.00    +0.000 A 
ATOM     45  C   UNL     1     114.178 130.307 141.140  0.00  0.00    +0.000 A 
ATOM     46  C   UNL     1     114.654 130.742 140.574  0.00  0.00    +0.000 A 
BRANCH  39  48
ATOM     47  O   UNL     1     112.436 129.376 135.171  0.00  0.00    +0.000 OA
ATOM     48  C   UNL     1     112.908 129.564 137.594  0.00  0.00    +0.000 A 
ATOM     49  C   UNL     1     113.183 128.913 137.169  0.00  0.00    +0.000 A 
ATOM     50  C   UNL     1     112.475 130.152 137.211  0.00  0.00    +0.000 A 
ATOM     51  C   UNL     1     113.026 128.850 136.362  0.00  0.00    +0.000 A 
ATOM     52  C   UNL     1     112.317 130.090 136.404  0.00  0.00    +0.000 A 
ATOM     53  C   UNL     1     112.593 129.439 135.979  0.00  0.00    +0.000 A 
ENDBRANCH  39  48
ENDBRANCH  33  38
ENDBRANCH   7  33
TORSDOF 10
ENDMDL
MODEL 8
REMARK VINA RESULT:     -10.4      1.492      5.714
REMARK  Name = 6442954
REMARK  10 active torsions:
REMARK  status: ('A' for Active; 'I' for Inactive)
REMARK    1  A    between atoms: O_1  and  C_18
REMARK    2  A    between atoms: O_1  and  C_20
REMARK    3  A    between atoms: O_5  and  C_25
REMARK    4  A    between atoms: O_5  and  C_30
REMARK    5  A    between atoms: O_10  and  C_28
REMARK    6  A    between atoms: O_10  and  C_33
REMARK    7  A    between atoms: C_26  and  C_28
REMARK    8  A    between atoms: C_31  and  C_35
REMARK    9  A    between atoms: C_33  and  C_38
REMARK   10  A    between atoms: C_46  and  C_48
REMARK                            x       y       z     vdW  Elec       q    Type
REMARK                         _______ _______ _______ _____ _____    ______ ____
ROOT
ATOM      1  O   UNL     1     110.733 127.709 137.711  0.00  0.00    +0.000 OA
ATOM      2  O   UNL     1     110.777 128.710 139.974  0.00  0.00    +0.000 OA
ATOM      3  O   UNL     1     109.349 128.579 139.158  0.00  0.00    +0.000 OA
ATOM      4  C   UNL     1     111.461 128.108 138.874  0.00  0.00    +0.000 C 
ATOM      5  C   UNL     1     110.762 128.376 139.220  0.00  0.00    +0.000 C 
ATOM      6  C   UNL     1     110.048 128.311 138.812  0.00  0.00    +0.000 C 
ATOM      7  C   UNL     1     111.446 127.775 138.120  0.00  0.00    +0.000 C 
ATOM      8  C   UNL     1     110.033 127.977 138.058  0.00  0.00    +0.000 C 
ATOM      9  C   UNL     1     109.319 127.912 137.649  0.00  0.00    +0.000 C 
ENDROOT
BRANCH   4  10
ATOM     10  O   UNL     1     112.175 128.174 139.282  0.00  0.00    +0.000 OA
BRANCH  10  15
ATOM     11  O   UNL     1     112.260 129.552 138.911  0.00  0.00    +0.000 OA
ATOM     12  O   UNL     1     113.621 128.296 140.067  0.00  0.00    +0.000 OA
ATOM     13  O   UNL     1     114.429 129.734 140.089  0.00  0.00    +0.000 OA
ATOM     14  O   UNL     1     113.790 131.051 139.326  0.00  0.00    +0.000 OA
ATOM     15  C   UNL     1     112.579 128.893 139.293  0.00  0.00    +0.000 C 
ATOM     16  C   UNL     1     113.302 128.955 139.685  0.00  0.00    +0.000 C 
ATOM     17  C   UNL     1     113.706 129.674 139.696  0.00  0.00    +0.000 C 
ATOM     18  C   UNL     1     113.387 130.332 139.315  0.00  0.00    +0.000 C 
ATOM     19  C   UNL     1     112.663 130.271 138.922  0.00  0.00    +0.000 C 
BRANCH  19  20
ATOM     20  C   UNL     1     112.344 130.929 138.541  0.00  0.00    +0.000 C 
BRANCH  20  21
ATOM     21  O   UNL     1     112.048 130.858 137.774  0.00  0.00    +0.000 OA
BRANCH  21  23
ATOM     22  O   UNL     1     111.999 132.191 137.263  0.00  0.00    +0.000 OA
ATOM     23  C   UNL     1     111.621 131.478 137.438  0.00  0.00    +0.000 C 
BRANCH  23  24
ATOM     24  C   UNL     1     110.817 131.388 137.276  0.00  0.00    +0.000 C 
ATOM     25  C   UNL     1     110.540 131.462 136.504  0.00  0.00    +0.000 C 
BRANCH  25  27
ATOM     26  O   UNL     1     107.325 131.097 135.855  0.00  0.00    +0.000 OA
ATOM     27  C   UNL     1     109.736 131.371 136.342  0.00  0.00    +0.000 A 
ATOM     28  C   UNL     1     109.495 130.940 135.681  0.00  0.00    +0.000 A 
ATOM     29  C   UNL     1     109.174 131.710 136.840  0.00  0.00    +0.000 A 
ATOM     30  C   UNL     1     108.692 130.849 135.518  0.00  0.00    +0.000 A 
ATOM     31  C   UNL     1     108.371 131.619 136.678  0.00  0.00    +0.000 A 
ATOM     32  C   UNL     1     108.130 131.188 136.017  0.00  0.00    +0.000 A 
ENDBRANCH  25  27
ENDBRANCH  23  24
ENDBRANCH  21  23
ENDBRANCH  20  21
ENDBRANCH  19  20
ENDBRANCH  10  15
ENDBRANCH   4  10
BRANCH   7  33
ATOM     33  O   UNL     1     112.146 127.506 137.773  0.00  0.00    +0.000 OA
BRANCH  33  38
ATOM     34  O   UNL     1     112.427 126.054 136.169  0.00  0.00    +0.000 OA
ATOM     35  O   UNL     1     111.634 126.122 138.512  0.00  0.00    +0.000 OA
ATOM     36  O   UNL     1     111.375 124.703 138.495  0.00  0.00    +0.000 OA
ATOM     37  O   UNL     1     111.930 123.187 136.063  0.00  0.00    +0.000 OA
ATOM     38  C   UNL     1     112.154 126.791 137.361  0.00  0.00    +0.000 A 
ATOM     39  C   UNL     1     112.419 126.769 136.581  0.00  0.00    +0.000 A 
ATOM     40  C   UNL     1     111.898 126.099 137.731  0.00  0.00    +0.000 A 
ATOM     41  C   UNL     1     111.907 125.385 137.319  0.00  0.00    +0.000 A 
ATOM     42  C   UNL     1     112.172 125.362 136.537  0.00  0.00    +0.000 A 
ATOM     43  C   UNL     1     111.638 124.670 137.714  0.00  0.00    +0.000 A 
ATOM     44  C   UNL     1     112.185 124.624 136.098  0.00  0.00    +0.000 A 
ATOM     45  C   UNL     1     111.645 123.923 137.290  0.00  0.00    +0.000 A 
ATOM     46  C   UNL     1     111.920 123.900 136.477  0.00  0.00    +0.000 A 
BRANCH  39  48
ATOM     47  O   UNL     1     113.440 129.536 135.101  0.00  0.00    +0.000 OA
ATOM     48  C   UNL     1     112.675 127.461 136.211  0.00  0.00    +0.000 A 
ATOM     49  C   UNL     1     112.160 127.881 135.723  0.00  0.00    +0.000 A 
ATOM     50  C   UNL     1     113.444 127.732 136.329  0.00  0.00    +0.000 A 
ATOM     51  C   UNL     1     112.415 128.573 135.352  0.00  0.00    +0.000 A 
ATOM     52  C   UNL     1     113.700 128.424 135.960  0.00  0.00    +0.000 A 
ATOM     53  C   UNL     1     113.186 128.844 135.471  0.00  0.00    +0.000 A 
ENDBRANCH  39  48
ENDBRANCH  33  38
ENDBRANCH   7  33
TORSDOF 10
ENDMDL
MODEL 9
REMARK VINA RESULT:     -10.4      1.717      4.501
REMARK  Name = 6442954
REMARK  10 active torsions:
REMARK  status: ('A' for Active; 'I' for Inactive)
REMARK    1  A    between atoms: O_1  and  C_18
REMARK    2  A    between atoms: O_1  and  C_20
REMARK    3  A    between atoms: O_5  and  C_25
REMARK    4  A    between atoms: O_5  and  C_30
REMARK    5  A    between atoms: O_10  and  C_28
REMARK    6  A    between atoms: O_10  and  C_33
REMARK    7  A    between atoms: C_26  and  C_28
REMARK    8  A    between atoms: C_31  and  C_35
REMARK    9  A    between atoms: C_33  and  C_38
REMARK   10  A    between atoms: C_46  and  C_48
REMARK                            x       y       z     vdW  Elec       q    Type
REMARK                         _______ _______ _______ _____ _____    ______ ____
ROOT
ATOM      1  O   UNL     1     110.554 127.905 136.939  0.00  0.00    +0.000 OA
ATOM      2  O   UNL     1     109.411 126.161 138.272  0.00  0.00    +0.000 OA
ATOM      3  O   UNL     1     110.085 125.776 136.816  0.00  0.00    +0.000 OA
ATOM      4  C   UNL     1     109.836 127.515 138.111  0.00  0.00    +0.000 C 
ATOM      5  C   UNL     1     109.792 126.742 137.827  0.00  0.00    +0.000 C 
ATOM      6  C   UNL     1     110.129 126.549 137.099  0.00  0.00    +0.000 C 
ATOM      7  C   UNL     1     110.217 128.096 137.666  0.00  0.00    +0.000 C 
ATOM      8  C   UNL     1     110.510 127.130 136.655  0.00  0.00    +0.000 C 
ATOM      9  C   UNL     1     110.848 126.939 135.927  0.00  0.00    +0.000 C 
ENDROOT
BRANCH   4  10
ATOM     10  O   UNL     1     109.499 127.708 138.839  0.00  0.00    +0.000 OA
BRANCH  10  15
ATOM     11  O   UNL     1     110.626 127.151 139.519  0.00  0.00    +0.000 OA
ATOM     12  O   UNL     1     108.707 127.862 140.278  0.00  0.00    +0.000 OA
ATOM     13  O   UNL     1     109.438 127.383 141.678  0.00  0.00    +0.000 OA
ATOM     14  O   UNL     1     110.961 126.749 141.637  0.00  0.00    +0.000 OA
ATOM     15  C   UNL     1     109.864 127.468 139.539  0.00  0.00    +0.000 C 
ATOM     16  C   UNL     1     109.469 127.545 140.258  0.00  0.00    +0.000 C 
ATOM     17  C   UNL     1     109.835 127.305 140.958  0.00  0.00    +0.000 C 
ATOM     18  C   UNL     1     110.596 126.988 140.938  0.00  0.00    +0.000 C 
ATOM     19  C   UNL     1     110.992 126.911 140.218  0.00  0.00    +0.000 C 
BRANCH  19  20
ATOM     20  C   UNL     1     111.753 126.594 140.198  0.00  0.00    +0.000 C 
BRANCH  20  21
ATOM     21  O   UNL     1     112.342 126.963 139.753  0.00  0.00    +0.000 OA
BRANCH  21  23
ATOM     22  O   UNL     1     113.633 126.636 140.270  0.00  0.00    +0.000 OA
ATOM     23  C   UNL     1     113.077 126.601 139.661  0.00  0.00    +0.000 C 
BRANCH  23  24
ATOM     24  C   UNL     1     113.257 126.203 138.961  0.00  0.00    +0.000 C 
ATOM     25  C   UNL     1     113.979 126.335 138.585  0.00  0.00    +0.000 C 
BRANCH  25  27
ATOM     26  O   UNL     1     114.699 124.747 135.783  0.00  0.00    +0.000 OA
ATOM     27  C   UNL     1     114.159 125.937 137.885  0.00  0.00    +0.000 A 
ATOM     28  C   UNL     1     114.054 126.314 137.158  0.00  0.00    +0.000 A 
ATOM     29  C   UNL     1     114.445 125.164 137.911  0.00  0.00    +0.000 A 
ATOM     30  C   UNL     1     114.233 125.918 136.458  0.00  0.00    +0.000 A 
ATOM     31  C   UNL     1     114.625 124.768 137.211  0.00  0.00    +0.000 A 
ATOM     32  C   UNL     1     114.519 125.144 136.484  0.00  0.00    +0.000 A 
ENDBRANCH  25  27
ENDBRANCH  23  24
ENDBRANCH  21  23
ENDBRANCH  20  21
ENDBRANCH  19  20
ENDBRANCH  10  15
ENDBRANCH   4  10
BRANCH   7  33
ATOM     33  O   UNL     1     110.261 128.870 137.950  0.00  0.00    +0.000 OA
BRANCH  33  38
ATOM     34  O   UNL     1     110.561 130.732 136.853  0.00  0.00    +0.000 OA
ATOM     35  O   UNL     1     108.858 128.953 137.087  0.00  0.00    +0.000 OA
ATOM     36  O   UNL     1     107.995 129.615 136.139  0.00  0.00    +0.000 OA
ATOM     37  O   UNL     1     108.872 132.124 134.931  0.00  0.00    +0.000 OA
ATOM     38  C   UNL     1     110.127 129.505 137.440  0.00  0.00    +0.000 A 
ATOM     39  C   UNL     1     110.695 130.098 137.362  0.00  0.00    +0.000 A 
ATOM     40  C   UNL     1     109.425 129.546 137.009  0.00  0.00    +0.000 A 
ATOM     41  C   UNL     1     109.292 130.180 136.499  0.00  0.00    +0.000 A 
ATOM     42  C   UNL     1     109.860 130.774 136.421  0.00  0.00    +0.000 A 
ATOM     43  C   UNL     1     108.556 130.213 136.054  0.00  0.00    +0.000 A 
ATOM     44  C   UNL     1     109.732 131.440 135.893  0.00  0.00    +0.000 A 
ATOM     45  C   UNL     1     108.412 130.871 135.522  0.00  0.00    +0.000 A 
ATOM     46  C   UNL     1     109.003 131.488 135.441  0.00  0.00    +0.000 A 
BRANCH  39  48
ATOM     47  O   UNL     1     113.502 129.936 139.091  0.00  0.00    +0.000 OA
ATOM     48  C   UNL     1     111.397 130.057 137.794  0.00  0.00    +0.000 A 
ATOM     49  C   UNL     1     111.407 130.283 138.588  0.00  0.00    +0.000 A 
ATOM     50  C   UNL     1     112.089 129.791 137.433  0.00  0.00    +0.000 A 
ATOM     51  C   UNL     1     112.108 130.242 139.020  0.00  0.00    +0.000 A 
ATOM     52  C   UNL     1     112.791 129.750 137.865  0.00  0.00    +0.000 A 
ATOM     53  C   UNL     1     112.800 129.976 138.658  0.00  0.00    +0.000 A 
ENDBRANCH  39  48
ENDBRANCH  33  38
ENDBRANCH   7  33
TORSDOF 10
ENDMDL
MODEL 10
REMARK VINA RESULT:     -10.3      1.995      5.518
REMARK  Name = 6442954
REMARK  10 active torsions:
REMARK  status: ('A' for Active; 'I' for Inactive)
REMARK    1  A    between atoms: O_1  and  C_18
REMARK    2  A    between atoms: O_1  and  C_20
REMARK    3  A    between atoms: O_5  and  C_25
REMARK    4  A    between atoms: O_5  and  C_30
REMARK    5  A    between atoms: O_10  and  C_28
REMARK    6  A    between atoms: O_10  and  C_33
REMARK    7  A    between atoms: C_26  and  C_28
REMARK    8  A    between atoms: C_31  and  C_35
REMARK    9  A    between atoms: C_33  and  C_38
REMARK   10  A    between atoms: C_46  and  C_48
REMARK                            x       y       z     vdW  Elec       q    Type
REMARK                         _______ _______ _______ _____ _____    ______ ____
ROOT
ATOM      1  O   UNL     1     110.799 126.941 137.574  0.00  0.00    +0.000 OA
ATOM      2  O   UNL     1     109.016 126.211 139.128  0.00  0.00    +0.000 OA
ATOM      3  O   UNL     1     108.656 126.529 137.550  0.00  0.00    +0.000 OA
ATOM      4  C   UNL     1     110.384 126.538 138.882  0.00  0.00    +0.000 C 
ATOM      5  C   UNL     1     109.611 126.454 138.610  0.00  0.00    +0.000 C 
ATOM      6  C   UNL     1     109.430 126.613 137.821  0.00  0.00    +0.000 C 
ATOM      7  C   UNL     1     110.979 126.782 138.364  0.00  0.00    +0.000 C 
ATOM      8  C   UNL     1     110.024 126.856 137.303  0.00  0.00    +0.000 C 
ATOM      9  C   UNL     1     109.844 127.015 136.514  0.00  0.00    +0.000 C 
ENDROOT
BRANCH   4  10
ATOM     10  O   UNL     1     110.565 126.380 139.671  0.00  0.00    +0.000 OA
BRANCH  10  15
ATOM     11  O   UNL     1     109.998 127.635 140.055  0.00  0.00    +0.000 OA
ATOM     12  O   UNL     1     111.052 126.123 141.227  0.00  0.00    +0.000 OA
ATOM     13  O   UNL     1     110.729 127.249 142.388  0.00  0.00    +0.000 OA
ATOM     14  O   UNL     1     109.918 128.632 141.995  0.00  0.00    +0.000 OA
ATOM     15  C   UNL     1     110.404 126.943 140.252  0.00  0.00    +0.000 C 
ATOM     16  C   UNL     1     110.647 126.815 141.030  0.00  0.00    +0.000 C 
ATOM     17  C   UNL     1     110.485 127.378 141.611  0.00  0.00    +0.000 C 
ATOM     18  C   UNL     1     110.080 128.069 141.414  0.00  0.00    +0.000 C 
ATOM     19  C   UNL     1     109.836 128.197 140.636  0.00  0.00    +0.000 C 
BRANCH  19  20
ATOM     20  C   UNL     1     109.431 128.888 140.439  0.00  0.00    +0.000 C 
BRANCH  20  21
ATOM     21  O   UNL     1     109.690 129.354 139.809  0.00  0.00    +0.000 OA
BRANCH  21  23
ATOM     22  O   UNL     1     108.391 129.914 139.613  0.00  0.00    +0.000 OA
ATOM     23  C   UNL     1     109.209 129.955 139.515  0.00  0.00    +0.000 C 
BRANCH  23  24
ATOM     24  C   UNL     1     109.545 130.598 139.122  0.00  0.00    +0.000 C 
ATOM     25  C   UNL     1     109.317 130.775 138.350  0.00  0.00    +0.000 C 
BRANCH  25  27
ATOM     26  O   UNL     1     110.659 133.349 136.780  0.00  0.00    +0.000 OA
ATOM     27  C   UNL     1     109.652 131.419 137.957  0.00  0.00    +0.000 A 
ATOM     28  C   UNL     1     109.789 132.124 138.363  0.00  0.00    +0.000 A 
ATOM     29  C   UNL     1     109.851 131.357 137.159  0.00  0.00    +0.000 A 
ATOM     30  C   UNL     1     110.125 132.767 137.971  0.00  0.00    +0.000 A 
ATOM     31  C   UNL     1     110.187 132.000 136.767  0.00  0.00    +0.000 A 
ATOM     32  C   UNL     1     110.323 132.705 137.173  0.00  0.00    +0.000 A 
ENDBRANCH  25  27
ENDBRANCH  23  24
ENDBRANCH  21  23
ENDBRANCH  20  21
ENDBRANCH  19  20
ENDBRANCH  10  15
ENDBRANCH   4  10
BRANCH   7  33
ATOM     33  O   UNL     1     111.754 126.866 138.635  0.00  0.00    +0.000 OA
BRANCH  33  38
ATOM     34  O   UNL     1     113.618 126.895 137.501  0.00  0.00    +0.000 OA
ATOM     35  O   UNL     1     111.811 125.310 138.088  0.00  0.00    +0.000 OA
ATOM     36  O   UNL     1     112.455 124.255 137.345  0.00  0.00    +0.000 OA
ATOM     37  O   UNL     1     114.976 124.814 135.982  0.00  0.00    +0.000 OA
ATOM     38  C   UNL     1     112.385 126.617 138.166  0.00  0.00    +0.000 A 
ATOM     39  C   UNL     1     112.987 127.145 137.970  0.00  0.00    +0.000 A 
ATOM     40  C   UNL     1     112.413 125.838 137.892  0.00  0.00    +0.000 A 
ATOM     41  C   UNL     1     113.043 125.589 137.423  0.00  0.00    +0.000 A 
ATOM     42  C   UNL     1     113.647 126.117 137.227  0.00  0.00    +0.000 A 
ATOM     43  C   UNL     1     113.062 124.776 137.144  0.00  0.00    +0.000 A 
ATOM     44  C   UNL     1     114.309 125.869 136.739  0.00  0.00    +0.000 A 
ATOM     45  C   UNL     1     113.717 124.510 136.655  0.00  0.00    +0.000 A 
ATOM     46  C   UNL     1     114.344 125.061 136.451  0.00  0.00    +0.000 A 
BRANCH  39  48
ATOM     47  O   UNL     1     112.875 130.257 139.060  0.00  0.00    +0.000 OA
ATOM     48  C   UNL     1     112.959 127.923 138.243  0.00  0.00    +0.000 A 
ATOM     49  C   UNL     1     112.696 128.525 137.745  0.00  0.00    +0.000 A 
ATOM     50  C   UNL     1     113.195 128.099 139.013  0.00  0.00    +0.000 A 
ATOM     51  C   UNL     1     112.668 129.303 138.017  0.00  0.00    +0.000 A 
ATOM     52  C   UNL     1     113.167 128.877 139.287  0.00  0.00    +0.000 A 
ATOM     53  C   UNL     1     112.903 129.479 138.788  0.00  0.00    +0.000 A 
ENDBRANCH  39  48
ENDBRANCH  33  38
ENDBRANCH   7  33
TORSDOF 10
ENDMDL
