MODEL 1
REMARK VINA RESULT:      -8.9      0.000      0.000
REMARK  Name = 42607612
REMARK  6 active torsions:
REMARK  status: ('A' for Active; 'I' for Inactive)
REMARK    1  A    between atoms: O_4  and  C_16
REMARK    2  A    between atoms: O_4  and  C_18
REMARK    3  A    between atoms: C_14  and  C_17
REMARK    4  A    between atoms: C_23  and  C_24
REMARK    5  A    between atoms: C_24  and  C_25
REMARK    6  A    between atoms: C_26  and  C_27
REMARK                            x       y       z     vdW  Elec       q    Type
REMARK                         _______ _______ _______ _____ _____    ______ ____
ROOT
ATOM      1  O   UNL     1     110.747 129.155 134.888  0.00  0.00    +0.000 OA
ATOM      2  O   UNL     1     108.057 129.014 135.843  0.00  0.00    +0.000 OA
ATOM      3  C   UNL     1     109.524 127.442 135.465  0.00  0.00    +0.000 A 
ATOM      4  C   UNL     1     108.821 127.817 135.679  0.00  0.00    +0.000 A 
ATOM      5  C   UNL     1     110.166 127.888 135.202  0.00  0.00    +0.000 A 
ATOM      6  C   UNL     1     110.105 128.709 135.152  0.00  0.00    +0.000 A 
ATOM      7  C   UNL     1     108.760 128.638 135.629  0.00  0.00    +0.000 A 
ATOM      8  C   UNL     1     109.402 129.085 135.366  0.00  0.00    +0.000 A 
ENDROOT
BRANCH   8  10
ATOM      9  O   UNL     1     109.091 130.259 134.614  0.00  0.00    +0.000 OA
ATOM     10  C   UNL     1     109.342 129.906 135.316  0.00  0.00    +0.000 C 
BRANCH  10  11
ATOM     11  C   UNL     1     109.532 130.373 135.969  0.00  0.00    +0.000 C 
ATOM     12  C   UNL     1     109.441 131.192 135.929  0.00  0.00    +0.000 C 
BRANCH  12  15
ATOM     13  O   UNL     1     108.687 132.421 138.397  0.00  0.00    +0.000 OA
ATOM     14  O   UNL     1     110.199 133.066 138.538  0.00  0.00    +0.000 OA
ATOM     15  C   UNL     1     109.631 131.661 136.581  0.00  0.00    +0.000 A 
ATOM     16  C   UNL     1     109.064 131.807 137.163  0.00  0.00    +0.000 A 
ATOM     17  C   UNL     1     110.387 131.983 136.652  0.00  0.00    +0.000 A 
ATOM     18  C   UNL     1     109.254 132.275 137.815  0.00  0.00    +0.000 A 
ATOM     19  C   UNL     1     110.576 132.452 137.304  0.00  0.00    +0.000 A 
ATOM     20  C   UNL     1     110.010 132.598 137.885  0.00  0.00    +0.000 A 
ENDBRANCH  12  15
ENDBRANCH  10  11
ENDBRANCH   8  10
BRANCH   3  21
ATOM     21  O   UNL     1     109.585 126.621 135.515  0.00  0.00    +0.000 OA
BRANCH  21  30
ATOM     22  O   UNL     1     109.787 126.519 136.926  0.00  0.00    +0.000 OA
ATOM     23  O   UNL     1     111.110 125.231 138.090  0.00  0.00    +0.000 OA
ATOM     24  O   UNL     1     111.468 124.741 136.556  0.00  0.00    +0.000 OA
ATOM     25  O   UNL     1     110.706 125.435 135.269  0.00  0.00    +0.000 OA
ATOM     26  C   UNL     1     110.729 125.578 137.446  0.00  0.00    +0.000 C 
ATOM     27  C   UNL     1     110.908 125.333 136.680  0.00  0.00    +0.000 C 
ATOM     28  C   UNL     1     110.168 126.171 137.569  0.00  0.00    +0.000 C 
ATOM     29  C   UNL     1     110.527 125.680 136.035  0.00  0.00    +0.000 C 
ATOM     30  C   UNL     1     109.966 126.273 136.158  0.00  0.00    +0.000 C 
BRANCH  28  32
ATOM     31  O   UNL     1     109.205 126.419 138.595  0.00  0.00    +0.000 OA
ATOM     32  C   UNL     1     109.989 126.417 138.336  0.00  0.00    +0.000 C 
ENDBRANCH  28  32
ENDBRANCH  21  30
ENDBRANCH   3  21
TORSDOF 6
ENDMDL
MODEL 2
REMARK VINA RESULT:      -8.8      6.682      9.054
REMARK  Name = 42607612
REMARK  6 active torsions:
REMARK  status: ('A' for Active; 'I' for Inactive)
REMARK    1  A    between atoms: O_4  and  C_16
REMARK    2  A    between atoms: O_4  and  C_18
REMARK    3  A    between atoms: C_14  and  C_17
REMARK    4  A    between atoms: C_23  and  C_24
REMARK    5  A    between atoms: C_24  and  C_25
REMARK    6  A    between atoms: C_26  and  C_27
REMARK                            x       y       z     vdW  Elec       q    Type
REMARK                         _______ _______ _______ _____ _____    ______ ____
ROOT
ATOM      1  O   UNL     1     105.263 123.762 141.981  0.00  0.00    +0.000 OA
ATOM      2  O   UNL     1     106.685 125.014 139.841  0.00  0.00    +0.000 OA
ATOM      3  C   UNL     1     106.576 125.506 141.965  0.00  0.00    +0.000 A 
ATOM      4  C   UNL     1     106.781 125.540 141.166  0.00  0.00    +0.000 A 
ATOM      5  C   UNL     1     106.070 124.914 142.236  0.00  0.00    +0.000 A 
ATOM      6  C   UNL     1     105.770 124.355 141.709  0.00  0.00    +0.000 A 
ATOM      7  C   UNL     1     106.480 124.981 140.639  0.00  0.00    +0.000 A 
ATOM      8  C   UNL     1     105.974 124.388 140.911  0.00  0.00    +0.000 A 
ENDROOT
BRANCH   8  10
ATOM      9  O   UNL     1     106.093 123.136 140.235  0.00  0.00    +0.000 OA
ATOM     10  C   UNL     1     105.673 123.829 140.384  0.00  0.00    +0.000 C 
BRANCH  10  11
ATOM     11  C   UNL     1     104.952 123.965 140.007  0.00  0.00    +0.000 C 
ATOM     12  C   UNL     1     104.657 123.412 139.470  0.00  0.00    +0.000 C 
BRANCH  12  15
ATOM     13  O   UNL     1     101.816 123.109 139.381  0.00  0.00    +0.000 OA
ATOM     14  O   UNL     1     101.771 123.949 137.962  0.00  0.00    +0.000 OA
ATOM     15  C   UNL     1     103.936 123.546 139.093  0.00  0.00    +0.000 A 
ATOM     16  C   UNL     1     103.237 123.260 139.426  0.00  0.00    +0.000 A 
ATOM     17  C   UNL     1     103.913 123.967 138.383  0.00  0.00    +0.000 A 
ATOM     18  C   UNL     1     102.516 123.395 139.048  0.00  0.00    +0.000 A 
ATOM     19  C   UNL     1     103.191 124.100 138.006  0.00  0.00    +0.000 A 
ATOM     20  C   UNL     1     102.493 123.815 138.338  0.00  0.00    +0.000 A 
ENDBRANCH  12  15
ENDBRANCH  10  11
ENDBRANCH   8  10
BRANCH   3  21
ATOM     21  O   UNL     1     106.877 126.065 142.491  0.00  0.00    +0.000 OA
BRANCH  21  30
ATOM     22  O   UNL     1     105.902 127.085 142.264  0.00  0.00    +0.000 OA
ATOM     23  O   UNL     1     104.926 128.462 143.647  0.00  0.00    +0.000 OA
ATOM     24  O   UNL     1     105.899 127.621 144.680  0.00  0.00    +0.000 OA
ATOM     25  O   UNL     1     106.874 126.423 144.102  0.00  0.00    +0.000 OA
ATOM     26  C   UNL     1     105.414 127.863 143.358  0.00  0.00    +0.000 C 
ATOM     27  C   UNL     1     105.900 127.443 143.874  0.00  0.00    +0.000 C 
ATOM     28  C   UNL     1     105.415 127.685 142.553  0.00  0.00    +0.000 C 
ATOM     29  C   UNL     1     106.388 126.843 143.586  0.00  0.00    +0.000 C 
ATOM     30  C   UNL     1     106.389 126.664 142.781  0.00  0.00    +0.000 C 
BRANCH  28  32
ATOM     31  O   UNL     1     105.252 128.466 141.368  0.00  0.00    +0.000 OA
ATOM     32  C   UNL     1     104.929 128.105 142.036  0.00  0.00    +0.000 C 
ENDBRANCH  28  32
ENDBRANCH  21  30
ENDBRANCH   3  21
TORSDOF 6
ENDMDL
MODEL 3
REMARK VINA RESULT:      -8.7      8.517     10.495
REMARK  Name = 42607612
REMARK  6 active torsions:
REMARK  status: ('A' for Active; 'I' for Inactive)
REMARK    1  A    between atoms: O_4  and  C_16
REMARK    2  A    between atoms: O_4  and  C_18
REMARK    3  A    between atoms: C_14  and  C_17
REMARK    4  A    between atoms: C_23  and  C_24
REMARK    5  A    between atoms: C_24  and  C_25
REMARK    6  A    between atoms: C_26  and  C_27
REMARK                            x       y       z     vdW  Elec       q    Type
REMARK                         _______ _______ _______ _____ _____    ______ ____
ROOT
ATOM      1  O   UNL     1     106.819 126.907 145.291  0.00  0.00    +0.000 OA
ATOM      2  O   UNL     1     105.622 125.064 143.464  0.00  0.00    +0.000 OA
ATOM      3  C   UNL     1     105.974 124.920 145.613  0.00  0.00    +0.000 A 
ATOM      4  C   UNL     1     105.736 124.725 144.848  0.00  0.00    +0.000 A 
ATOM      5  C   UNL     1     106.334 125.647 145.761  0.00  0.00    +0.000 A 
ATOM      6  C   UNL     1     106.458 126.179 145.143  0.00  0.00    +0.000 A 
ATOM      7  C   UNL     1     105.859 125.258 144.230  0.00  0.00    +0.000 A 
ATOM      8  C   UNL     1     106.220 125.986 144.378  0.00  0.00    +0.000 A 
ENDROOT
BRANCH   8  10
ATOM      9  O   UNL     1     107.085 126.571 143.403  0.00  0.00    +0.000 OA
ATOM     10  C   UNL     1     106.344 126.518 143.760  0.00  0.00    +0.000 C 
BRANCH  10  11
ATOM     11  C   UNL     1     105.725 126.998 143.499  0.00  0.00    +0.000 C 
ATOM     12  C   UNL     1     105.857 127.555 142.906  0.00  0.00    +0.000 C 
BRANCH  12  15
ATOM     13  O   UNL     1     104.019 128.326 140.857  0.00  0.00    +0.000 OA
ATOM     14  O   UNL     1     103.385 129.474 141.858  0.00  0.00    +0.000 OA
ATOM     15  C   UNL     1     105.239 128.035 142.644  0.00  0.00    +0.000 A 
ATOM     16  C   UNL     1     104.938 127.940 141.881  0.00  0.00    +0.000 A 
ATOM     17  C   UNL     1     104.922 128.609 143.145  0.00  0.00    +0.000 A 
ATOM     18  C   UNL     1     104.320 128.420 141.620  0.00  0.00    +0.000 A 
ATOM     19  C   UNL     1     104.303 129.088 142.883  0.00  0.00    +0.000 A 
ATOM     20  C   UNL     1     104.003 128.994 142.121  0.00  0.00    +0.000 A 
ENDBRANCH  12  15
ENDBRANCH  10  11
ENDBRANCH   8  10
BRANCH   3  21
ATOM     21  O   UNL     1     105.850 124.388 146.231  0.00  0.00    +0.000 OA
BRANCH  21  30
ATOM     22  O   UNL     1     104.475 124.643 146.523  0.00  0.00    +0.000 OA
ATOM     23  O   UNL     1     103.449 124.934 148.426  0.00  0.00    +0.000 OA
ATOM     24  O   UNL     1     104.997 124.696 148.941  0.00  0.00    +0.000 OA
ATOM     25  O   UNL     1     106.198 124.423 147.844  0.00  0.00    +0.000 OA
ATOM     26  C   UNL     1     104.049 124.797 147.878  0.00  0.00    +0.000 C 
ATOM     27  C   UNL     1     104.823 124.678 148.135  0.00  0.00    +0.000 C 
ATOM     28  C   UNL     1     103.875 124.780 147.072  0.00  0.00    +0.000 C 
ATOM     29  C   UNL     1     105.424 124.542 147.587  0.00  0.00    +0.000 C 
ATOM     30  C   UNL     1     105.250 124.524 146.780  0.00  0.00    +0.000 C 
BRANCH  28  32
ATOM     31  O   UNL     1     102.771 124.392 146.251  0.00  0.00    +0.000 OA
ATOM     32  C   UNL     1     103.100 124.899 146.814  0.00  0.00    +0.000 C 
ENDBRANCH  28  32
ENDBRANCH  21  30
ENDBRANCH   3  21
TORSDOF 6
ENDMDL
MODEL 4
REMARK VINA RESULT:      -8.5      1.724      3.314
REMARK  Name = 42607612
REMARK  6 active torsions:
REMARK  status: ('A' for Active; 'I' for Inactive)
REMARK    1  A    between atoms: O_4  and  C_16
REMARK    2  A    between atoms: O_4  and  C_18
REMARK    3  A    between atoms: C_14  and  C_17
REMARK    4  A    between atoms: C_23  and  C_24
REMARK    5  A    between atoms: C_24  and  C_25
REMARK    6  A    between atoms: C_26  and  C_27
REMARK                            x       y       z     vdW  Elec       q    Type
REMARK                         _______ _______ _______ _____ _____    ______ ____
ROOT
ATOM      1  O   UNL     1     110.852 125.898 134.746  0.00  0.00    +0.000 OA
ATOM      2  O   UNL     1     109.555 126.252 137.268  0.00  0.00    +0.000 OA
ATOM      3  C   UNL     1     111.307 125.074 136.715  0.00  0.00    +0.000 A 
ATOM      4  C   UNL     1     110.707 125.412 137.169  0.00  0.00    +0.000 A 
ATOM      5  C   UNL     1     111.355 125.235 135.908  0.00  0.00    +0.000 A 
ATOM      6  C   UNL     1     110.804 125.736 135.554  0.00  0.00    +0.000 A 
ATOM      7  C   UNL     1     110.155 125.913 136.815  0.00  0.00    +0.000 A 
ATOM      8  C   UNL     1     110.203 126.075 136.007  0.00  0.00    +0.000 A 
ENDROOT
BRANCH   8  10
ATOM      9  O   UNL     1     108.990 126.259 135.275  0.00  0.00    +0.000 OA
ATOM     10  C   UNL     1     109.651 126.576 135.653  0.00  0.00    +0.000 C 
BRANCH  10  11
ATOM     11  C   UNL     1     109.762 127.393 135.676  0.00  0.00    +0.000 C 
ATOM     12  C   UNL     1     109.218 127.893 135.309  0.00  0.00    +0.000 C 
BRANCH  12  15
ATOM     13  O   UNL     1     108.551 130.448 136.401  0.00  0.00    +0.000 OA
ATOM     14  O   UNL     1     109.654 131.163 135.403  0.00  0.00    +0.000 OA
ATOM     15  C   UNL     1     109.328 128.711 135.332  0.00  0.00    +0.000 A 
ATOM     16  C   UNL     1     108.885 129.171 135.855  0.00  0.00    +0.000 A 
ATOM     17  C   UNL     1     109.879 129.068 134.833  0.00  0.00    +0.000 A 
ATOM     18  C   UNL     1     108.994 129.988 135.878  0.00  0.00    +0.000 A 
ATOM     19  C   UNL     1     109.987 129.886 134.857  0.00  0.00    +0.000 A 
ATOM     20  C   UNL     1     109.545 130.345 135.379  0.00  0.00    +0.000 A 
ENDBRANCH  12  15
ENDBRANCH  10  11
ENDBRANCH   8  10
BRANCH   3  21
ATOM     21  O   UNL     1     111.859 124.573 137.069  0.00  0.00    +0.000 OA
BRANCH  21  30
ATOM     22  O   UNL     1     112.577 125.520 137.863  0.00  0.00    +0.000 OA
ATOM     23  O   UNL     1     114.720 125.788 138.175  0.00  0.00    +0.000 OA
ATOM     24  O   UNL     1     114.715 124.503 137.141  0.00  0.00    +0.000 OA
ATOM     25  O   UNL     1     113.284 123.895 136.588  0.00  0.00    +0.000 OA
ATOM     26  C   UNL     1     114.005 125.484 137.898  0.00  0.00    +0.000 C 
ATOM     27  C   UNL     1     114.002 124.842 137.382  0.00  0.00    +0.000 C 
ATOM     28  C   UNL     1     113.293 125.823 138.139  0.00  0.00    +0.000 C 
ATOM     29  C   UNL     1     113.287 124.537 137.105  0.00  0.00    +0.000 C 
ATOM     30  C   UNL     1     112.574 124.876 137.345  0.00  0.00    +0.000 C 
BRANCH  28  32
ATOM     31  O   UNL     1     112.875 126.425 139.366  0.00  0.00    +0.000 OA
ATOM     32  C   UNL     1     113.295 126.466 138.656  0.00  0.00    +0.000 C 
ENDBRANCH  28  32
ENDBRANCH  21  30
ENDBRANCH   3  21
TORSDOF 6
ENDMDL
MODEL 5
REMARK VINA RESULT:      -8.4      8.463     10.363
REMARK  Name = 42607612
REMARK  6 active torsions:
REMARK  status: ('A' for Active; 'I' for Inactive)
REMARK    1  A    between atoms: O_4  and  C_16
REMARK    2  A    between atoms: O_4  and  C_18
REMARK    3  A    between atoms: C_14  and  C_17
REMARK    4  A    between atoms: C_23  and  C_24
REMARK    5  A    between atoms: C_24  and  C_25
REMARK    6  A    between atoms: C_26  and  C_27
REMARK                            x       y       z     vdW  Elec       q    Type
REMARK                         _______ _______ _______ _____ _____    ______ ____
ROOT
ATOM      1  O   UNL     1     106.456 125.892 143.811  0.00  0.00    +0.000 OA
ATOM      2  O   UNL     1     105.201 127.720 145.615  0.00  0.00    +0.000 OA
ATOM      3  C   UNL     1     105.558 125.572 145.775  0.00  0.00    +0.000 A 
ATOM      4  C   UNL     1     105.312 126.337 145.961  0.00  0.00    +0.000 A 
ATOM      5  C   UNL     1     105.939 125.424 145.059  0.00  0.00    +0.000 A 
ATOM      6  C   UNL     1     106.074 126.041 144.528  0.00  0.00    +0.000 A 
ATOM      7  C   UNL     1     105.447 126.954 145.430  0.00  0.00    +0.000 A 
ATOM      8  C   UNL     1     105.829 126.806 144.713  0.00  0.00    +0.000 A 
ENDROOT
BRANCH   8  10
ATOM      9  O   UNL     1     106.695 127.805 144.172  0.00  0.00    +0.000 OA
ATOM     10  C   UNL     1     105.964 127.423 144.182  0.00  0.00    +0.000 C 
BRANCH  10  11
ATOM     11  C   UNL     1     105.368 127.658 143.663  0.00  0.00    +0.000 C 
ATOM     12  C   UNL     1     105.520 128.237 143.096  0.00  0.00    +0.000 C 
BRANCH  12  15
ATOM     13  O   UNL     1     104.141 127.928 140.612  0.00  0.00    +0.000 OA
ATOM     14  O   UNL     1     103.139 129.177 141.012  0.00  0.00    +0.000 OA
ATOM     15  C   UNL     1     104.925 128.472 142.575  0.00  0.00    +0.000 A 
ATOM     16  C   UNL     1     104.830 128.083 141.854  0.00  0.00    +0.000 A 
ATOM     17  C   UNL     1     104.424 129.097 142.776  0.00  0.00    +0.000 A 
ATOM     18  C   UNL     1     104.235 128.318 141.333  0.00  0.00    +0.000 A 
ATOM     19  C   UNL     1     103.829 129.331 142.254  0.00  0.00    +0.000 A 
ATOM     20  C   UNL     1     103.734 128.942 141.534  0.00  0.00    +0.000 A 
ENDBRANCH  12  15
ENDBRANCH  10  11
ENDBRANCH   8  10
BRANCH   3  21
ATOM     21  O   UNL     1     105.423 124.955 146.305  0.00  0.00    +0.000 OA
BRANCH  21  30
ATOM     22  O   UNL     1     106.683 125.026 146.976  0.00  0.00    +0.000 OA
ATOM     23  O   UNL     1     107.201 124.742 149.076  0.00  0.00    +0.000 OA
ATOM     24  O   UNL     1     105.571 124.494 149.122  0.00  0.00    +0.000 OA
ATOM     25  O   UNL     1     104.681 124.600 147.736  0.00  0.00    +0.000 OA
ATOM     26  C   UNL     1     106.756 124.795 148.384  0.00  0.00    +0.000 C 
ATOM     27  C   UNL     1     105.941 124.671 148.407  0.00  0.00    +0.000 C 
ATOM     28  C   UNL     1     107.127 124.972 147.669  0.00  0.00    +0.000 C 
ATOM     29  C   UNL     1     105.496 124.724 147.714  0.00  0.00    +0.000 C 
ATOM     30  C   UNL     1     105.867 124.902 146.999  0.00  0.00    +0.000 C 
BRANCH  28  32
ATOM     31  O   UNL     1     108.243 125.801 147.337  0.00  0.00    +0.000 OA
ATOM     32  C   UNL     1     107.942 125.097 147.646  0.00  0.00    +0.000 C 
ENDBRANCH  28  32
ENDBRANCH  21  30
ENDBRANCH   3  21
TORSDOF 6
ENDMDL
MODEL 6
REMARK VINA RESULT:      -8.4      2.474      5.767
REMARK  Name = 42607612
REMARK  6 active torsions:
REMARK  status: ('A' for Active; 'I' for Inactive)
REMARK    1  A    between atoms: O_4  and  C_16
REMARK    2  A    between atoms: O_4  and  C_18
REMARK    3  A    between atoms: C_14  and  C_17
REMARK    4  A    between atoms: C_23  and  C_24
REMARK    5  A    between atoms: C_24  and  C_25
REMARK    6  A    between atoms: C_26  and  C_27
REMARK                            x       y       z     vdW  Elec       q    Type
REMARK                         _______ _______ _______ _____ _____    ______ ____
ROOT
ATOM      1  O   UNL     1     113.021 128.805 137.641  0.00  0.00    +0.000 OA
ATOM      2  O   UNL     1     112.764 128.578 134.804  0.00  0.00    +0.000 OA
ATOM      3  C   UNL     1     111.627 129.749 136.253  0.00  0.00    +0.000 A 
ATOM      4  C   UNL     1     111.879 129.429 135.535  0.00  0.00    +0.000 A 
ATOM      5  C   UNL     1     112.007 129.542 136.954  0.00  0.00    +0.000 A 
ATOM      6  C   UNL     1     112.640 129.013 136.939  0.00  0.00    +0.000 A 
ATOM      7  C   UNL     1     112.511 128.899 135.520  0.00  0.00    +0.000 A 
ATOM      8  C   UNL     1     112.892 128.691 136.223  0.00  0.00    +0.000 A 
ENDROOT
BRANCH   8  10
ATOM      9  O   UNL     1     114.273 128.421 135.978  0.00  0.00    +0.000 OA
ATOM     10  C   UNL     1     113.525 128.162 136.208  0.00  0.00    +0.000 C 
BRANCH  10  11
ATOM     11  C   UNL     1     113.409 127.374 136.423  0.00  0.00    +0.000 C 
ATOM     12  C   UNL     1     114.007 126.820 136.298  0.00  0.00    +0.000 C 
BRANCH  12  15
ATOM     13  O   UNL     1     114.914 124.462 137.634  0.00  0.00    +0.000 OA
ATOM     14  O   UNL     1     113.548 123.668 137.159  0.00  0.00    +0.000 OA
ATOM     15  C   UNL     1     113.892 126.032 136.513  0.00  0.00    +0.000 A 
ATOM     16  C   UNL     1     114.461 125.641 136.966  0.00  0.00    +0.000 A 
ATOM     17  C   UNL     1     113.209 125.635 136.276  0.00  0.00    +0.000 A 
ATOM     18  C   UNL     1     114.345 124.853 137.181  0.00  0.00    +0.000 A 
ATOM     19  C   UNL     1     113.094 124.847 136.492  0.00  0.00    +0.000 A 
ATOM     20  C   UNL     1     113.662 124.456 136.944  0.00  0.00    +0.000 A 
ENDBRANCH  12  15
ENDBRANCH  10  11
ENDBRANCH   8  10
BRANCH   3  21
ATOM     21  O   UNL     1     110.994 130.279 136.268  0.00  0.00    +0.000 OA
BRANCH  21  30
ATOM     22  O   UNL     1     110.002 129.263 136.436  0.00  0.00    +0.000 OA
ATOM     23  O   UNL     1     107.917 129.185 135.799  0.00  0.00    +0.000 OA
ATOM     24  O   UNL     1     108.360 130.667 135.229  0.00  0.00    +0.000 OA
ATOM     25  O   UNL     1     109.899 131.214 135.463  0.00  0.00    +0.000 OA
ATOM     26  C   UNL     1     108.686 129.458 135.916  0.00  0.00    +0.000 C 
ATOM     27  C   UNL     1     108.908 130.199 135.631  0.00  0.00    +0.000 C 
ATOM     28  C   UNL     1     109.233 128.990 136.319  0.00  0.00    +0.000 C 
ATOM     29  C   UNL     1     109.677 130.473 135.748  0.00  0.00    +0.000 C 
ATOM     30  C   UNL     1     110.224 130.006 136.150  0.00  0.00    +0.000 C 
BRANCH  28  32
ATOM     31  O   UNL     1     109.093 128.076 137.408  0.00  0.00    +0.000 OA
ATOM     32  C   UNL     1     109.012 128.249 136.604  0.00  0.00    +0.000 C 
ENDBRANCH  28  32
ENDBRANCH  21  30
ENDBRANCH   3  21
TORSDOF 6
ENDMDL
MODEL 7
REMARK VINA RESULT:      -8.4      3.487      5.761
REMARK  Name = 42607612
REMARK  6 active torsions:
REMARK  status: ('A' for Active; 'I' for Inactive)
REMARK    1  A    between atoms: O_4  and  C_16
REMARK    2  A    between atoms: O_4  and  C_18
REMARK    3  A    between atoms: C_14  and  C_17
REMARK    4  A    between atoms: C_23  and  C_24
REMARK    5  A    between atoms: C_24  and  C_25
REMARK    6  A    between atoms: C_26  and  C_27
REMARK                            x       y       z     vdW  Elec       q    Type
REMARK                         _______ _______ _______ _____ _____    ______ ____
ROOT
ATOM      1  O   UNL     1     113.335 125.560 138.284  0.00  0.00    +0.000 OA
ATOM      2  O   UNL     1     112.690 128.325 137.954  0.00  0.00    +0.000 OA
ATOM      3  C   UNL     1     113.079 127.154 139.754  0.00  0.00    +0.000 A 
ATOM      4  C   UNL     1     112.901 127.793 139.263  0.00  0.00    +0.000 A 
ATOM      5  C   UNL     1     113.224 126.410 139.428  0.00  0.00    +0.000 A 
ATOM      6  C   UNL     1     113.190 126.305 138.611  0.00  0.00    +0.000 A 
ATOM      7  C   UNL     1     112.868 127.687 138.446  0.00  0.00    +0.000 A 
ATOM      8  C   UNL     1     113.012 126.943 138.119  0.00  0.00    +0.000 A 
ENDROOT
BRANCH   8  10
ATOM      9  O   UNL     1     113.658 126.937 136.845  0.00  0.00    +0.000 OA
ATOM     10  C   UNL     1     112.979 126.837 137.301  0.00  0.00    +0.000 C 
BRANCH  10  11
ATOM     11  C   UNL     1     112.266 126.632 136.941  0.00  0.00    +0.000 C 
ATOM     12  C   UNL     1     112.236 126.509 136.126  0.00  0.00    +0.000 C 
BRANCH  12  15
ATOM     13  O   UNL     1     109.927 127.247 134.612  0.00  0.00    +0.000 OA
ATOM     14  O   UNL     1     109.385 125.690 134.680  0.00  0.00    +0.000 OA
ATOM     15  C   UNL     1     111.523 126.304 135.765  0.00  0.00    +0.000 A 
ATOM     16  C   UNL     1     111.081 126.878 135.369  0.00  0.00    +0.000 A 
ATOM     17  C   UNL     1     111.252 125.525 135.799  0.00  0.00    +0.000 A 
ATOM     18  C   UNL     1     110.369 126.673 135.008  0.00  0.00    +0.000 A 
ATOM     19  C   UNL     1     110.539 125.321 135.437  0.00  0.00    +0.000 A 
ATOM     20  C   UNL     1     110.098 125.894 135.042  0.00  0.00    +0.000 A 
ENDBRANCH  12  15
ENDBRANCH  10  11
ENDBRANCH   8  10
BRANCH   3  21
ATOM     21  O   UNL     1     113.113 127.259 140.572  0.00  0.00    +0.000 OA
BRANCH  21  30
ATOM     22  O   UNL     1     111.778 126.853 140.882  0.00  0.00    +0.000 OA
ATOM     23  O   UNL     1     110.331 127.667 142.298  0.00  0.00    +0.000 OA
ATOM     24  O   UNL     1     111.608 128.683 142.540  0.00  0.00    +0.000 OA
ATOM     25  O   UNL     1     112.999 128.479 141.677  0.00  0.00    +0.000 OA
ATOM     26  C   UNL     1     111.026 127.566 141.867  0.00  0.00    +0.000 C 
ATOM     27  C   UNL     1     111.665 128.073 141.988  0.00  0.00    +0.000 C 
ATOM     28  C   UNL     1     111.083 126.956 141.314  0.00  0.00    +0.000 C 
ATOM     29  C   UNL     1     112.361 127.971 141.556  0.00  0.00    +0.000 C 
ATOM     30  C   UNL     1     112.418 127.362 141.004  0.00  0.00    +0.000 C 
BRANCH  28  32
ATOM     31  O   UNL     1     110.531 125.638 141.331  0.00  0.00    +0.000 OA
ATOM     32  C   UNL     1     110.445 126.447 141.193  0.00  0.00    +0.000 C 
ENDBRANCH  28  32
ENDBRANCH  21  30
ENDBRANCH   3  21
TORSDOF 6
ENDMDL
MODEL 8
REMARK VINA RESULT:      -8.3      3.887      6.916
REMARK  Name = 42607612
REMARK  6 active torsions:
REMARK  status: ('A' for Active; 'I' for Inactive)
REMARK    1  A    between atoms: O_4  and  C_16
REMARK    2  A    between atoms: O_4  and  C_18
REMARK    3  A    between atoms: C_14  and  C_17
REMARK    4  A    between atoms: C_23  and  C_24
REMARK    5  A    between atoms: C_24  and  C_25
REMARK    6  A    between atoms: C_26  and  C_27
REMARK                            x       y       z     vdW  Elec       q    Type
REMARK                         _______ _______ _______ _____ _____    ______ ____
ROOT
ATOM      1  O   UNL     1     112.266 126.267 140.653  0.00  0.00    +0.000 OA
ATOM      2  O   UNL     1     112.060 128.153 138.516  0.00  0.00    +0.000 OA
ATOM      3  C   UNL     1     113.366 128.112 140.264  0.00  0.00    +0.000 A 
ATOM      4  C   UNL     1     113.014 128.359 139.560  0.00  0.00    +0.000 A 
ATOM      5  C   UNL     1     113.117 127.415 140.628  0.00  0.00    +0.000 A 
ATOM      6  C   UNL     1     112.515 126.965 140.289  0.00  0.00    +0.000 A 
ATOM      7  C   UNL     1     112.412 127.908 139.220  0.00  0.00    +0.000 A 
ATOM      8  C   UNL     1     112.163 127.210 139.585  0.00  0.00    +0.000 A 
ENDROOT
BRANCH   8  10
ATOM      9  O   UNL     1     110.790 126.819 139.530  0.00  0.00    +0.000 OA
ATOM     10  C   UNL     1     111.561 126.759 139.245  0.00  0.00    +0.000 C 
BRANCH  10  11
ATOM     11  C   UNL     1     111.732 126.249 138.619  0.00  0.00    +0.000 C 
ATOM     12  C   UNL     1     111.134 125.787 138.289  0.00  0.00    +0.000 C 
BRANCH  12  15
ATOM     13  O   UNL     1     110.868 125.076 135.534  0.00  0.00    +0.000 OA
ATOM     14  O   UNL     1     111.810 123.746 135.786  0.00  0.00    +0.000 OA
ATOM     15  C   UNL     1     111.303 125.276 137.664  0.00  0.00    +0.000 A 
ATOM     16  C   UNL     1     111.001 125.431 136.912  0.00  0.00    +0.000 A 
ATOM     17  C   UNL     1     111.775 124.611 137.790  0.00  0.00    +0.000 A 
ATOM     18  C   UNL     1     111.170 124.921 136.286  0.00  0.00    +0.000 A 
ATOM     19  C   UNL     1     111.943 124.101 137.163  0.00  0.00    +0.000 A 
ATOM     20  C   UNL     1     111.641 124.256 136.412  0.00  0.00    +0.000 A 
ENDBRANCH  12  15
ENDBRANCH  10  11
ENDBRANCH   8  10
BRANCH   3  21
ATOM     21  O   UNL     1     113.967 128.563 140.604  0.00  0.00    +0.000 OA
BRANCH  21  30
ATOM     22  O   UNL     1     113.135 129.350 141.459  0.00  0.00    +0.000 OA
ATOM     23  O   UNL     1     113.259 131.452 142.031  0.00  0.00    +0.000 OA
ATOM     24  O   UNL     1     114.568 131.323 141.036  0.00  0.00    +0.000 OA
ATOM     25  O   UNL     1     114.922 129.878 140.322  0.00  0.00    +0.000 OA
ATOM     26  C   UNL     1     113.436 130.730 141.675  0.00  0.00    +0.000 C 
ATOM     27  C   UNL     1     114.090 130.665 141.177  0.00  0.00    +0.000 C 
ATOM     28  C   UNL     1     112.959 130.072 141.815  0.00  0.00    +0.000 C 
ATOM     29  C   UNL     1     114.268 129.943 140.820  0.00  0.00    +0.000 C 
ATOM     30  C   UNL     1     113.791 129.285 140.961  0.00  0.00    +0.000 C 
BRANCH  28  32
ATOM     31  O   UNL     1     112.205 129.602 142.935  0.00  0.00    +0.000 OA
ATOM     32  C   UNL     1     112.304 130.136 142.313  0.00  0.00    +0.000 C 
ENDBRANCH  28  32
ENDBRANCH  21  30
ENDBRANCH   3  21
TORSDOF 6
ENDMDL
MODEL 9
REMARK VINA RESULT:      -8.3      1.779      2.473
REMARK  Name = 42607612
REMARK  6 active torsions:
REMARK  status: ('A' for Active; 'I' for Inactive)
REMARK    1  A    between atoms: O_4  and  C_16
REMARK    2  A    between atoms: O_4  and  C_18
REMARK    3  A    between atoms: C_14  and  C_17
REMARK    4  A    between atoms: C_23  and  C_24
REMARK    5  A    between atoms: C_24  and  C_25
REMARK    6  A    between atoms: C_26  and  C_27
REMARK                            x       y       z     vdW  Elec       q    Type
REMARK                         _______ _______ _______ _____ _____    ______ ____
ROOT
ATOM      1  O   UNL     1     109.650 128.443 136.897  0.00  0.00    +0.000 OA
ATOM      2  O   UNL     1     111.339 129.440 134.818  0.00  0.00    +0.000 OA
ATOM      3  C   UNL     1     110.865 127.395 135.417  0.00  0.00    +0.000 A 
ATOM      4  C   UNL     1     111.195 128.031 135.007  0.00  0.00    +0.000 A 
ATOM      5  C   UNL     1     110.351 127.532 136.047  0.00  0.00    +0.000 A 
ATOM      6  C   UNL     1     110.165 128.305 136.267  0.00  0.00    +0.000 A 
ATOM      7  C   UNL     1     111.010 128.804 135.227  0.00  0.00    +0.000 A 
ATOM      8  C   UNL     1     110.495 128.941 135.858  0.00  0.00    +0.000 A 
ENDROOT
BRANCH   8  10
ATOM      9  O   UNL     1     110.770 130.105 136.639  0.00  0.00    +0.000 OA
ATOM     10  C   UNL     1     110.309 129.714 136.078  0.00  0.00    +0.000 C 
BRANCH  10  11
ATOM     11  C   UNL     1     109.662 130.096 135.737  0.00  0.00    +0.000 C 
ATOM     12  C   UNL     1     109.463 130.861 135.974  0.00  0.00    +0.000 C 
BRANCH  12  15
ATOM     13  O   UNL     1     106.674 131.485 135.977  0.00  0.00    +0.000 OA
ATOM     14  O   UNL     1     106.875 132.392 134.614  0.00  0.00    +0.000 OA
ATOM     15  C   UNL     1     108.817 131.244 135.633  0.00  0.00    +0.000 A 
ATOM     16  C   UNL     1     108.069 131.173 135.976  0.00  0.00    +0.000 A 
ATOM     17  C   UNL     1     108.917 131.698 134.952  0.00  0.00    +0.000 A 
ATOM     18  C   UNL     1     107.422 131.556 135.635  0.00  0.00    +0.000 A 
ATOM     19  C   UNL     1     108.270 132.080 134.612  0.00  0.00    +0.000 A 
ATOM     20  C   UNL     1     107.523 132.009 134.953  0.00  0.00    +0.000 A 
ENDBRANCH  12  15
ENDBRANCH  10  11
ENDBRANCH   8  10
BRANCH   3  21
ATOM     21  O   UNL     1     111.050 126.622 135.197  0.00  0.00    +0.000 OA
BRANCH  21  30
ATOM     22  O   UNL     1     112.200 126.457 136.029  0.00  0.00    +0.000 OA
ATOM     23  O   UNL     1     112.895 124.738 137.179  0.00  0.00    +0.000 OA
ATOM     24  O   UNL     1     111.519 124.126 136.507  0.00  0.00    +0.000 OA
ATOM     25  O   UNL     1     110.596 125.068 135.516  0.00  0.00    +0.000 OA
ATOM     26  C   UNL     1     112.434 125.208 136.684  0.00  0.00    +0.000 C 
ATOM     27  C   UNL     1     111.746 124.903 136.348  0.00  0.00    +0.000 C 
ATOM     28  C   UNL     1     112.661 125.985 136.524  0.00  0.00    +0.000 C 
ATOM     29  C   UNL     1     111.284 125.373 135.852  0.00  0.00    +0.000 C 
ATOM     30  C   UNL     1     111.511 126.150 135.692  0.00  0.00    +0.000 C 
BRANCH  28  32
ATOM     31  O   UNL     1     113.797 126.849 136.447  0.00  0.00    +0.000 OA
ATOM     32  C   UNL     1     113.349 126.292 136.860  0.00  0.00    +0.000 C 
ENDBRANCH  28  32
ENDBRANCH  21  30
ENDBRANCH   3  21
TORSDOF 6
ENDMDL
MODEL 10
REMARK VINA RESULT:      -8.3      2.159      3.095
REMARK  Name = 42607612
REMARK  6 active torsions:
REMARK  status: ('A' for Active; 'I' for Inactive)
REMARK    1  A    between atoms: O_4  and  C_16
REMARK    2  A    between atoms: O_4  and  C_18
REMARK    3  A    between atoms: C_14  and  C_17
REMARK    4  A    between atoms: C_23  and  C_24
REMARK    5  A    between atoms: C_24  and  C_25
REMARK    6  A    between atoms: C_26  and  C_27
REMARK                            x       y       z     vdW  Elec       q    Type
REMARK                         _______ _______ _______ _____ _____    ______ ____
ROOT
ATOM      1  O   UNL     1     112.434 129.085 138.066  0.00  0.00    +0.000 OA
ATOM      2  O   UNL     1     112.564 128.394 135.296  0.00  0.00    +0.000 OA
ATOM      3  C   UNL     1     113.223 127.309 137.072  0.00  0.00    +0.000 A 
ATOM      4  C   UNL     1     113.075 127.493 136.282  0.00  0.00    +0.000 A 
ATOM      5  C   UNL     1     113.009 127.839 137.667  0.00  0.00    +0.000 A 
ATOM      6  C   UNL     1     112.648 128.554 137.471  0.00  0.00    +0.000 A 
ATOM      7  C   UNL     1     112.713 128.208 136.086  0.00  0.00    +0.000 A 
ATOM      8  C   UNL     1     112.499 128.739 136.681  0.00  0.00    +0.000 A 
ENDROOT
BRANCH   8  10
ATOM      9  O   UNL     1     112.596 130.126 136.352  0.00  0.00    +0.000 OA
ATOM     10  C   UNL     1     112.137 129.454 136.486  0.00  0.00    +0.000 C 
BRANCH  10  11
ATOM     11  C   UNL     1     111.315 129.497 136.424  0.00  0.00    +0.000 C 
ATOM     12  C   UNL     1     110.953 130.212 136.230  0.00  0.00    +0.000 C 
BRANCH  12  15
ATOM     13  O   UNL     1     108.412 130.806 137.396  0.00  0.00    +0.000 OA
ATOM     14  O   UNL     1     107.667 130.389 135.985  0.00  0.00    +0.000 OA
ATOM     15  C   UNL     1     110.132 130.256 136.168  0.00  0.00    +0.000 A 
ATOM     16  C   UNL     1     109.683 130.509 136.813  0.00  0.00    +0.000 A 
ATOM     17  C   UNL     1     109.759 130.048 135.462  0.00  0.00    +0.000 A 
ATOM     18  C   UNL     1     108.862 130.553 136.751  0.00  0.00    +0.000 A 
ATOM     19  C   UNL     1     108.937 130.092 135.402  0.00  0.00    +0.000 A 
ATOM     20  C   UNL     1     108.489 130.344 136.045  0.00  0.00    +0.000 A 
ENDBRANCH  12  15
ENDBRANCH  10  11
ENDBRANCH   8  10
BRANCH   3  21
ATOM     21  O   UNL     1     113.585 126.594 137.268  0.00  0.00    +0.000 OA
BRANCH  21  30
ATOM     22  O   UNL     1     112.418 125.842 137.605  0.00  0.00    +0.000 OA
ATOM     23  O   UNL     1     111.862 123.783 137.141  0.00  0.00    +0.000 OA
ATOM     24  O   UNL     1     113.334 123.881 136.404  0.00  0.00    +0.000 OA
ATOM     25  O   UNL     1     114.195 125.287 136.467  0.00  0.00    +0.000 OA
ATOM     26  C   UNL     1     112.293 124.485 137.173  0.00  0.00    +0.000 C 
ATOM     27  C   UNL     1     113.028 124.535 136.804  0.00  0.00    +0.000 C 
ATOM     28  C   UNL     1     111.987 125.139 137.573  0.00  0.00    +0.000 C 
ATOM     29  C   UNL     1     113.460 125.237 136.835  0.00  0.00    +0.000 C 
ATOM     30  C   UNL     1     113.154 125.891 137.236  0.00  0.00    +0.000 C 
BRANCH  28  32
ATOM     31  O   UNL     1     111.176 125.288 138.741  0.00  0.00    +0.000 OA
ATOM     32  C   UNL     1     111.251 125.090 137.942  0.00  0.00    +0.000 C 
ENDBRANCH  28  32
ENDBRANCH  21  30
ENDBRANCH   3  21
TORSDOF 6
ENDMDL
