MODEL 1
REMARK VINA RESULT:     -10.0      0.000      0.000
REMARK  Name = 44259088
REMARK  4 active torsions:
REMARK  status: ('A' for Active; 'I' for Inactive)
REMARK    1  A    between atoms: O_2  and  C_15
REMARK    2  A    between atoms: O_2  and  C_17
REMARK    3  A    between atoms: O_10  and  C_31
REMARK    4  A    between atoms: C_18  and  C_22
REMARK                            x       y       z     vdW  Elec       q    Type
REMARK                         _______ _______ _______ _____ _____    ______ ____
ROOT
ATOM      1  O   UNL     1     105.608 124.440 147.728  0.00  0.00    +0.000 OA
ATOM      2  O   UNL     1     107.043 125.568 146.055  0.00  0.00    +0.000 OA
ATOM      3  O   UNL     1     108.164 125.548 146.963  0.00  0.00    +0.000 OA
ATOM      4  O   UNL     1     107.828 124.366 149.612  0.00  0.00    +0.000 OA
ATOM      5  C   UNL     1     105.778 125.020 146.432  0.00  0.00    +0.000 A 
ATOM      6  C   UNL     1     105.300 124.644 146.990  0.00  0.00    +0.000 A 
ATOM      7  C   UNL     1     106.565 125.192 146.613  0.00  0.00    +0.000 A 
ATOM      8  C   UNL     1     106.873 124.988 147.351  0.00  0.00    +0.000 A 
ATOM      9  C   UNL     1     106.394 124.612 147.908  0.00  0.00    +0.000 A 
ATOM     10  C   UNL     1     107.693 125.172 147.527  0.00  0.00    +0.000 A 
ATOM     11  C   UNL     1     106.704 124.395 148.679  0.00  0.00    +0.000 A 
ATOM     12  C   UNL     1     108.020 124.962 148.293  0.00  0.00    +0.000 A 
ATOM     13  C   UNL     1     107.522 124.571 148.873  0.00  0.00    +0.000 A 
ENDROOT
BRANCH   6  14
ATOM     14  C   UNL     1     104.513 124.472 146.809  0.00  0.00    +0.000 A 
ATOM     15  C   UNL     1     103.905 124.909 147.155  0.00  0.00    +0.000 A 
ATOM     16  C   UNL     1     104.335 123.862 146.283  0.00  0.00    +0.000 A 
ATOM     17  C   UNL     1     103.119 124.737 146.975  0.00  0.00    +0.000 A 
ATOM     18  C   UNL     1     103.548 123.690 146.103  0.00  0.00    +0.000 A 
ATOM     19  C   UNL     1     102.940 124.128 146.448  0.00  0.00    +0.000 A 
BRANCH  19  20
ATOM     20  O   UNL     1     102.155 123.956 146.268  0.00  0.00    +0.000 OA
ATOM     21  C   UNL     1     101.728 123.428 146.738  0.00  0.00    +0.000 C 
ENDBRANCH  19  20
ENDBRANCH   6  14
BRANCH   5  22
ATOM     22  O   UNL     1     105.470 125.224 145.695  0.00  0.00    +0.000 OA
BRANCH  22  31
ATOM     23  O   UNL     1     105.375 126.618 145.993  0.00  0.00    +0.000 OA
ATOM     24  O   UNL     1     105.734 127.154 143.604  0.00  0.00    +0.000 OA
ATOM     25  O   UNL     1     105.519 128.369 144.699  0.00  0.00    +0.000 OA
ATOM     26  O   UNL     1     105.709 125.581 144.102  0.00  0.00    +0.000 OA
ATOM     27  C   UNL     1     105.614 126.975 144.400  0.00  0.00    +0.000 C 
ATOM     28  C   UNL     1     105.507 127.582 144.948  0.00  0.00    +0.000 C 
ATOM     29  C   UNL     1     105.602 126.189 144.650  0.00  0.00    +0.000 C 
ATOM     30  C   UNL     1     105.387 127.404 145.745  0.00  0.00    +0.000 C 
ATOM     31  C   UNL     1     105.482 126.010 145.446  0.00  0.00    +0.000 C 
ATOM     32  C   UNL     1     105.279 128.012 146.292  0.00  0.00    +0.000 C 
ENDBRANCH  22  31
ENDBRANCH   5  22
TORSDOF 4
ENDMDL
MODEL 2
REMARK VINA RESULT:      -9.6      1.516      4.172
REMARK  Name = 44259088
REMARK  4 active torsions:
REMARK  status: ('A' for Active; 'I' for Inactive)
REMARK    1  A    between atoms: O_2  and  C_15
REMARK    2  A    between atoms: O_2  and  C_17
REMARK    3  A    between atoms: O_10  and  C_31
REMARK    4  A    between atoms: C_18  and  C_22
REMARK                            x       y       z     vdW  Elec       q    Type
REMARK                         _______ _______ _______ _____ _____    ______ ____
ROOT
ATOM      1  O   UNL     1     103.747 125.768 147.321  0.00  0.00    +0.000 OA
ATOM      2  O   UNL     1     105.679 124.458 146.499  0.00  0.00    +0.000 OA
ATOM      3  O   UNL     1     104.813 123.374 146.105  0.00  0.00    +0.000 OA
ATOM      4  O   UNL     1     101.937 123.621 146.551  0.00  0.00    +0.000 OA
ATOM      5  C   UNL     1     105.154 125.643 147.101  0.00  0.00    +0.000 A 
ATOM      6  C   UNL     1     104.510 126.079 147.375  0.00  0.00    +0.000 A 
ATOM      7  C   UNL     1     105.035 124.895 146.773  0.00  0.00    +0.000 A 
ATOM      8  C   UNL     1     104.273 124.584 146.719  0.00  0.00    +0.000 A 
ATOM      9  C   UNL     1     103.629 125.021 146.994  0.00  0.00    +0.000 A 
ATOM     10  C   UNL     1     104.163 123.804 146.376  0.00  0.00    +0.000 A 
ATOM     11  C   UNL     1     102.831 124.708 146.943  0.00  0.00    +0.000 A 
ATOM     12  C   UNL     1     103.371 123.475 146.318  0.00  0.00    +0.000 A 
ATOM     13  C   UNL     1     102.700 123.930 146.603  0.00  0.00    +0.000 A 
ENDROOT
BRANCH   6  14
ATOM     14  C   UNL     1     104.628 126.828 147.703  0.00  0.00    +0.000 A 
ATOM     15  C   UNL     1     104.562 126.936 148.518  0.00  0.00    +0.000 A 
ATOM     16  C   UNL     1     104.813 127.467 147.215  0.00  0.00    +0.000 A 
ATOM     17  C   UNL     1     104.681 127.684 148.845  0.00  0.00    +0.000 A 
ATOM     18  C   UNL     1     104.932 128.215 147.543  0.00  0.00    +0.000 A 
ATOM     19  C   UNL     1     104.866 128.324 148.358  0.00  0.00    +0.000 A 
BRANCH  19  20
ATOM     20  O   UNL     1     104.984 129.071 148.685  0.00  0.00    +0.000 OA
ATOM     21  C   UNL     1     104.346 129.584 148.785  0.00  0.00    +0.000 C 
ENDBRANCH  19  20
ENDBRANCH   6  14
BRANCH   5  22
ATOM     22  O   UNL     1     105.916 125.954 147.155  0.00  0.00    +0.000 OA
BRANCH  22  31
ATOM     23  O   UNL     1     106.277 125.139 148.272  0.00  0.00    +0.000 OA
ATOM     24  O   UNL     1     108.649 125.226 147.570  0.00  0.00    +0.000 OA
ATOM     25  O   UNL     1     108.218 124.382 148.921  0.00  0.00    +0.000 OA
ATOM     26  O   UNL     1     107.497 126.012 146.687  0.00  0.00    +0.000 OA
ATOM     27  C   UNL     1     107.858 125.197 147.804  0.00  0.00    +0.000 C 
ATOM     28  C   UNL     1     107.642 124.775 148.479  0.00  0.00    +0.000 C 
ATOM     29  C   UNL     1     107.282 125.590 147.363  0.00  0.00    +0.000 C 
ATOM     30  C   UNL     1     106.852 124.746 148.713  0.00  0.00    +0.000 C 
ATOM     31  C   UNL     1     106.491 125.561 147.597  0.00  0.00    +0.000 C 
ATOM     32  C   UNL     1     106.637 124.324 149.388  0.00  0.00    +0.000 C 
ENDBRANCH  22  31
ENDBRANCH   5  22
TORSDOF 4
ENDMDL
MODEL 3
REMARK VINA RESULT:      -9.2      1.052      3.698
REMARK  Name = 44259088
REMARK  4 active torsions:
REMARK  status: ('A' for Active; 'I' for Inactive)
REMARK    1  A    between atoms: O_2  and  C_15
REMARK    2  A    between atoms: O_2  and  C_17
REMARK    3  A    between atoms: O_10  and  C_31
REMARK    4  A    between atoms: C_18  and  C_22
REMARK                            x       y       z     vdW  Elec       q    Type
REMARK                         _______ _______ _______ _____ _____    ______ ____
ROOT
ATOM      1  O   UNL     1     103.930 124.539 148.182  0.00  0.00    +0.000 OA
ATOM      2  O   UNL     1     104.005 124.268 145.723  0.00  0.00    +0.000 OA
ATOM      3  O   UNL     1     102.574 124.090 145.671  0.00  0.00    +0.000 OA
ATOM      4  O   UNL     1     101.039 124.188 148.153  0.00  0.00    +0.000 OA
ATOM      5  C   UNL     1     104.677 124.490 146.965  0.00  0.00    +0.000 A 
ATOM      6  C   UNL     1     104.651 124.581 147.784  0.00  0.00    +0.000 A 
ATOM      7  C   UNL     1     103.980 124.358 146.543  0.00  0.00    +0.000 A 
ATOM      8  C   UNL     1     103.258 124.317 146.941  0.00  0.00    +0.000 A 
ATOM      9  C   UNL     1     103.234 124.408 147.760  0.00  0.00    +0.000 A 
ATOM     10  C   UNL     1     102.540 124.179 146.491  0.00  0.00    +0.000 A 
ATOM     11  C   UNL     1     102.488 124.367 148.186  0.00  0.00    +0.000 A 
ATOM     12  C   UNL     1     101.785 124.135 146.899  0.00  0.00    +0.000 A 
ATOM     13  C   UNL     1     101.759 124.229 147.752  0.00  0.00    +0.000 A 
ENDROOT
BRANCH   6  14
ATOM     14  C   UNL     1     105.348 124.713 148.206  0.00  0.00    +0.000 A 
ATOM     15  C   UNL     1     105.888 124.098 148.314  0.00  0.00    +0.000 A 
ATOM     16  C   UNL     1     105.505 125.460 148.520  0.00  0.00    +0.000 A 
ATOM     17  C   UNL     1     106.584 124.231 148.736  0.00  0.00    +0.000 A 
ATOM     18  C   UNL     1     106.202 125.592 148.942  0.00  0.00    +0.000 A 
ATOM     19  C   UNL     1     106.742 124.977 149.050  0.00  0.00    +0.000 A 
BRANCH  19  20
ATOM     20  O   UNL     1     107.438 125.109 149.471  0.00  0.00    +0.000 OA
ATOM     21  C   UNL     1     108.008 124.515 149.525  0.00  0.00    +0.000 C 
ENDBRANCH  19  20
ENDBRANCH   6  14
BRANCH   5  22
ATOM     22  O   UNL     1     105.398 124.532 146.567  0.00  0.00    +0.000 OA
BRANCH  22  31
ATOM     23  O   UNL     1     105.207 125.864 146.086  0.00  0.00    +0.000 OA
ATOM     24  O   UNL     1     106.492 125.311 144.044  0.00  0.00    +0.000 OA
ATOM     25  O   UNL     1     105.872 126.827 144.243  0.00  0.00    +0.000 OA
ATOM     26  O   UNL     1     106.255 124.163 145.206  0.00  0.00    +0.000 OA
ATOM     27  C   UNL     1     106.063 125.495 144.725  0.00  0.00    +0.000 C 
ATOM     28  C   UNL     1     105.753 126.253 144.825  0.00  0.00    +0.000 C 
ATOM     29  C   UNL     1     105.945 124.922 145.306  0.00  0.00    +0.000 C 
ATOM     30  C   UNL     1     105.325 126.437 145.506  0.00  0.00    +0.000 C 
ATOM     31  C   UNL     1     105.516 125.106 145.986  0.00  0.00    +0.000 C 
ATOM     32  C   UNL     1     105.016 127.195 145.605  0.00  0.00    +0.000 C 
ENDBRANCH  22  31
ENDBRANCH   5  22
TORSDOF 4
ENDMDL
MODEL 4
REMARK VINA RESULT:      -9.1      8.984     11.026
REMARK  Name = 44259088
REMARK  4 active torsions:
REMARK  status: ('A' for Active; 'I' for Inactive)
REMARK    1  A    between atoms: O_2  and  C_15
REMARK    2  A    between atoms: O_2  and  C_17
REMARK    3  A    between atoms: O_10  and  C_31
REMARK    4  A    between atoms: C_18  and  C_22
REMARK                            x       y       z     vdW  Elec       q    Type
REMARK                         _______ _______ _______ _____ _____    ______ ____
ROOT
ATOM      1  O   UNL     1     113.792 126.209 138.372  0.00  0.00    +0.000 OA
ATOM      2  O   UNL     1     111.712 124.956 137.894  0.00  0.00    +0.000 OA
ATOM      3  O   UNL     1     112.341 124.279 136.786  0.00  0.00    +0.000 OA
ATOM      4  O   UNL     1     115.127 124.882 136.149  0.00  0.00    +0.000 OA
ATOM      5  C   UNL     1     112.429 125.911 138.680  0.00  0.00    +0.000 A 
ATOM      6  C   UNL     1     113.122 126.328 138.839  0.00  0.00    +0.000 A 
ATOM      7  C   UNL     1     112.406 125.374 138.053  0.00  0.00    +0.000 A 
ATOM      8  C   UNL     1     113.076 125.254 137.587  0.00  0.00    +0.000 A 
ATOM      9  C   UNL     1     113.769 125.673 137.747  0.00  0.00    +0.000 A 
ATOM     10  C   UNL     1     113.039 124.693 136.938  0.00  0.00    +0.000 A 
ATOM     11  C   UNL     1     114.473 125.557 137.268  0.00  0.00    +0.000 A 
ATOM     12  C   UNL     1     113.733 124.564 136.448  0.00  0.00    +0.000 A 
ATOM     13  C   UNL     1     114.455 124.999 136.614  0.00  0.00    +0.000 A 
ENDROOT
BRANCH   6  14
ATOM     14  C   UNL     1     113.145 126.866 139.465  0.00  0.00    +0.000 A 
ATOM     15  C   UNL     1     113.172 126.592 140.243  0.00  0.00    +0.000 A 
ATOM     16  C   UNL     1     113.142 127.676 139.313  0.00  0.00    +0.000 A 
ATOM     17  C   UNL     1     113.195 127.128 140.868  0.00  0.00    +0.000 A 
ATOM     18  C   UNL     1     113.165 128.213 139.939  0.00  0.00    +0.000 A 
ATOM     19  C   UNL     1     113.192 127.940 140.717  0.00  0.00    +0.000 A 
BRANCH  19  20
ATOM     20  O   UNL     1     113.215 128.476 141.342  0.00  0.00    +0.000 OA
ATOM     21  C   UNL     1     112.513 128.752 141.677  0.00  0.00    +0.000 C 
ENDBRANCH  19  20
ENDBRANCH   6  14
BRANCH   5  22
ATOM     22  O   UNL     1     111.759 126.030 139.146  0.00  0.00    +0.000 OA
BRANCH  22  31
ATOM     23  O   UNL     1     111.083 126.808 138.156  0.00  0.00    +0.000 OA
ATOM     24  O   UNL     1     108.903 126.057 139.054  0.00  0.00    +0.000 OA
ATOM     25  O   UNL     1     108.954 127.086 137.765  0.00  0.00    +0.000 OA
ATOM     26  O   UNL     1     110.305 125.529 139.745  0.00  0.00    +0.000 OA
ATOM     27  C   UNL     1     109.629 126.308 138.755  0.00  0.00    +0.000 C 
ATOM     28  C   UNL     1     109.656 126.822 138.111  0.00  0.00    +0.000 C 
ATOM     29  C   UNL     1     110.331 126.044 139.100  0.00  0.00    +0.000 C 
ATOM     30  C   UNL     1     110.383 127.072 137.811  0.00  0.00    +0.000 C 
ATOM     31  C   UNL     1     111.058 126.294 138.800  0.00  0.00    +0.000 C 
ATOM     32  C   UNL     1     110.407 127.587 137.167  0.00  0.00    +0.000 C 
ENDBRANCH  22  31
ENDBRANCH   5  22
TORSDOF 4
ENDMDL
MODEL 5
REMARK VINA RESULT:      -9.0     10.210     12.465
REMARK  Name = 44259088
REMARK  4 active torsions:
REMARK  status: ('A' for Active; 'I' for Inactive)
REMARK    1  A    between atoms: O_2  and  C_15
REMARK    2  A    between atoms: O_2  and  C_17
REMARK    3  A    between atoms: O_10  and  C_31
REMARK    4  A    between atoms: C_18  and  C_22
REMARK                            x       y       z     vdW  Elec       q    Type
REMARK                         _______ _______ _______ _____ _____    ______ ____
ROOT
ATOM      1  O   UNL     1     113.572 126.816 136.810  0.00  0.00    +0.000 OA
ATOM      2  O   UNL     1     111.625 125.525 135.994  0.00  0.00    +0.000 OA
ATOM      3  O   UNL     1     112.280 124.280 136.313  0.00  0.00    +0.000 OA
ATOM      4  O   UNL     1     114.956 124.343 137.481  0.00  0.00    +0.000 OA
ATOM      5  C   UNL     1     112.262 126.780 136.239  0.00  0.00    +0.000 A 
ATOM      6  C   UNL     1     112.911 127.210 136.511  0.00  0.00    +0.000 A 
ATOM      7  C   UNL     1     112.274 125.955 136.266  0.00  0.00    +0.000 A 
ATOM      8  C   UNL     1     112.934 125.561 136.565  0.00  0.00    +0.000 A 
ATOM      9  C   UNL     1     113.583 125.992 136.837  0.00  0.00    +0.000 A 
ATOM     10  C   UNL     1     112.934 124.702 136.588  0.00  0.00    +0.000 A 
ATOM     11  C   UNL     1     114.276 125.593 137.151  0.00  0.00    +0.000 A 
ATOM     12  C   UNL     1     113.619 124.286 136.898  0.00  0.00    +0.000 A 
ATOM     13  C   UNL     1     114.295 124.734 137.181  0.00  0.00    +0.000 A 
ENDROOT
BRANCH   6  14
ATOM     14  C   UNL     1     112.900 128.035 136.484  0.00  0.00    +0.000 A 
ATOM     15  C   UNL     1     112.996 128.426 135.764  0.00  0.00    +0.000 A 
ATOM     16  C   UNL     1     112.792 128.468 137.178  0.00  0.00    +0.000 A 
ATOM     17  C   UNL     1     112.984 129.250 135.738  0.00  0.00    +0.000 A 
ATOM     18  C   UNL     1     112.781 129.293 137.151  0.00  0.00    +0.000 A 
ATOM     19  C   UNL     1     112.877 129.684 136.431  0.00  0.00    +0.000 A 
BRANCH  19  20
ATOM     20  O   UNL     1     112.865 130.508 136.404  0.00  0.00    +0.000 OA
ATOM     21  C   UNL     1     113.481 130.941 136.741  0.00  0.00    +0.000 C 
ENDBRANCH  19  20
ENDBRANCH   6  14
BRANCH   5  22
ATOM     22  O   UNL     1     111.602 127.174 135.940  0.00  0.00    +0.000 OA
BRANCH  22  31
ATOM     23  O   UNL     1     110.801 126.932 137.098  0.00  0.00    +0.000 OA
ATOM     24  O   UNL     1     108.762 126.966 135.695  0.00  0.00    +0.000 OA
ATOM     25  O   UNL     1     108.640 126.713 137.321  0.00  0.00    +0.000 OA
ATOM     26  O   UNL     1     110.243 127.197 135.005  0.00  0.00    +0.000 OA
ATOM     27  C   UNL     1     109.442 126.955 136.163  0.00  0.00    +0.000 C 
ATOM     28  C   UNL     1     109.382 126.828 136.976  0.00  0.00    +0.000 C 
ATOM     29  C   UNL     1     110.182 127.070 135.818  0.00  0.00    +0.000 C 
ATOM     30  C   UNL     1     110.061 126.817 137.444  0.00  0.00    +0.000 C 
ATOM     31  C   UNL     1     110.862 127.058 136.286  0.00  0.00    +0.000 C 
ATOM     32  C   UNL     1     110.000 126.690 138.257  0.00  0.00    +0.000 C 
ENDBRANCH  22  31
ENDBRANCH   5  22
TORSDOF 4
ENDMDL
MODEL 6
REMARK VINA RESULT:      -8.9      9.930     12.081
REMARK  Name = 44259088
REMARK  4 active torsions:
REMARK  status: ('A' for Active; 'I' for Inactive)
REMARK    1  A    between atoms: O_2  and  C_15
REMARK    2  A    between atoms: O_2  and  C_17
REMARK    3  A    between atoms: O_10  and  C_31
REMARK    4  A    between atoms: C_18  and  C_22
REMARK                            x       y       z     vdW  Elec       q    Type
REMARK                         _______ _______ _______ _____ _____    ______ ____
ROOT
ATOM      1  O   UNL     1     113.412 127.168 136.304  0.00  0.00    +0.000 OA
ATOM      2  O   UNL     1     112.331 128.388 138.166  0.00  0.00    +0.000 OA
ATOM      3  O   UNL     1     112.884 129.638 137.706  0.00  0.00    +0.000 OA
ATOM      4  O   UNL     1     114.562 129.654 135.316  0.00  0.00    +0.000 OA
ATOM      5  C   UNL     1     112.591 127.165 137.474  0.00  0.00    +0.000 A 
ATOM      6  C   UNL     1     112.951 126.759 136.853  0.00  0.00    +0.000 A 
ATOM      7  C   UNL     1     112.691 127.981 137.545  0.00  0.00    +0.000 A 
ATOM      8  C   UNL     1     113.151 128.390 136.996  0.00  0.00    +0.000 A 
ATOM      9  C   UNL     1     113.512 127.983 136.375  0.00  0.00    +0.000 A 
ATOM     10  C   UNL     1     113.248 129.239 137.081  0.00  0.00    +0.000 A 
ATOM     11  C   UNL     1     113.993 128.397 135.797  0.00  0.00    +0.000 A 
ATOM     12  C   UNL     1     113.726 129.671 136.513  0.00  0.00    +0.000 A 
ATOM     13  C   UNL     1     114.102 129.248 135.866  0.00  0.00    +0.000 A 
ENDROOT
BRANCH   6  14
ATOM     14  C   UNL     1     112.851 125.942 136.781  0.00  0.00    +0.000 A 
ATOM     15  C   UNL     1     113.468 125.432 136.980  0.00  0.00    +0.000 A 
ATOM     16  C   UNL     1     112.134 125.638 136.511  0.00  0.00    +0.000 A 
ATOM     17  C   UNL     1     113.368 124.617 136.908  0.00  0.00    +0.000 A 
ATOM     18  C   UNL     1     112.034 124.821 136.439  0.00  0.00    +0.000 A 
ATOM     19  C   UNL     1     112.651 124.311 136.638  0.00  0.00    +0.000 A 
BRANCH  19  20
ATOM     20  O   UNL     1     112.550 123.496 136.566  0.00  0.00    +0.000 OA
ATOM     21  C   UNL     1     112.078 123.088 137.107  0.00  0.00    +0.000 C 
ENDBRANCH  19  20
ENDBRANCH   6  14
BRANCH   5  22
ATOM     22  O   UNL     1     112.131 126.756 138.023  0.00  0.00    +0.000 OA
BRANCH  22  31
ATOM     23  O   UNL     1     113.125 126.814 139.048  0.00  0.00    +0.000 OA
ATOM     24  O   UNL     1     111.352 126.730 140.772  0.00  0.00    +0.000 OA
ATOM     25  O   UNL     1     112.937 126.816 141.222  0.00  0.00    +0.000 OA
ATOM     26  O   UNL     1     110.948 126.700 139.172  0.00  0.00    +0.000 OA
ATOM     27  C   UNL     1     111.943 126.758 140.197  0.00  0.00    +0.000 C 
ATOM     28  C   UNL     1     112.735 126.801 140.422  0.00  0.00    +0.000 C 
ATOM     29  C   UNL     1     111.742 126.743 139.397  0.00  0.00    +0.000 C 
ATOM     30  C   UNL     1     113.326 126.829 139.847  0.00  0.00    +0.000 C 
ATOM     31  C   UNL     1     112.333 126.771 138.823  0.00  0.00    +0.000 C 
ATOM     32  C   UNL     1     114.119 126.872 140.072  0.00  0.00    +0.000 C 
ENDBRANCH  22  31
ENDBRANCH   5  22
TORSDOF 4
ENDMDL
MODEL 7
REMARK VINA RESULT:      -8.9     10.987     12.042
REMARK  Name = 44259088
REMARK  4 active torsions:
REMARK  status: ('A' for Active; 'I' for Inactive)
REMARK    1  A    between atoms: O_2  and  C_15
REMARK    2  A    between atoms: O_2  and  C_17
REMARK    3  A    between atoms: O_10  and  C_31
REMARK    4  A    between atoms: C_18  and  C_22
REMARK                            x       y       z     vdW  Elec       q    Type
REMARK                         _______ _______ _______ _____ _____    ______ ____
ROOT
ATOM      1  O   UNL     1     111.038 125.361 136.507  0.00  0.00    +0.000 OA
ATOM      2  O   UNL     1     113.299 126.338 136.265  0.00  0.00    +0.000 OA
ATOM      3  O   UNL     1     113.912 125.071 136.583  0.00  0.00    +0.000 OA
ATOM      4  O   UNL     1     112.204 122.772 137.156  0.00  0.00    +0.000 OA
ATOM      5  C   UNL     1     111.878 126.483 136.227  0.00  0.00    +0.000 A 
ATOM      6  C   UNL     1     111.125 126.157 136.308  0.00  0.00    +0.000 A 
ATOM      7  C   UNL     1     112.546 126.012 136.345  0.00  0.00    +0.000 A 
ATOM      8  C   UNL     1     112.459 125.216 136.545  0.00  0.00    +0.000 A 
ATOM      9  C   UNL     1     111.705 124.891 136.625  0.00  0.00    +0.000 A 
ATOM     10  C   UNL     1     113.161 124.737 136.665  0.00  0.00    +0.000 A 
ATOM     11  C   UNL     1     111.602 124.064 136.832  0.00  0.00    +0.000 A 
ATOM     12  C   UNL     1     113.078 123.907 136.873  0.00  0.00    +0.000 A 
ATOM     13  C   UNL     1     112.293 123.568 136.957  0.00  0.00    +0.000 A 
ENDROOT
BRANCH   6  14
ATOM     14  C   UNL     1     110.457 126.628 136.189  0.00  0.00    +0.000 A 
ATOM     15  C   UNL     1     110.242 126.854 135.425  0.00  0.00    +0.000 A 
ATOM     16  C   UNL     1     110.005 126.871 136.834  0.00  0.00    +0.000 A 
ATOM     17  C   UNL     1     109.575 127.324 135.307  0.00  0.00    +0.000 A 
ATOM     18  C   UNL     1     109.337 127.342 136.716  0.00  0.00    +0.000 A 
ATOM     19  C   UNL     1     109.122 127.569 135.952  0.00  0.00    +0.000 A 
BRANCH  19  20
ATOM     20  O   UNL     1     108.455 128.039 135.834  0.00  0.00    +0.000 OA
ATOM     21  C   UNL     1     108.526 128.861 135.821  0.00  0.00    +0.000 C 
ENDBRANCH  19  20
ENDBRANCH   6  14
BRANCH   5  22
ATOM     22  O   UNL     1     111.964 127.279 136.028  0.00  0.00    +0.000 OA
BRANCH  22  31
ATOM     23  O   UNL     1     112.318 127.681 137.352  0.00  0.00    +0.000 OA
ATOM     24  O   UNL     1     113.664 129.541 136.428  0.00  0.00    +0.000 OA
ATOM     25  O   UNL     1     113.569 129.323 138.061  0.00  0.00    +0.000 OA
ATOM     26  O   UNL     1     112.862 128.519 135.412  0.00  0.00    +0.000 OA
ATOM     27  C   UNL     1     113.215 128.921 136.736  0.00  0.00    +0.000 C 
ATOM     28  C   UNL     1     113.167 128.812 137.553  0.00  0.00    +0.000 C 
ATOM     29  C   UNL     1     112.814 128.410 136.229  0.00  0.00    +0.000 C 
ATOM     30  C   UNL     1     112.719 128.192 137.861  0.00  0.00    +0.000 C 
ATOM     31  C   UNL     1     112.365 127.790 136.537  0.00  0.00    +0.000 C 
ATOM     32  C   UNL     1     112.671 128.083 138.677  0.00  0.00    +0.000 C 
ENDBRANCH  22  31
ENDBRANCH   5  22
TORSDOF 4
ENDMDL
MODEL 8
REMARK VINA RESULT:      -8.8      9.987     12.136
REMARK  Name = 44259088
REMARK  4 active torsions:
REMARK  status: ('A' for Active; 'I' for Inactive)
REMARK    1  A    between atoms: O_2  and  C_15
REMARK    2  A    between atoms: O_2  and  C_17
REMARK    3  A    between atoms: O_10  and  C_31
REMARK    4  A    between atoms: C_18  and  C_22
REMARK                            x       y       z     vdW  Elec       q    Type
REMARK                         _______ _______ _______ _____ _____    ______ ____
ROOT
ATOM      1  O   UNL     1     113.131 128.200 138.440  0.00  0.00    +0.000 OA
ATOM      2  O   UNL     1     111.880 126.076 138.666  0.00  0.00    +0.000 OA
ATOM      3  O   UNL     1     112.024 126.111 140.101  0.00  0.00    +0.000 OA
ATOM      4  O   UNL     1     113.460 128.337 141.331  0.00  0.00    +0.000 OA
ATOM      5  C   UNL     1     112.427 127.109 137.843  0.00  0.00    +0.000 A 
ATOM      6  C   UNL     1     112.844 127.816 137.768  0.00  0.00    +0.000 A 
ATOM      7  C   UNL     1     112.297 126.784 138.591  0.00  0.00    +0.000 A 
ATOM      8  C   UNL     1     112.584 127.167 139.263  0.00  0.00    +0.000 A 
ATOM      9  C   UNL     1     113.001 127.875 139.187  0.00  0.00    +0.000 A 
ATOM     10  C   UNL     1     112.442 126.820 140.035  0.00  0.00    +0.000 A 
ATOM     11  C   UNL     1     113.304 128.284 139.879  0.00  0.00    +0.000 A 
ATOM     12  C   UNL     1     112.738 127.214 140.739  0.00  0.00    +0.000 A 
ATOM     13  C   UNL     1     113.172 127.951 140.661  0.00  0.00    +0.000 A 
ENDROOT
BRANCH   6  14
ATOM     14  C   UNL     1     112.975 128.141 137.020  0.00  0.00    +0.000 A 
ATOM     15  C   UNL     1     113.720 128.086 136.671  0.00  0.00    +0.000 A 
ATOM     16  C   UNL     1     112.359 128.520 136.623  0.00  0.00    +0.000 A 
ATOM     17  C   UNL     1     113.850 128.410 135.924  0.00  0.00    +0.000 A 
ATOM     18  C   UNL     1     112.489 128.844 135.875  0.00  0.00    +0.000 A 
ATOM     19  C   UNL     1     113.235 128.790 135.526  0.00  0.00    +0.000 A 
BRANCH  19  20
ATOM     20  O   UNL     1     113.364 129.114 134.779  0.00  0.00    +0.000 OA
ATOM     21  C   UNL     1     114.077 129.495 134.612  0.00  0.00    +0.000 C 
ENDBRANCH  19  20
ENDBRANCH   6  14
BRANCH   5  22
ATOM     22  O   UNL     1     112.141 126.725 137.171  0.00  0.00    +0.000 OA
BRANCH  22  31
ATOM     23  O   UNL     1     113.140 125.704 137.195  0.00  0.00    +0.000 OA
ATOM     24  O   UNL     1     111.556 124.129 136.129  0.00  0.00    +0.000 OA
ATOM     25  O   UNL     1     113.084 123.633 136.508  0.00  0.00    +0.000 OA
ATOM     26  O   UNL     1     111.085 125.675 136.461  0.00  0.00    +0.000 OA
ATOM     27  C   UNL     1     112.084 124.654 136.484  0.00  0.00    +0.000 C 
ATOM     28  C   UNL     1     112.848 124.407 136.674  0.00  0.00    +0.000 C 
ATOM     29  C   UNL     1     111.849 125.427 136.651  0.00  0.00    +0.000 C 
ATOM     30  C   UNL     1     113.376 124.932 137.029  0.00  0.00    +0.000 C 
ATOM     31  C   UNL     1     112.377 125.952 137.006  0.00  0.00    +0.000 C 
ATOM     32  C   UNL     1     114.140 124.683 137.218  0.00  0.00    +0.000 C 
ENDBRANCH  22  31
ENDBRANCH   5  22
TORSDOF 4
ENDMDL
MODEL 9
REMARK VINA RESULT:      -8.8     10.124     11.818
REMARK  Name = 44259088
REMARK  4 active torsions:
REMARK  status: ('A' for Active; 'I' for Inactive)
REMARK    1  A    between atoms: O_2  and  C_15
REMARK    2  A    between atoms: O_2  and  C_17
REMARK    3  A    between atoms: O_10  and  C_31
REMARK    4  A    between atoms: C_18  and  C_22
REMARK                            x       y       z     vdW  Elec       q    Type
REMARK                         _______ _______ _______ _____ _____    ______ ____
ROOT
ATOM      1  O   UNL     1     112.475 125.362 138.016  0.00  0.00    +0.000 OA
ATOM      2  O   UNL     1     111.214 126.945 136.592  0.00  0.00    +0.000 OA
ATOM      3  O   UNL     1     110.861 125.885 135.678  0.00  0.00    +0.000 OA
ATOM      4  O   UNL     1     111.802 123.174 136.216  0.00  0.00    +0.000 OA
ATOM      5  C   UNL     1     112.012 126.687 137.749  0.00  0.00    +0.000 A 
ATOM      6  C   UNL     1     112.432 126.160 138.223  0.00  0.00    +0.000 A 
ATOM      7  C   UNL     1     111.634 126.417 137.066  0.00  0.00    +0.000 A 
ATOM      8  C   UNL     1     111.677 125.619 136.859  0.00  0.00    +0.000 A 
ATOM      9  C   UNL     1     112.097 125.092 137.335  0.00  0.00    +0.000 A 
ATOM     10  C   UNL     1     111.279 125.351 136.147  0.00  0.00    +0.000 A 
ATOM     11  C   UNL     1     112.149 124.260 137.130  0.00  0.00    +0.000 A 
ATOM     12  C   UNL     1     111.320 124.521 135.926  0.00  0.00    +0.000 A 
ATOM     13  C   UNL     1     111.758 123.972 136.421  0.00  0.00    +0.000 A 
ENDROOT
BRANCH   6  14
ATOM     14  C   UNL     1     112.810 126.430 138.906  0.00  0.00    +0.000 A 
ATOM     15  C   UNL     1     112.366 126.630 139.571  0.00  0.00    +0.000 A 
ATOM     16  C   UNL     1     113.632 126.500 138.921  0.00  0.00    +0.000 A 
ATOM     17  C   UNL     1     112.744 126.900 140.253  0.00  0.00    +0.000 A 
ATOM     18  C   UNL     1     114.010 126.770 139.603  0.00  0.00    +0.000 A 
ATOM     19  C   UNL     1     113.566 126.970 140.269  0.00  0.00    +0.000 A 
BRANCH  19  20
ATOM     20  O   UNL     1     113.944 127.240 140.950  0.00  0.00    +0.000 OA
ATOM     21  C   UNL     1     114.326 127.972 140.949  0.00  0.00    +0.000 C 
ENDBRANCH  19  20
ENDBRANCH   6  14
BRANCH   5  22
ATOM     22  O   UNL     1     111.969 127.485 137.955  0.00  0.00    +0.000 OA
BRANCH  22  31
ATOM     23  O   UNL     1     112.901 127.904 136.957  0.00  0.00    +0.000 OA
ATOM     24  O   UNL     1     111.776 130.105 136.831  0.00  0.00    +0.000 OA
ATOM     25  O   UNL     1     113.083 129.791 135.874  0.00  0.00    +0.000 OA
ATOM     26  O   UNL     1     111.219 128.952 137.871  0.00  0.00    +0.000 OA
ATOM     27  C   UNL     1     112.151 129.372 136.873  0.00  0.00    +0.000 C 
ATOM     28  C   UNL     1     112.804 129.214 136.395  0.00  0.00    +0.000 C 
ATOM     29  C   UNL     1     111.873 128.795 137.393  0.00  0.00    +0.000 C 
ATOM     30  C   UNL     1     113.180 128.480 136.437  0.00  0.00    +0.000 C 
ATOM     31  C   UNL     1     112.248 128.061 137.435  0.00  0.00    +0.000 C 
ATOM     32  C   UNL     1     113.833 128.324 135.958  0.00  0.00    +0.000 C 
ENDBRANCH  22  31
ENDBRANCH   5  22
TORSDOF 4
ENDMDL
MODEL 10
REMARK VINA RESULT:      -8.6     11.383     13.316
REMARK  Name = 44259088
REMARK  4 active torsions:
REMARK  status: ('A' for Active; 'I' for Inactive)
REMARK    1  A    between atoms: O_2  and  C_15
REMARK    2  A    between atoms: O_2  and  C_17
REMARK    3  A    between atoms: O_10  and  C_31
REMARK    4  A    between atoms: C_18  and  C_22
REMARK                            x       y       z     vdW  Elec       q    Type
REMARK                         _______ _______ _______ _____ _____    ______ ____
ROOT
ATOM      1  O   UNL     1     110.946 129.884 135.378  0.00  0.00    +0.000 OA
ATOM      2  O   UNL     1     109.922 128.109 136.765  0.00  0.00    +0.000 OA
ATOM      3  O   UNL     1     108.621 128.717 136.634  0.00  0.00    +0.000 OA
ATOM      4  O   UNL     1     108.351 131.169 135.070  0.00  0.00    +0.000 OA
ATOM      5  C   UNL     1     111.073 128.685 136.145  0.00  0.00    +0.000 A 
ATOM      6  C   UNL     1     111.414 129.277 135.682  0.00  0.00    +0.000 A 
ATOM      7  C   UNL     1     110.263 128.701 136.303  0.00  0.00    +0.000 A 
ATOM      8  C   UNL     1     109.795 129.308 135.999  0.00  0.00    +0.000 A 
ATOM      9  C   UNL     1     110.137 129.900 135.536  0.00  0.00    +0.000 A 
ATOM     10  C   UNL     1     108.954 129.314 136.170  0.00  0.00    +0.000 A 
ATOM     11  C   UNL     1     109.661 130.538 135.214  0.00  0.00    +0.000 A 
ATOM     12  C   UNL     1     108.461 129.943 135.857  0.00  0.00    +0.000 A 
ATOM     13  C   UNL     1     108.816 130.560 135.375  0.00  0.00    +0.000 A 
ENDROOT
BRANCH   6  14
ATOM     14  C   UNL     1     112.225 129.261 135.524  0.00  0.00    +0.000 A 
ATOM     15  C   UNL     1     112.765 129.452 136.118  0.00  0.00    +0.000 A 
ATOM     16  C   UNL     1     112.493 129.054 134.772  0.00  0.00    +0.000 A 
ATOM     17  C   UNL     1     113.574 129.436 135.959  0.00  0.00    +0.000 A 
ATOM     18  C   UNL     1     113.303 129.038 134.614  0.00  0.00    +0.000 A 
ATOM     19  C   UNL     1     113.844 129.229 135.208  0.00  0.00    +0.000 A 
BRANCH  19  20
ATOM     20  O   UNL     1     114.652 129.213 135.049  0.00  0.00    +0.000 OA
ATOM     21  C   UNL     1     115.034 129.892 134.776  0.00  0.00    +0.000 C 
ENDBRANCH  19  20
ENDBRANCH   6  14
BRANCH   5  22
ATOM     22  O   UNL     1     111.541 128.077 136.449  0.00  0.00    +0.000 OA
BRANCH  22  31
ATOM     23  O   UNL     1     111.046 127.100 135.531  0.00  0.00    +0.000 OA
ATOM     24  O   UNL     1     111.486 125.318 137.191  0.00  0.00    +0.000 OA
ATOM     25  O   UNL     1     110.844 124.935 135.720  0.00  0.00    +0.000 OA
ATOM     26  O   UNL     1     111.835 126.889 137.555  0.00  0.00    +0.000 OA
ATOM     27  C   UNL     1     111.339 125.912 136.638  0.00  0.00    +0.000 C 
ATOM     28  C   UNL     1     111.018 125.721 135.902  0.00  0.00    +0.000 C 
ATOM     29  C   UNL     1     111.513 126.697 136.819  0.00  0.00    +0.000 C 
ATOM     30  C   UNL     1     110.872 126.315 135.349  0.00  0.00    +0.000 C 
ATOM     31  C   UNL     1     111.367 127.292 136.266  0.00  0.00    +0.000 C 
ATOM     32  C   UNL     1     110.551 126.123 134.613  0.00  0.00    +0.000 C 
ENDBRANCH  22  31
ENDBRANCH   5  22
TORSDOF 4
ENDMDL
