MODEL 1
REMARK VINA RESULT:      -8.4      0.000      0.000
REMARK  Name = 42607586
REMARK  7 active torsions:
REMARK  status: ('A' for Active; 'I' for Inactive)
REMARK    1  A    between atoms: O_2  and  C_15
REMARK    2  A    between atoms: O_2  and  C_17
REMARK    3  A    between atoms: O_7  and  C_21
REMARK    4  A    between atoms: C_14  and  C_16
REMARK    5  A    between atoms: C_18  and  C_22
REMARK    6  A    between atoms: C_22  and  C_24
REMARK    7  A    between atoms: C_25  and  C_27
REMARK                            x       y       z     vdW  Elec       q    Type
REMARK                         _______ _______ _______ _____ _____    ______ ____
ROOT
ATOM      1  O   UNL     1     108.163 125.664 147.198  0.00  0.00    +0.000 OA
ATOM      2  C   UNL     1     106.001 125.374 147.269  0.00  0.00    +0.000 A 
ATOM      3  C   UNL     1     106.745 125.647 147.035  0.00  0.00    +0.000 A 
ATOM      4  C   UNL     1     105.936 124.847 147.900  0.00  0.00    +0.000 A 
ATOM      5  C   UNL     1     107.421 125.391 147.432  0.00  0.00    +0.000 A 
ATOM      6  C   UNL     1     106.612 124.591 148.296  0.00  0.00    +0.000 A 
ATOM      7  C   UNL     1     107.355 124.863 148.063  0.00  0.00    +0.000 A 
ENDROOT
BRANCH   6   8
ATOM      8  O   UNL     1     106.546 124.064 148.927  0.00  0.00    +0.000 OA
ATOM      9  C   UNL     1     106.990 124.182 149.612  0.00  0.00    +0.000 C 
ENDBRANCH   6   8
BRANCH   3  11
ATOM     10  O   UNL     1     106.927 125.891 145.639  0.00  0.00    +0.000 OA
ATOM     11  C   UNL     1     106.810 126.175 146.405  0.00  0.00    +0.000 C 
BRANCH  11  12
ATOM     12  C   UNL     1     106.758 126.987 146.541  0.00  0.00    +0.000 C 
ATOM     13  C   UNL     1     106.951 127.518 145.940  0.00  0.00    +0.000 C 
BRANCH  13  15
ATOM     14  O   UNL     1     108.108 128.530 145.339  0.00  0.00    +0.000 OA
ATOM     15  C   UNL     1     106.899 128.331 146.075  0.00  0.00    +0.000 A 
ATOM     16  C   UNL     1     107.478 128.836 145.775  0.00  0.00    +0.000 A 
ATOM     17  C   UNL     1     106.270 128.637 146.511  0.00  0.00    +0.000 A 
ATOM     18  C   UNL     1     107.426 129.649 145.911  0.00  0.00    +0.000 A 
ATOM     19  C   UNL     1     106.218 129.449 146.647  0.00  0.00    +0.000 A 
ATOM     20  C   UNL     1     106.796 129.955 146.347  0.00  0.00    +0.000 A 
ENDBRANCH  13  15
ENDBRANCH  11  12
ENDBRANCH   3  11
BRANCH   2  21
ATOM     21  O   UNL     1     105.324 125.630 146.873  0.00  0.00    +0.000 OA
BRANCH  21  30
ATOM     22  O   UNL     1     104.744 124.424 146.375  0.00  0.00    +0.000 OA
ATOM     23  O   UNL     1     102.588 125.027 147.431  0.00  0.00    +0.000 OA
ATOM     24  O   UNL     1     102.725 123.619 146.581  0.00  0.00    +0.000 OA
ATOM     25  O   UNL     1     103.887 126.032 147.576  0.00  0.00    +0.000 OA
ATOM     26  C   UNL     1     103.306 124.826 147.079  0.00  0.00    +0.000 C 
ATOM     27  C   UNL     1     103.375 124.121 146.654  0.00  0.00    +0.000 C 
ATOM     28  C   UNL     1     103.956 125.328 147.151  0.00  0.00    +0.000 C 
ATOM     29  C   UNL     1     104.094 123.920 146.302  0.00  0.00    +0.000 C 
ATOM     30  C   UNL     1     104.675 125.127 146.800  0.00  0.00    +0.000 C 
BRANCH  29  32
ATOM     31  O   UNL     1     104.578 123.203 145.165  0.00  0.00    +0.000 OA
ATOM     32  C   UNL     1     104.163 123.217 145.878  0.00  0.00    +0.000 C 
ENDBRANCH  29  32
ENDBRANCH  21  30
ENDBRANCH   2  21
TORSDOF 7
ENDMDL
MODEL 2
REMARK VINA RESULT:      -8.4     11.486     13.476
REMARK  Name = 42607586
REMARK  7 active torsions:
REMARK  status: ('A' for Active; 'I' for Inactive)
REMARK    1  A    between atoms: O_2  and  C_15
REMARK    2  A    between atoms: O_2  and  C_17
REMARK    3  A    between atoms: O_7  and  C_21
REMARK    4  A    between atoms: C_14  and  C_16
REMARK    5  A    between atoms: C_18  and  C_22
REMARK    6  A    between atoms: C_22  and  C_24
REMARK    7  A    between atoms: C_25  and  C_27
REMARK                            x       y       z     vdW  Elec       q    Type
REMARK                         _______ _______ _______ _____ _____    ______ ____
ROOT
ATOM      1  O   UNL     1     114.389 128.265 134.879  0.00  0.00    +0.000 OA
ATOM      2  C   UNL     1     113.598 129.235 136.667  0.00  0.00    +0.000 A 
ATOM      3  C   UNL     1     113.720 128.676 136.072  0.00  0.00    +0.000 A 
ATOM      4  C   UNL     1     114.024 129.942 136.662  0.00  0.00    +0.000 A 
ATOM      5  C   UNL     1     114.268 128.824 135.473  0.00  0.00    +0.000 A 
ATOM      6  C   UNL     1     114.572 130.090 136.063  0.00  0.00    +0.000 A 
ATOM      7  C   UNL     1     114.693 129.531 135.469  0.00  0.00    +0.000 A 
ENDROOT
BRANCH   6   8
ATOM      8  O   UNL     1     114.997 130.796 136.058  0.00  0.00    +0.000 OA
ATOM      9  C   UNL     1     115.092 131.215 135.354  0.00  0.00    +0.000 C 
ENDBRANCH   6   8
BRANCH   3  11
ATOM     10  O   UNL     1     112.534 127.944 135.760  0.00  0.00    +0.000 OA
ATOM     11  C   UNL     1     113.294 127.970 136.078  0.00  0.00    +0.000 C 
BRANCH  11  12
ATOM     12  C   UNL     1     113.630 127.288 136.402  0.00  0.00    +0.000 C 
ATOM     13  C   UNL     1     113.207 126.580 136.400  0.00  0.00    +0.000 C 
BRANCH  13  15
ATOM     14  O   UNL     1     112.546 125.103 136.080  0.00  0.00    +0.000 OA
ATOM     15  C   UNL     1     113.543 125.899 136.724  0.00  0.00    +0.000 A 
ATOM     16  C   UNL     1     113.212 125.161 136.564  0.00  0.00    +0.000 A 
ATOM     17  C   UNL     1     114.209 125.957 137.208  0.00  0.00    +0.000 A 
ATOM     18  C   UNL     1     113.548 124.480 136.888  0.00  0.00    +0.000 A 
ATOM     19  C   UNL     1     114.544 125.277 137.531  0.00  0.00    +0.000 A 
ATOM     20  C   UNL     1     114.214 124.538 137.371  0.00  0.00    +0.000 A 
ENDBRANCH  13  15
ENDBRANCH  11  12
ENDBRANCH   3  11
BRANCH   2  21
ATOM     21  O   UNL     1     113.051 129.088 137.266  0.00  0.00    +0.000 OA
BRANCH  21  30
ATOM     22  O   UNL     1     112.150 130.185 137.117  0.00  0.00    +0.000 OA
ATOM     23  O   UNL     1     112.286 130.629 139.548  0.00  0.00    +0.000 OA
ATOM     24  O   UNL     1     111.339 131.580 138.588  0.00  0.00    +0.000 OA
ATOM     25  O   UNL     1     113.142 129.383 138.887  0.00  0.00    +0.000 OA
ATOM     26  C   UNL     1     112.241 130.481 138.737  0.00  0.00    +0.000 C 
ATOM     27  C   UNL     1     111.767 130.957 138.257  0.00  0.00    +0.000 C 
ATOM     28  C   UNL     1     112.669 129.858 138.407  0.00  0.00    +0.000 C 
ATOM     29  C   UNL     1     111.721 130.809 137.446  0.00  0.00    +0.000 C 
ATOM     30  C   UNL     1     112.623 129.710 137.596  0.00  0.00    +0.000 C 
BRANCH  29  32
ATOM     31  O   UNL     1     110.782 130.942 136.378  0.00  0.00    +0.000 OA
ATOM     32  C   UNL     1     111.248 131.284 136.967  0.00  0.00    +0.000 C 
ENDBRANCH  29  32
ENDBRANCH  21  30
ENDBRANCH   2  21
TORSDOF 7
ENDMDL
MODEL 3
REMARK VINA RESULT:      -8.3      9.785     11.509
REMARK  Name = 42607586
REMARK  7 active torsions:
REMARK  status: ('A' for Active; 'I' for Inactive)
REMARK    1  A    between atoms: O_2  and  C_15
REMARK    2  A    between atoms: O_2  and  C_17
REMARK    3  A    between atoms: O_7  and  C_21
REMARK    4  A    between atoms: C_14  and  C_16
REMARK    5  A    between atoms: C_18  and  C_22
REMARK    6  A    between atoms: C_22  and  C_24
REMARK    7  A    between atoms: C_25  and  C_27
REMARK                            x       y       z     vdW  Elec       q    Type
REMARK                         _______ _______ _______ _____ _____    ______ ____
ROOT
ATOM      1  O   UNL     1     111.258 125.827 135.269  0.00  0.00    +0.000 OA
ATOM      2  C   UNL     1     111.619 125.985 137.415  0.00  0.00    +0.000 A 
ATOM      3  C   UNL     1     111.493 126.198 136.628  0.00  0.00    +0.000 A 
ATOM      4  C   UNL     1     111.636 125.189 137.629  0.00  0.00    +0.000 A 
ATOM      5  C   UNL     1     111.384 125.614 136.055  0.00  0.00    +0.000 A 
ATOM      6  C   UNL     1     111.527 124.605 137.056  0.00  0.00    +0.000 A 
ATOM      7  C   UNL     1     111.401 124.818 136.270  0.00  0.00    +0.000 A 
ENDROOT
BRANCH   6   8
ATOM      8  O   UNL     1     111.544 123.809 137.271  0.00  0.00    +0.000 OA
ATOM      9  C   UNL     1     112.175 123.333 137.038  0.00  0.00    +0.000 C 
ENDBRANCH   6   8
BRANCH   3  11
ATOM     10  O   UNL     1     110.770 127.419 136.456  0.00  0.00    +0.000 OA
ATOM     11  C   UNL     1     111.476 126.995 136.414  0.00  0.00    +0.000 C 
BRANCH  11  12
ATOM     12  C   UNL     1     112.167 127.367 136.158  0.00  0.00    +0.000 C 
ATOM     13  C   UNL     1     112.134 128.135 135.859  0.00  0.00    +0.000 C 
BRANCH  13  15
ATOM     14  O   UNL     1     112.076 129.214 134.612  0.00  0.00    +0.000 OA
ATOM     15  C   UNL     1     112.825 128.508 135.603  0.00  0.00    +0.000 A 
ATOM     16  C   UNL     1     112.795 129.047 134.979  0.00  0.00    +0.000 A 
ATOM     17  C   UNL     1     113.545 128.341 135.970  0.00  0.00    +0.000 A 
ATOM     18  C   UNL     1     113.486 129.420 134.723  0.00  0.00    +0.000 A 
ATOM     19  C   UNL     1     114.234 128.713 135.714  0.00  0.00    +0.000 A 
ATOM     20  C   UNL     1     114.206 129.252 135.090  0.00  0.00    +0.000 A 
ENDBRANCH  13  15
ENDBRANCH  11  12
ENDBRANCH   3  11
BRANCH   2  21
ATOM     21  O   UNL     1     111.728 126.569 137.988  0.00  0.00    +0.000 OA
BRANCH  21  30
ATOM     22  O   UNL     1     110.641 126.316 138.878  0.00  0.00    +0.000 OA
ATOM     23  O   UNL     1     112.198 126.385 140.801  0.00  0.00    +0.000 OA
ATOM     24  O   UNL     1     110.591 126.109 141.051  0.00  0.00    +0.000 OA
ATOM     25  O   UNL     1     112.767 126.615 139.270  0.00  0.00    +0.000 OA
ATOM     26  C   UNL     1     111.679 126.362 140.160  0.00  0.00    +0.000 C 
ATOM     27  C   UNL     1     110.875 126.224 140.285  0.00  0.00    +0.000 C 
ATOM     28  C   UNL     1     111.963 126.477 139.394  0.00  0.00    +0.000 C 
ATOM     29  C   UNL     1     110.356 126.200 139.644  0.00  0.00    +0.000 C 
ATOM     30  C   UNL     1     111.444 126.454 138.753  0.00  0.00    +0.000 C 
BRANCH  29  32
ATOM     31  O   UNL     1     108.989 126.488 139.343  0.00  0.00    +0.000 OA
ATOM     32  C   UNL     1     109.553 126.062 139.769  0.00  0.00    +0.000 C 
ENDBRANCH  29  32
ENDBRANCH  21  30
ENDBRANCH   2  21
TORSDOF 7
ENDMDL
MODEL 4
REMARK VINA RESULT:      -8.1     10.311     11.940
REMARK  Name = 42607586
REMARK  7 active torsions:
REMARK  status: ('A' for Active; 'I' for Inactive)
REMARK    1  A    between atoms: O_2  and  C_15
REMARK    2  A    between atoms: O_2  and  C_17
REMARK    3  A    between atoms: O_7  and  C_21
REMARK    4  A    between atoms: C_14  and  C_16
REMARK    5  A    between atoms: C_18  and  C_22
REMARK    6  A    between atoms: C_22  and  C_24
REMARK    7  A    between atoms: C_25  and  C_27
REMARK                            x       y       z     vdW  Elec       q    Type
REMARK                         _______ _______ _______ _____ _____    ______ ____
ROOT
ATOM      1  O   UNL     1     114.319 125.559 136.788  0.00  0.00    +0.000 OA
ATOM      2  C   UNL     1     112.191 126.036 136.877  0.00  0.00    +0.000 A 
ATOM      3  C   UNL     1     113.012 126.121 136.907  0.00  0.00    +0.000 A 
ATOM      4  C   UNL     1     111.859 125.302 136.698  0.00  0.00    +0.000 A 
ATOM      5  C   UNL     1     113.499 125.473 136.758  0.00  0.00    +0.000 A 
ATOM      6  C   UNL     1     112.347 124.654 136.550  0.00  0.00    +0.000 A 
ATOM      7  C   UNL     1     113.167 124.739 136.580  0.00  0.00    +0.000 A 
ENDROOT
BRANCH   6   8
ATOM      8  O   UNL     1     112.015 123.921 136.372  0.00  0.00    +0.000 OA
ATOM      9  C   UNL     1     112.086 123.295 136.905  0.00  0.00    +0.000 C 
ENDBRANCH   6   8
BRANCH   3  11
ATOM     10  O   UNL     1     113.488 127.063 137.870  0.00  0.00    +0.000 OA
ATOM     11  C   UNL     1     113.343 126.855 137.085  0.00  0.00    +0.000 C 
BRANCH  11  12
ATOM     12  C   UNL     1     113.530 127.382 136.477  0.00  0.00    +0.000 C 
ATOM     13  C   UNL     1     113.729 128.162 136.656  0.00  0.00    +0.000 C 
BRANCH  13  15
ATOM     14  O   UNL     1     113.088 129.682 136.656  0.00  0.00    +0.000 OA
ATOM     15  C   UNL     1     113.916 128.689 136.048  0.00  0.00    +0.000 A 
ATOM     16  C   UNL     1     113.595 129.449 136.048  0.00  0.00    +0.000 A 
ATOM     17  C   UNL     1     114.423 128.455 135.441  0.00  0.00    +0.000 A 
ATOM     18  C   UNL     1     113.781 129.976 135.440  0.00  0.00    +0.000 A 
ATOM     19  C   UNL     1     114.609 128.982 134.834  0.00  0.00    +0.000 A 
ATOM     20  C   UNL     1     114.289 129.742 134.833  0.00  0.00    +0.000 A 
ENDBRANCH  13  15
ENDBRANCH  11  12
ENDBRANCH   3  11
BRANCH   2  21
ATOM     21  O   UNL     1     111.703 126.685 137.026  0.00  0.00    +0.000 OA
BRANCH  21  30
ATOM     22  O   UNL     1     110.965 126.249 138.168  0.00  0.00    +0.000 OA
ATOM     23  O   UNL     1     108.855 126.917 137.059  0.00  0.00    +0.000 OA
ATOM     24  O   UNL     1     108.819 126.259 138.571  0.00  0.00    +0.000 OA
ATOM     25  O   UNL     1     110.297 127.129 136.286  0.00  0.00    +0.000 OA
ATOM     26  C   UNL     1     109.558 126.694 137.428  0.00  0.00    +0.000 C 
ATOM     27  C   UNL     1     109.541 126.365 138.185  0.00  0.00    +0.000 C 
ATOM     28  C   UNL     1     110.279 126.801 137.042  0.00  0.00    +0.000 C 
ATOM     29  C   UNL     1     110.244 126.143 138.555  0.00  0.00    +0.000 C 
ATOM     30  C   UNL     1     110.983 126.578 137.412  0.00  0.00    +0.000 C 
BRANCH  29  32
ATOM     31  O   UNL     1     110.853 125.941 139.832  0.00  0.00    +0.000 OA
ATOM     32  C   UNL     1     110.226 125.814 139.311  0.00  0.00    +0.000 C 
ENDBRANCH  29  32
ENDBRANCH  21  30
ENDBRANCH   2  21
TORSDOF 7
ENDMDL
MODEL 5
REMARK VINA RESULT:      -8.0      1.863      5.116
REMARK  Name = 42607586
REMARK  7 active torsions:
REMARK  status: ('A' for Active; 'I' for Inactive)
REMARK    1  A    between atoms: O_2  and  C_15
REMARK    2  A    between atoms: O_2  and  C_17
REMARK    3  A    between atoms: O_7  and  C_21
REMARK    4  A    between atoms: C_14  and  C_16
REMARK    5  A    between atoms: C_18  and  C_22
REMARK    6  A    between atoms: C_22  and  C_24
REMARK    7  A    between atoms: C_25  and  C_27
REMARK                            x       y       z     vdW  Elec       q    Type
REMARK                         _______ _______ _______ _____ _____    ______ ____
ROOT
ATOM      1  O   UNL     1     102.469 126.077 148.560  0.00  0.00    +0.000 OA
ATOM      2  C   UNL     1     104.597 125.591 148.588  0.00  0.00    +0.000 A 
ATOM      3  C   UNL     1     103.777 125.502 148.559  0.00  0.00    +0.000 A 
ATOM      4  C   UNL     1     104.927 126.345 148.650  0.00  0.00    +0.000 A 
ATOM      5  C   UNL     1     103.288 126.166 148.590  0.00  0.00    +0.000 A 
ATOM      6  C   UNL     1     104.439 127.008 148.682  0.00  0.00    +0.000 A 
ATOM      7  C   UNL     1     103.620 126.919 148.652  0.00  0.00    +0.000 A 
ENDROOT
BRANCH   6   8
ATOM      8  O   UNL     1     104.770 127.761 148.743  0.00  0.00    +0.000 OA
ATOM      9  C   UNL     1     104.588 128.339 148.183  0.00  0.00    +0.000 C 
ENDBRANCH   6   8
BRANCH   3  11
ATOM     10  O   UNL     1     103.311 124.301 149.176  0.00  0.00    +0.000 OA
ATOM     11  C   UNL     1     103.447 124.749 148.497  0.00  0.00    +0.000 C 
BRANCH  11  12
ATOM     12  C   UNL     1     103.252 124.443 147.755  0.00  0.00    +0.000 C 
ATOM     13  C   UNL     1     102.836 123.733 147.698  0.00  0.00    +0.000 C 
BRANCH  13  15
ATOM     14  O   UNL     1     101.385 122.981 147.470  0.00  0.00    +0.000 OA
ATOM     15  C   UNL     1     102.642 123.428 146.956  0.00  0.00    +0.000 A 
ATOM     16  C   UNL     1     101.916 123.052 146.843  0.00  0.00    +0.000 A 
ATOM     17  C   UNL     1     103.173 123.499 146.329  0.00  0.00    +0.000 A 
ATOM     18  C   UNL     1     101.722 122.746 146.101  0.00  0.00    +0.000 A 
ATOM     19  C   UNL     1     102.978 123.194 145.588  0.00  0.00    +0.000 A 
ATOM     20  C   UNL     1     102.253 122.817 145.473  0.00  0.00    +0.000 A 
ENDBRANCH  13  15
ENDBRANCH  11  12
ENDBRANCH   3  11
BRANCH   2  21
ATOM     21  O   UNL     1     105.086 124.927 148.557  0.00  0.00    +0.000 OA
BRANCH  21  30
ATOM     22  O   UNL     1     106.016 125.260 147.525  0.00  0.00    +0.000 OA
ATOM     23  O   UNL     1     107.893 124.698 149.036  0.00  0.00    +0.000 OA
ATOM     24  O   UNL     1     108.198 125.219 147.500  0.00  0.00    +0.000 OA
ATOM     25  O   UNL     1     106.338 124.553 149.564  0.00  0.00    +0.000 OA
ATOM     26  C   UNL     1     107.268 124.886 148.533  0.00  0.00    +0.000 C 
ATOM     27  C   UNL     1     107.420 125.146 147.764  0.00  0.00    +0.000 C 
ATOM     28  C   UNL     1     106.489 124.813 148.796  0.00  0.00    +0.000 C 
ATOM     29  C   UNL     1     106.794 125.333 147.260  0.00  0.00    +0.000 C 
ATOM     30  C   UNL     1     105.863 125.000 148.293  0.00  0.00    +0.000 C 
BRANCH  29  32
ATOM     31  O   UNL     1     106.539 125.262 145.856  0.00  0.00    +0.000 OA
ATOM     32  C   UNL     1     106.946 125.593 146.493  0.00  0.00    +0.000 C 
ENDBRANCH  29  32
ENDBRANCH  21  30
ENDBRANCH   2  21
TORSDOF 7
ENDMDL
MODEL 6
REMARK VINA RESULT:      -8.0     10.124     11.864
REMARK  Name = 42607586
REMARK  7 active torsions:
REMARK  status: ('A' for Active; 'I' for Inactive)
REMARK    1  A    between atoms: O_2  and  C_15
REMARK    2  A    between atoms: O_2  and  C_17
REMARK    3  A    between atoms: O_7  and  C_21
REMARK    4  A    between atoms: C_14  and  C_16
REMARK    5  A    between atoms: C_18  and  C_22
REMARK    6  A    between atoms: C_22  and  C_24
REMARK    7  A    between atoms: C_25  and  C_27
REMARK                            x       y       z     vdW  Elec       q    Type
REMARK                         _______ _______ _______ _____ _____    ______ ____
ROOT
ATOM      1  O   UNL     1     113.875 126.935 140.758  0.00  0.00    +0.000 OA
ATOM      2  C   UNL     1     113.321 128.559 139.409  0.00  0.00    +0.000 A 
ATOM      3  C   UNL     1     113.388 127.802 139.734  0.00  0.00    +0.000 A 
ATOM      4  C   UNL     1     113.676 129.201 139.786  0.00  0.00    +0.000 A 
ATOM      5  C   UNL     1     113.809 127.690 140.434  0.00  0.00    +0.000 A 
ATOM      6  C   UNL     1     114.097 129.088 140.486  0.00  0.00    +0.000 A 
ATOM      7  C   UNL     1     114.163 128.333 140.810  0.00  0.00    +0.000 A 
ENDROOT
BRANCH   6   8
ATOM      8  O   UNL     1     114.451 129.731 140.862  0.00  0.00    +0.000 OA
ATOM      9  C   UNL     1     115.160 130.038 140.573  0.00  0.00    +0.000 C 
ENDBRANCH   6   8
BRANCH   3  11
ATOM     10  O   UNL     1     112.258 126.949 139.543  0.00  0.00    +0.000 OA
ATOM     11  C   UNL     1     113.033 127.160 139.357  0.00  0.00    +0.000 C 
BRANCH  11  12
ATOM     12  C   UNL     1     113.455 126.728 138.794  0.00  0.00    +0.000 C 
ATOM     13  C   UNL     1     113.080 126.130 138.367  0.00  0.00    +0.000 C 
BRANCH  13  15
ATOM     14  O   UNL     1     112.371 125.733 136.931  0.00  0.00    +0.000 OA
ATOM     15  C   UNL     1     113.502 125.698 137.805  0.00  0.00    +0.000 A 
ATOM     16  C   UNL     1     113.147 125.500 137.087  0.00  0.00    +0.000 A 
ATOM     17  C   UNL     1     114.278 125.465 137.960  0.00  0.00    +0.000 A 
ATOM     18  C   UNL     1     113.569 125.067 136.524  0.00  0.00    +0.000 A 
ATOM     19  C   UNL     1     114.699 125.034 137.398  0.00  0.00    +0.000 A 
ATOM     20  C   UNL     1     114.345 124.834 136.680  0.00  0.00    +0.000 A 
ENDBRANCH  13  15
ENDBRANCH  11  12
ENDBRANCH   3  11
BRANCH   2  21
ATOM     21  O   UNL     1     112.900 128.671 138.709  0.00  0.00    +0.000 OA
BRANCH  21  30
ATOM     22  O   UNL     1     111.918 129.632 139.098  0.00  0.00    +0.000 OA
ATOM     23  O   UNL     1     112.493 131.017 137.128  0.00  0.00    +0.000 OA
ATOM     24  O   UNL     1     111.319 131.517 138.174  0.00  0.00    +0.000 OA
ATOM     25  O   UNL     1     113.284 129.594 137.396  0.00  0.00    +0.000 OA
ATOM     26  C   UNL     1     112.302 130.555 137.785  0.00  0.00    +0.000 C 
ATOM     27  C   UNL     1     111.714 130.806 138.308  0.00  0.00    +0.000 C 
ATOM     28  C   UNL     1     112.697 129.844 137.919  0.00  0.00    +0.000 C 
ATOM     29  C   UNL     1     111.523 130.344 138.965  0.00  0.00    +0.000 C 
ATOM     30  C   UNL     1     112.505 129.382 138.575  0.00  0.00    +0.000 C 
BRANCH  29  32
ATOM     31  O   UNL     1     110.392 130.052 139.789  0.00  0.00    +0.000 OA
ATOM     32  C   UNL     1     110.936 130.594 139.487  0.00  0.00    +0.000 C 
ENDBRANCH  29  32
ENDBRANCH  21  30
ENDBRANCH   2  21
TORSDOF 7
ENDMDL
MODEL 7
REMARK VINA RESULT:      -8.0      9.545     11.438
REMARK  Name = 42607586
REMARK  7 active torsions:
REMARK  status: ('A' for Active; 'I' for Inactive)
REMARK    1  A    between atoms: O_2  and  C_15
REMARK    2  A    between atoms: O_2  and  C_17
REMARK    3  A    between atoms: O_7  and  C_21
REMARK    4  A    between atoms: C_14  and  C_16
REMARK    5  A    between atoms: C_18  and  C_22
REMARK    6  A    between atoms: C_22  and  C_24
REMARK    7  A    between atoms: C_25  and  C_27
REMARK                            x       y       z     vdW  Elec       q    Type
REMARK                         _______ _______ _______ _____ _____    ______ ____
ROOT
ATOM      1  O   UNL     1     109.926 125.798 135.283  0.00  0.00    +0.000 OA
ATOM      2  C   UNL     1     110.790 125.924 137.283  0.00  0.00    +0.000 A 
ATOM      3  C   UNL     1     110.308 126.076 136.630  0.00  0.00    +0.000 A 
ATOM      4  C   UNL     1     111.372 125.340 137.238  0.00  0.00    +0.000 A 
ATOM      5  C   UNL     1     110.408 125.645 135.934  0.00  0.00    +0.000 A 
ATOM      6  C   UNL     1     111.471 124.910 136.541  0.00  0.00    +0.000 A 
ATOM      7  C   UNL     1     110.990 125.062 135.890  0.00  0.00    +0.000 A 
ENDROOT
BRANCH   6   8
ATOM      8  O   UNL     1     112.053 124.327 136.497  0.00  0.00    +0.000 OA
ATOM      9  C   UNL     1     111.887 123.559 136.750  0.00  0.00    +0.000 C 
ENDBRANCH   6   8
BRANCH   3  11
ATOM     10  O   UNL     1     109.004 126.495 137.039  0.00  0.00    +0.000 OA
ATOM     11  C   UNL     1     109.726 126.659 136.675  0.00  0.00    +0.000 C 
BRANCH  11  12
ATOM     12  C   UNL     1     109.868 127.408 136.357  0.00  0.00    +0.000 C 
ATOM     13  C   UNL     1     109.268 127.974 136.352  0.00  0.00    +0.000 C 
BRANCH  13  15
ATOM     14  O   UNL     1     108.005 128.901 135.833  0.00  0.00    +0.000 OA
ATOM     15  C   UNL     1     109.409 128.722 136.034  0.00  0.00    +0.000 A 
ATOM     16  C   UNL     1     108.778 129.185 135.774  0.00  0.00    +0.000 A 
ATOM     17  C   UNL     1     110.181 129.006 135.975  0.00  0.00    +0.000 A 
ATOM     18  C   UNL     1     108.919 129.934 135.455  0.00  0.00    +0.000 A 
ATOM     19  C   UNL     1     110.322 129.754 135.656  0.00  0.00    +0.000 A 
ATOM     20  C   UNL     1     109.691 130.218 135.396  0.00  0.00    +0.000 A 
ENDBRANCH  13  15
ENDBRANCH  11  12
ENDBRANCH   3  11
BRANCH   2  21
ATOM     21  O   UNL     1     110.691 126.355 137.979  0.00  0.00    +0.000 OA
BRANCH  21  30
ATOM     22  O   UNL     1     111.976 126.953 138.150  0.00  0.00    +0.000 OA
ATOM     23  O   UNL     1     112.027 126.173 140.499  0.00  0.00    +0.000 OA
ATOM     24  O   UNL     1     113.296 127.032 139.887  0.00  0.00    +0.000 OA
ATOM     25  O   UNL     1     110.724 125.835 139.545  0.00  0.00    +0.000 OA
ATOM     26  C   UNL     1     112.010 126.433 139.716  0.00  0.00    +0.000 C 
ATOM     27  C   UNL     1     112.645 126.863 139.410  0.00  0.00    +0.000 C 
ATOM     28  C   UNL     1     111.359 126.264 139.239  0.00  0.00    +0.000 C 
ATOM     29  C   UNL     1     112.628 127.123 138.627  0.00  0.00    +0.000 C 
ATOM     30  C   UNL     1     111.342 126.524 138.456  0.00  0.00    +0.000 C 
BRANCH  29  32
ATOM     31  O   UNL     1     113.125 128.193 137.820  0.00  0.00    +0.000 OA
ATOM     32  C   UNL     1     113.262 127.552 138.321  0.00  0.00    +0.000 C 
ENDBRANCH  29  32
ENDBRANCH  21  30
ENDBRANCH   2  21
TORSDOF 7
ENDMDL
MODEL 8
REMARK VINA RESULT:      -8.0     12.010     14.058
REMARK  Name = 42607586
REMARK  7 active torsions:
REMARK  status: ('A' for Active; 'I' for Inactive)
REMARK    1  A    between atoms: O_2  and  C_15
REMARK    2  A    between atoms: O_2  and  C_17
REMARK    3  A    between atoms: O_7  and  C_21
REMARK    4  A    between atoms: C_14  and  C_16
REMARK    5  A    between atoms: C_18  and  C_22
REMARK    6  A    between atoms: C_22  and  C_24
REMARK    7  A    between atoms: C_25  and  C_27
REMARK                            x       y       z     vdW  Elec       q    Type
REMARK                         _______ _______ _______ _____ _____    ______ ____
ROOT
ATOM      1  O   UNL     1     110.955 127.443 136.830  0.00  0.00    +0.000 OA
ATOM      2  C   UNL     1     112.667 128.487 135.968  0.00  0.00    +0.000 A 
ATOM      3  C   UNL     1     112.218 127.993 136.454  0.00  0.00    +0.000 A 
ATOM      4  C   UNL     1     112.298 128.925 135.373  0.00  0.00    +0.000 A 
ATOM      5  C   UNL     1     111.402 127.937 136.345  0.00  0.00    +0.000 A 
ATOM      6  C   UNL     1     111.482 128.868 135.264  0.00  0.00    +0.000 A 
ATOM      7  C   UNL     1     111.035 128.375 135.750  0.00  0.00    +0.000 A 
ENDROOT
BRANCH   6   8
ATOM      8  O   UNL     1     111.115 129.306 134.670  0.00  0.00    +0.000 OA
ATOM      9  C   UNL     1     110.520 129.845 134.862  0.00  0.00    +0.000 C 
ENDBRANCH   6   8
BRANCH   3  11
ATOM     10  O   UNL     1     112.635 127.858 137.814  0.00  0.00    +0.000 OA
ATOM     11  C   UNL     1     112.587 127.555 137.048  0.00  0.00    +0.000 C 
BRANCH  11  12
ATOM     12  C   UNL     1     112.908 126.815 136.876  0.00  0.00    +0.000 C 
ATOM     13  C   UNL     1     113.293 126.385 137.465  0.00  0.00    +0.000 C 
BRANCH  13  15
ATOM     14  O   UNL     1     114.584 125.825 138.327  0.00  0.00    +0.000 OA
ATOM     15  C   UNL     1     113.614 125.644 137.293  0.00  0.00    +0.000 A 
ATOM     16  C   UNL     1     114.259 125.365 137.724  0.00  0.00    +0.000 A 
ATOM     17  C   UNL     1     113.289 125.184 136.690  0.00  0.00    +0.000 A 
ATOM     18  C   UNL     1     114.580 124.624 137.552  0.00  0.00    +0.000 A 
ATOM     19  C   UNL     1     113.610 124.444 136.518  0.00  0.00    +0.000 A 
ATOM     20  C   UNL     1     114.256 124.164 136.949  0.00  0.00    +0.000 A 
ENDBRANCH  13  15
ENDBRANCH  11  12
ENDBRANCH   3  11
BRANCH   2  21
ATOM     21  O   UNL     1     113.483 128.544 136.076  0.00  0.00    +0.000 OA
BRANCH  21  30
ATOM     22  O   UNL     1     113.642 129.928 136.390  0.00  0.00    +0.000 OA
ATOM     23  O   UNL     1     115.464 130.095 134.724  0.00  0.00    +0.000 OA
ATOM     24  O   UNL     1     115.016 131.424 135.593  0.00  0.00    +0.000 OA
ATOM     25  O   UNL     1     114.698 128.655 134.966  0.00  0.00    +0.000 OA
ATOM     26  C   UNL     1     114.857 130.039 135.279  0.00  0.00    +0.000 C 
ATOM     27  C   UNL     1     114.633 130.704 135.714  0.00  0.00    +0.000 C 
ATOM     28  C   UNL     1     114.473 129.319 135.400  0.00  0.00    +0.000 C 
ATOM     29  C   UNL     1     114.025 130.648 136.269  0.00  0.00    +0.000 C 
ATOM     30  C   UNL     1     113.866 129.263 135.956  0.00  0.00    +0.000 C 
BRANCH  29  32
ATOM     31  O   UNL     1     113.587 131.235 137.496  0.00  0.00    +0.000 OA
ATOM     32  C   UNL     1     113.801 131.313 136.703  0.00  0.00    +0.000 C 
ENDBRANCH  29  32
ENDBRANCH  21  30
ENDBRANCH   2  21
TORSDOF 7
ENDMDL
MODEL 9
REMARK VINA RESULT:      -8.0     10.523     12.711
REMARK  Name = 42607586
REMARK  7 active torsions:
REMARK  status: ('A' for Active; 'I' for Inactive)
REMARK    1  A    between atoms: O_2  and  C_15
REMARK    2  A    between atoms: O_2  and  C_17
REMARK    3  A    between atoms: O_7  and  C_21
REMARK    4  A    between atoms: C_14  and  C_16
REMARK    5  A    between atoms: C_18  and  C_22
REMARK    6  A    between atoms: C_22  and  C_24
REMARK    7  A    between atoms: C_25  and  C_27
REMARK                            x       y       z     vdW  Elec       q    Type
REMARK                         _______ _______ _______ _____ _____    ______ ____
ROOT
ATOM      1  O   UNL     1     110.958 126.712 135.324  0.00  0.00    +0.000 OA
ATOM      2  C   UNL     1     111.726 128.395 136.483  0.00  0.00    +0.000 A 
ATOM      3  C   UNL     1     111.529 127.623 136.263  0.00  0.00    +0.000 A 
ATOM      4  C   UNL     1     111.548 129.024 135.979  0.00  0.00    +0.000 A 
ATOM      5  C   UNL     1     111.155 127.482 135.542  0.00  0.00    +0.000 A 
ATOM      6  C   UNL     1     111.174 128.883 135.258  0.00  0.00    +0.000 A 
ATOM      7  C   UNL     1     110.977 128.112 135.039  0.00  0.00    +0.000 A 
ENDROOT
BRANCH   6   8
ATOM      8  O   UNL     1     110.997 129.512 134.756  0.00  0.00    +0.000 OA
ATOM      9  C   UNL     1     110.210 129.716 134.612  0.00  0.00    +0.000 C 
ENDBRANCH   6   8
BRANCH   3  11
ATOM     10  O   UNL     1     111.158 126.750 137.332  0.00  0.00    +0.000 OA
ATOM     11  C   UNL     1     111.707 126.994 136.767  0.00  0.00    +0.000 C 
BRANCH  11  12
ATOM     12  C   UNL     1     112.434 126.609 136.704  0.00  0.00    +0.000 C 
ATOM     13  C   UNL     1     112.656 126.052 137.271  0.00  0.00    +0.000 C 
BRANCH  13  15
ATOM     14  O   UNL     1     113.624 125.897 138.598  0.00  0.00    +0.000 OA
ATOM     15  C   UNL     1     113.383 125.667 137.208  0.00  0.00    +0.000 A 
ATOM     16  C   UNL     1     113.867 125.590 137.872  0.00  0.00    +0.000 A 
ATOM     17  C   UNL     1     113.626 125.360 136.482  0.00  0.00    +0.000 A 
ATOM     18  C   UNL     1     114.595 125.205 137.809  0.00  0.00    +0.000 A 
ATOM     19  C   UNL     1     114.353 124.976 136.419  0.00  0.00    +0.000 A 
ATOM     20  C   UNL     1     114.838 124.898 137.083  0.00  0.00    +0.000 A 
ENDBRANCH  13  15
ENDBRANCH  11  12
ENDBRANCH   3  11
BRANCH   2  21
ATOM     21  O   UNL     1     112.100 128.536 137.204  0.00  0.00    +0.000 OA
BRANCH  21  30
ATOM     22  O   UNL     1     111.168 129.403 137.850  0.00  0.00    +0.000 OA
ATOM     23  O   UNL     1     113.008 130.955 138.424  0.00  0.00    +0.000 OA
ATOM     24  O   UNL     1     111.461 131.305 138.880  0.00  0.00    +0.000 OA
ATOM     25  O   UNL     1     113.327 129.571 137.586  0.00  0.00    +0.000 OA
ATOM     26  C   UNL     1     112.395 130.438 138.233  0.00  0.00    +0.000 C 
ATOM     27  C   UNL     1     111.620 130.613 138.461  0.00  0.00    +0.000 C 
ATOM     28  C   UNL     1     112.554 129.745 137.814  0.00  0.00    +0.000 C 
ATOM     29  C   UNL     1     111.007 130.095 138.270  0.00  0.00    +0.000 C 
ATOM     30  C   UNL     1     111.940 129.228 137.623  0.00  0.00    +0.000 C 
BRANCH  29  32
ATOM     31  O   UNL     1     109.739 129.672 138.775  0.00  0.00    +0.000 OA
ATOM     32  C   UNL     1     110.234 130.271 138.497  0.00  0.00    +0.000 C 
ENDBRANCH  29  32
ENDBRANCH  21  30
ENDBRANCH   2  21
TORSDOF 7
ENDMDL
MODEL 10
REMARK VINA RESULT:      -8.0      9.842     12.253
REMARK  Name = 42607586
REMARK  7 active torsions:
REMARK  status: ('A' for Active; 'I' for Inactive)
REMARK    1  A    between atoms: O_2  and  C_15
REMARK    2  A    between atoms: O_2  and  C_17
REMARK    3  A    between atoms: O_7  and  C_21
REMARK    4  A    between atoms: C_14  and  C_16
REMARK    5  A    between atoms: C_18  and  C_22
REMARK    6  A    between atoms: C_22  and  C_24
REMARK    7  A    between atoms: C_25  and  C_27
REMARK                            x       y       z     vdW  Elec       q    Type
REMARK                         _______ _______ _______ _____ _____    ______ ____
ROOT
ATOM      1  O   UNL     1     113.942 128.659 135.752  0.00  0.00    +0.000 OA
ATOM      2  C   UNL     1     112.450 128.650 137.346  0.00  0.00    +0.000 A 
ATOM      3  C   UNL     1     112.908 128.404 136.704  0.00  0.00    +0.000 A 
ATOM      4  C   UNL     1     112.572 129.396 137.677  0.00  0.00    +0.000 A 
ATOM      5  C   UNL     1     113.486 128.905 136.393  0.00  0.00    +0.000 A 
ATOM      6  C   UNL     1     113.150 129.896 137.366  0.00  0.00    +0.000 A 
ATOM      7  C   UNL     1     113.606 129.650 136.725  0.00  0.00    +0.000 A 
ENDROOT
BRANCH   6   8
ATOM      8  O   UNL     1     113.271 130.641 137.697  0.00  0.00    +0.000 OA
ATOM      9  C   UNL     1     113.880 130.757 138.241  0.00  0.00    +0.000 C 
ENDBRANCH   6   8
BRANCH   3  11
ATOM     10  O   UNL     1     112.252 127.565 135.751  0.00  0.00    +0.000 OA
ATOM     11  C   UNL     1     112.786 127.659 136.373  0.00  0.00    +0.000 C 
BRANCH  11  12
ATOM     12  C   UNL     1     113.198 127.006 136.666  0.00  0.00    +0.000 C 
ATOM     13  C   UNL     1     113.042 126.253 136.367  0.00  0.00    +0.000 C 
BRANCH  13  15
ATOM     14  O   UNL     1     112.353 124.754 136.324  0.00  0.00    +0.000 OA
ATOM     15  C   UNL     1     113.455 125.600 136.660  0.00  0.00    +0.000 A 
ATOM     16  C   UNL     1     113.109 124.851 136.638  0.00  0.00    +0.000 A 
ATOM     17  C   UNL     1     114.212 125.697 136.974  0.00  0.00    +0.000 A 
ATOM     18  C   UNL     1     113.522 124.198 136.931  0.00  0.00    +0.000 A 
ATOM     19  C   UNL     1     114.623 125.045 137.266  0.00  0.00    +0.000 A 
ATOM     20  C   UNL     1     114.279 124.295 137.244  0.00  0.00    +0.000 A 
ENDBRANCH  13  15
ENDBRANCH  11  12
ENDBRANCH   3  11
BRANCH   2  21
ATOM     21  O   UNL     1     111.872 128.150 137.656  0.00  0.00    +0.000 OA
BRANCH  21  30
ATOM     22  O   UNL     1     110.684 128.921 137.478  0.00  0.00    +0.000 OA
ATOM     23  O   UNL     1     110.057 128.502 139.835  0.00  0.00    +0.000 OA
ATOM     24  O   UNL     1     109.077 129.414 138.870  0.00  0.00    +0.000 OA
ATOM     25  O   UNL     1     111.454 127.870 139.228  0.00  0.00    +0.000 OA
ATOM     26  C   UNL     1     110.266 128.642 139.049  0.00  0.00    +0.000 C 
ATOM     27  C   UNL     1     109.776 129.098 138.566  0.00  0.00    +0.000 C 
ATOM     28  C   UNL     1     110.965 128.326 138.745  0.00  0.00    +0.000 C 
ATOM     29  C   UNL     1     109.985 129.238 137.780  0.00  0.00    +0.000 C 
ATOM     30  C   UNL     1     111.174 128.466 137.959  0.00  0.00    +0.000 C 
BRANCH  29  32
ATOM     31  O   UNL     1     109.316 129.440 136.534  0.00  0.00    +0.000 OA
ATOM     32  C   UNL     1     109.495 129.693 137.299  0.00  0.00    +0.000 C 
ENDBRANCH  29  32
ENDBRANCH  21  30
ENDBRANCH   2  21
TORSDOF 7
ENDMDL
