MODEL 1
REMARK VINA RESULT:     -10.2      0.000      0.000
REMARK  Name = 42607839
REMARK  7 active torsions:
REMARK  status: ('A' for Active; 'I' for Inactive)
REMARK    1  A    between atoms: O_1  and  C_13
REMARK    2  A    between atoms: O_1  and  C_18
REMARK    3  A    between atoms: O_4  and  C_16
REMARK    4  A    between atoms: O_4  and  C_24
REMARK    5  A    between atoms: C_25  and  C_28
REMARK    6  A    between atoms: C_36  and  C_39
REMARK    7  A    between atoms: C_39  and  C_40
REMARK                            x       y       z     vdW  Elec       q    Type
REMARK                         _______ _______ _______ _____ _____    ______ ____
ROOT
ATOM      1  C   UNL     1     104.842 128.172 142.755  0.00  0.00    +0.000 A 
ATOM      2  C   UNL     1     104.536 128.261 141.995  0.00  0.00    +0.000 A 
ATOM      3  C   UNL     1     104.758 128.780 143.308  0.00  0.00    +0.000 A 
ATOM      4  C   UNL     1     104.062 129.565 142.338  0.00  0.00    +0.000 A 
ATOM      5  C   UNL     1     104.146 128.958 141.786  0.00  0.00    +0.000 A 
ATOM      6  C   UNL     1     104.368 129.476 143.099  0.00  0.00    +0.000 A 
ENDROOT
BRANCH   4  10
ATOM      7  O   UNL     1     104.106 130.931 141.922  0.00  0.00    +0.000 OA
ATOM      8  O   UNL     1     101.632 131.010 141.916  0.00  0.00    +0.000 OA
ATOM      9  O   UNL     1     101.648 132.390 141.497  0.00  0.00    +0.000 OA
ATOM     10  C   UNL     1     103.672 130.261 142.129  0.00  0.00    +0.000 C 
ATOM     11  C   UNL     1     102.847 130.287 142.127  0.00  0.00    +0.000 C 
ATOM     12  C   UNL     1     102.457 130.983 141.918  0.00  0.00    +0.000 C 
ATOM     13  C   UNL     1     102.891 131.654 141.711  0.00  0.00    +0.000 A 
ATOM     14  C   UNL     1     103.716 131.627 141.713  0.00  0.00    +0.000 A 
ATOM     15  C   UNL     1     102.474 132.373 141.496  0.00  0.00    +0.000 A 
ATOM     16  C   UNL     1     102.920 133.074 141.280  0.00  0.00    +0.000 A 
ATOM     17  C   UNL     1     104.180 132.319 141.500  0.00  0.00    +0.000 A 
ATOM     18  C   UNL     1     103.780 133.048 141.281  0.00  0.00    +0.000 A 
BRANCH  16  19
ATOM     19  C   UNL     1     102.527 133.769 141.071  0.00  0.00    +0.000 C 
BRANCH  19  20
ATOM     20  C   UNL     1     102.929 134.490 141.083  0.00  0.00    +0.000 C 
ATOM     21  C   UNL     1     102.538 135.184 140.868  0.00  0.00    +0.000 C 
ATOM     22  C   UNL     1     102.940 135.904 140.879  0.00  0.00    +0.000 C 
ATOM     23  C   UNL     1     101.746 135.157 140.642  0.00  0.00    +0.000 C 
ENDBRANCH  19  20
ENDBRANCH  16  19
ENDBRANCH   4  10
BRANCH   1  24
ATOM     24  O   UNL     1     105.232 127.476 142.964  0.00  0.00    +0.000 OA
BRANCH  24  31
ATOM     25  O   UNL     1     106.493 128.032 142.585  0.00  0.00    +0.000 OA
ATOM     26  O   UNL     1     107.489 125.766 142.576  0.00  0.00    +0.000 OA
ATOM     27  O   UNL     1     108.418 127.077 142.200  0.00  0.00    +0.000 OA
ATOM     28  C   UNL     1     106.361 126.621 142.770  0.00  0.00    +0.000 C 
ATOM     29  C   UNL     1     107.157 126.521 142.579  0.00  0.00    +0.000 C 
ATOM     30  C   UNL     1     107.621 127.176 142.391  0.00  0.00    +0.000 C 
ATOM     31  C   UNL     1     106.029 127.376 142.773  0.00  0.00    +0.000 C 
ATOM     32  C   UNL     1     107.289 127.931 142.394  0.00  0.00    +0.000 C 
ATOM     33  C   UNL     1     107.754 128.587 142.206  0.00  0.00    +0.000 C 
BRANCH  28  34
ATOM     34  O   UNL     1     105.896 125.966 142.958  0.00  0.00    +0.000 OA
BRANCH  34  39
ATOM     35  O   UNL     1     106.305 126.049 144.324  0.00  0.00    +0.000 OA
ATOM     36  O   UNL     1     105.205 124.497 143.254  0.00  0.00    +0.000 OA
ATOM     37  O   UNL     1     105.269 123.845 144.768  0.00  0.00    +0.000 OA
ATOM     38  O   UNL     1     106.024 124.662 145.987  0.00  0.00    +0.000 OA
ATOM     39  C   UNL     1     105.928 125.640 143.714  0.00  0.00    +0.000 C 
ATOM     40  C   UNL     1     105.583 124.905 143.863  0.00  0.00    +0.000 C 
ATOM     41  C   UNL     1     105.615 124.580 144.620  0.00  0.00    +0.000 C 
ATOM     42  C   UNL     1     105.992 124.988 145.229  0.00  0.00    +0.000 C 
ATOM     43  C   UNL     1     106.337 125.723 145.082  0.00  0.00    +0.000 C 
ENDBRANCH  34  39
ENDBRANCH  28  34
ENDBRANCH  24  31
ENDBRANCH   1  24
TORSDOF 7
ENDMDL
MODEL 2
REMARK VINA RESULT:      -9.9      5.859      9.841
REMARK  Name = 42607839
REMARK  7 active torsions:
REMARK  status: ('A' for Active; 'I' for Inactive)
REMARK    1  A    between atoms: O_1  and  C_13
REMARK    2  A    between atoms: O_1  and  C_18
REMARK    3  A    between atoms: O_4  and  C_16
REMARK    4  A    between atoms: O_4  and  C_24
REMARK    5  A    between atoms: C_25  and  C_28
REMARK    6  A    between atoms: C_36  and  C_39
REMARK    7  A    between atoms: C_39  and  C_40
REMARK                            x       y       z     vdW  Elec       q    Type
REMARK                         _______ _______ _______ _____ _____    ______ ____
ROOT
ATOM      1  C   UNL     1     111.617 129.563 142.486  0.00  0.00    +0.000 A 
ATOM      2  C   UNL     1     111.457 129.727 141.694  0.00  0.00    +0.000 A 
ATOM      3  C   UNL     1     111.910 128.823 142.703  0.00  0.00    +0.000 A 
ATOM      4  C   UNL     1     111.883 128.411 141.334  0.00  0.00    +0.000 A 
ATOM      5  C   UNL     1     111.590 129.151 141.118  0.00  0.00    +0.000 A 
ATOM      6  C   UNL     1     112.043 128.247 142.128  0.00  0.00    +0.000 A 
ENDROOT
BRANCH   4  10
ATOM      7  O   UNL     1     112.725 127.831 140.338  0.00  0.00    +0.000 OA
ATOM      8  O   UNL     1     110.998 126.119 139.875  0.00  0.00    +0.000 OA
ATOM      9  O   UNL     1     111.828 125.513 138.863  0.00  0.00    +0.000 OA
ATOM     10  C   UNL     1     112.017 127.836 140.759  0.00  0.00    +0.000 C 
ATOM     11  C   UNL     1     111.440 127.265 140.605  0.00  0.00    +0.000 C 
ATOM     12  C   UNL     1     111.574 126.690 140.029  0.00  0.00    +0.000 C 
ATOM     13  C   UNL     1     112.283 126.684 139.607  0.00  0.00    +0.000 A 
ATOM     14  C   UNL     1     112.859 127.255 139.762  0.00  0.00    +0.000 A 
ATOM     15  C   UNL     1     112.411 126.080 139.010  0.00  0.00    +0.000 A 
ATOM     16  C   UNL     1     113.146 126.069 138.568  0.00  0.00    +0.000 A 
ATOM     17  C   UNL     1     113.602 127.260 139.330  0.00  0.00    +0.000 A 
ATOM     18  C   UNL     1     113.747 126.663 138.728  0.00  0.00    +0.000 A 
BRANCH  16  19
ATOM     19  C   UNL     1     113.277 125.492 137.993  0.00  0.00    +0.000 C 
BRANCH  19  20
ATOM     20  C   UNL     1     113.961 125.516 137.532  0.00  0.00    +0.000 C 
ATOM     21  C   UNL     1     114.095 124.935 136.961  0.00  0.00    +0.000 C 
ATOM     22  C   UNL     1     114.778 124.960 136.500  0.00  0.00    +0.000 C 
ATOM     23  C   UNL     1     113.544 124.331 136.852  0.00  0.00    +0.000 C 
ENDBRANCH  19  20
ENDBRANCH  16  19
ENDBRANCH   4  10
BRANCH   1  24
ATOM     24  O   UNL     1     111.483 130.138 143.062  0.00  0.00    +0.000 OA
BRANCH  24  31
ATOM     25  O   UNL     1     110.203 129.638 143.452  0.00  0.00    +0.000 OA
ATOM     26  O   UNL     1     109.458 131.943 143.963  0.00  0.00    +0.000 OA
ATOM     27  O   UNL     1     108.426 130.674 144.182  0.00  0.00    +0.000 OA
ATOM     28  C   UNL     1     110.470 131.041 143.512  0.00  0.00    +0.000 C 
ATOM     29  C   UNL     1     109.707 131.174 143.792  0.00  0.00    +0.000 C 
ATOM     30  C   UNL     1     109.191 130.541 143.902  0.00  0.00    +0.000 C 
ATOM     31  C   UNL     1     110.718 130.273 143.342  0.00  0.00    +0.000 C 
ATOM     32  C   UNL     1     109.439 129.773 143.732  0.00  0.00    +0.000 C 
ATOM     33  C   UNL     1     108.922 129.138 143.842  0.00  0.00    +0.000 C 
BRANCH  28  34
ATOM     34  O   UNL     1     110.987 131.675 143.402  0.00  0.00    +0.000 OA
BRANCH  34  39
ATOM     35  O   UNL     1     111.430 131.556 144.755  0.00  0.00    +0.000 OA
ATOM     36  O   UNL     1     111.889 133.046 143.227  0.00  0.00    +0.000 OA
ATOM     37  O   UNL     1     112.783 133.612 144.493  0.00  0.00    +0.000 OA
ATOM     38  O   UNL     1     112.775 132.808 145.934  0.00  0.00    +0.000 OA
ATOM     39  C   UNL     1     111.434 131.958 144.035  0.00  0.00    +0.000 C 
ATOM     40  C   UNL     1     111.885 132.643 143.948  0.00  0.00    +0.000 C 
ATOM     41  C   UNL     1     112.332 132.927 144.580  0.00  0.00    +0.000 C 
ATOM     42  C   UNL     1     112.328 132.525 145.300  0.00  0.00    +0.000 C 
ATOM     43  C   UNL     1     111.877 131.839 145.388  0.00  0.00    +0.000 C 
ENDBRANCH  34  39
ENDBRANCH  28  34
ENDBRANCH  24  31
ENDBRANCH   1  24
TORSDOF 7
ENDMDL
MODEL 3
REMARK VINA RESULT:      -9.8      1.227      1.818
REMARK  Name = 42607839
REMARK  7 active torsions:
REMARK  status: ('A' for Active; 'I' for Inactive)
REMARK    1  A    between atoms: O_1  and  C_13
REMARK    2  A    between atoms: O_1  and  C_18
REMARK    3  A    between atoms: O_4  and  C_16
REMARK    4  A    between atoms: O_4  and  C_24
REMARK    5  A    between atoms: C_25  and  C_28
REMARK    6  A    between atoms: C_36  and  C_39
REMARK    7  A    between atoms: C_39  and  C_40
REMARK                            x       y       z     vdW  Elec       q    Type
REMARK                         _______ _______ _______ _____ _____    ______ ____
ROOT
ATOM      1  C   UNL     1     104.813 127.941 142.011  0.00  0.00    +0.000 A 
ATOM      2  C   UNL     1     104.779 128.406 142.690  0.00  0.00    +0.000 A 
ATOM      3  C   UNL     1     104.446 128.196 141.317  0.00  0.00    +0.000 A 
ATOM      4  C   UNL     1     104.013 129.384 141.984  0.00  0.00    +0.000 A 
ATOM      5  C   UNL     1     104.380 129.128 142.677  0.00  0.00    +0.000 A 
ATOM      6  C   UNL     1     104.046 128.917 141.304  0.00  0.00    +0.000 A 
ENDROOT
BRANCH   4  10
ATOM      7  O   UNL     1     103.870 130.710 141.473  0.00  0.00    +0.000 OA
ATOM      8  O   UNL     1     101.899 131.060 142.927  0.00  0.00    +0.000 OA
ATOM      9  O   UNL     1     101.732 132.402 142.428  0.00  0.00    +0.000 OA
ATOM     10  C   UNL     1     103.613 130.105 141.971  0.00  0.00    +0.000 C 
ATOM     11  C   UNL     1     102.956 130.221 142.456  0.00  0.00    +0.000 C 
ATOM     12  C   UNL     1     102.556 130.943 142.443  0.00  0.00    +0.000 C 
ATOM     13  C   UNL     1     102.813 131.548 141.944  0.00  0.00    +0.000 A 
ATOM     14  C   UNL     1     103.470 131.431 141.459  0.00  0.00    +0.000 A 
ATOM     15  C   UNL     1     102.388 132.295 141.939  0.00  0.00    +0.000 A 
ATOM     16  C   UNL     1     102.651 132.928 141.423  0.00  0.00    +0.000 A 
ATOM     17  C   UNL     1     103.748 132.054 140.936  0.00  0.00    +0.000 A 
ATOM     18  C   UNL     1     103.336 132.808 140.917  0.00  0.00    +0.000 A 
BRANCH  16  19
ATOM     19  C   UNL     1     102.249 133.649 141.411  0.00  0.00    +0.000 C 
BRANCH  19  20
ATOM     20  C   UNL     1     102.584 134.303 141.036  0.00  0.00    +0.000 C 
ATOM     21  C   UNL     1     102.171 135.017 141.002  0.00  0.00    +0.000 C 
ATOM     22  C   UNL     1     102.507 135.670 140.627  0.00  0.00    +0.000 C 
ATOM     23  C   UNL     1     101.423 135.075 141.343  0.00  0.00    +0.000 C 
ENDBRANCH  19  20
ENDBRANCH  16  19
ENDBRANCH   4  10
BRANCH   1  24
ATOM     24  O   UNL     1     105.212 127.219 142.024  0.00  0.00    +0.000 OA
BRANCH  24  31
ATOM     25  O   UNL     1     106.466 127.892 141.892  0.00  0.00    +0.000 OA
ATOM     26  O   UNL     1     107.652 125.788 142.432  0.00  0.00    +0.000 OA
ATOM     27  O   UNL     1     108.511 127.163 142.120  0.00  0.00    +0.000 OA
ATOM     28  C   UNL     1     106.433 126.504 142.228  0.00  0.00    +0.000 C 
ATOM     29  C   UNL     1     107.257 126.490 142.252  0.00  0.00    +0.000 C 
ATOM     30  C   UNL     1     107.686 127.176 142.096  0.00  0.00    +0.000 C 
ATOM     31  C   UNL     1     106.038 127.205 142.048  0.00  0.00    +0.000 C 
ATOM     32  C   UNL     1     107.291 127.878 141.917  0.00  0.00    +0.000 C 
ATOM     33  C   UNL     1     107.720 128.565 141.760  0.00  0.00    +0.000 C 
BRANCH  28  34
ATOM     34  O   UNL     1     106.003 125.817 142.384  0.00  0.00    +0.000 OA
BRANCH  34  39
ATOM     35  O   UNL     1     106.146 125.413 141.022  0.00  0.00    +0.000 OA
ATOM     36  O   UNL     1     105.281 124.376 142.736  0.00  0.00    +0.000 OA
ATOM     37  O   UNL     1     105.062 123.251 141.549  0.00  0.00    +0.000 OA
ATOM     38  O   UNL     1     105.566 123.567 140.010  0.00  0.00    +0.000 OA
ATOM     39  C   UNL     1     105.894 125.255 141.791  0.00  0.00    +0.000 C 
ATOM     40  C   UNL     1     105.533 124.534 141.966  0.00  0.00    +0.000 C 
ATOM     41  C   UNL     1     105.423 123.972 141.373  0.00  0.00    +0.000 C 
ATOM     42  C   UNL     1     105.675 124.130 140.604  0.00  0.00    +0.000 C 
ATOM     43  C   UNL     1     106.036 124.850 140.427  0.00  0.00    +0.000 C 
ENDBRANCH  34  39
ENDBRANCH  28  34
ENDBRANCH  24  31
ENDBRANCH   1  24
TORSDOF 7
ENDMDL
MODEL 4
REMARK VINA RESULT:      -9.6      7.817      9.354
REMARK  Name = 42607839
REMARK  7 active torsions:
REMARK  status: ('A' for Active; 'I' for Inactive)
REMARK    1  A    between atoms: O_1  and  C_13
REMARK    2  A    between atoms: O_1  and  C_18
REMARK    3  A    between atoms: O_4  and  C_16
REMARK    4  A    between atoms: O_4  and  C_24
REMARK    5  A    between atoms: C_25  and  C_28
REMARK    6  A    between atoms: C_36  and  C_39
REMARK    7  A    between atoms: C_39  and  C_40
REMARK                            x       y       z     vdW  Elec       q    Type
REMARK                         _______ _______ _______ _____ _____    ______ ____
ROOT
ATOM      1  C   UNL     1     112.421 127.508 139.367  0.00  0.00    +0.000 A 
ATOM      2  C   UNL     1     113.069 127.664 139.853  0.00  0.00    +0.000 A 
ATOM      3  C   UNL     1     111.667 127.758 139.590  0.00  0.00    +0.000 A 
ATOM      4  C   UNL     1     112.210 128.321 140.787  0.00  0.00    +0.000 A 
ATOM      5  C   UNL     1     112.963 128.070 140.563  0.00  0.00    +0.000 A 
ATOM      6  C   UNL     1     111.562 128.165 140.300  0.00  0.00    +0.000 A 
ENDROOT
BRANCH   4  10
ATOM      7  O   UNL     1     112.231 129.542 141.529  0.00  0.00    +0.000 OA
ATOM      8  O   UNL     1     111.532 128.319 143.564  0.00  0.00    +0.000 OA
ATOM      9  O   UNL     1     111.546 129.537 144.336  0.00  0.00    +0.000 OA
ATOM     10  C   UNL     1     112.104 128.728 141.497  0.00  0.00    +0.000 C 
ATOM     11  C   UNL     1     111.871 128.319 142.175  0.00  0.00    +0.000 C 
ATOM     12  C   UNL     1     111.765 128.726 142.885  0.00  0.00    +0.000 C 
ATOM     13  C   UNL     1     111.892 129.541 142.917  0.00  0.00    +0.000 A 
ATOM     14  C   UNL     1     112.125 129.948 142.238  0.00  0.00    +0.000 A 
ATOM     15  C   UNL     1     111.779 129.954 143.662  0.00  0.00    +0.000 A 
ATOM     16  C   UNL     1     111.909 130.801 143.702  0.00  0.00    +0.000 A 
ATOM     17  C   UNL     1     112.260 130.797 142.258  0.00  0.00    +0.000 A 
ATOM     18  C   UNL     1     112.152 131.227 142.995  0.00  0.00    +0.000 A 
BRANCH  16  19
ATOM     19  C   UNL     1     111.803 131.205 144.413  0.00  0.00    +0.000 C 
BRANCH  19  20
ATOM     20  C   UNL     1     111.933 132.019 144.449  0.00  0.00    +0.000 C 
ATOM     21  C   UNL     1     111.855 132.419 145.167  0.00  0.00    +0.000 C 
ATOM     22  C   UNL     1     111.986 133.232 145.203  0.00  0.00    +0.000 C 
ATOM     23  C   UNL     1     111.646 132.004 145.848  0.00  0.00    +0.000 C 
ENDBRANCH  19  20
ENDBRANCH  16  19
ENDBRANCH   4  10
BRANCH   1  24
ATOM     24  O   UNL     1     112.527 127.101 138.657  0.00  0.00    +0.000 OA
BRANCH  24  31
ATOM     25  O   UNL     1     112.539 128.292 137.867  0.00  0.00    +0.000 OA
ATOM     26  O   UNL     1     113.950 127.158 136.179  0.00  0.00    +0.000 OA
ATOM     27  O   UNL     1     113.491 128.727 135.952  0.00  0.00    +0.000 OA
ATOM     28  C   UNL     1     113.239 127.130 137.418  0.00  0.00    +0.000 C 
ATOM     29  C   UNL     1     113.479 127.536 136.742  0.00  0.00    +0.000 C 
ATOM     30  C   UNL     1     113.250 128.320 136.628  0.00  0.00    +0.000 C 
ATOM     31  C   UNL     1     112.768 127.508 137.980  0.00  0.00    +0.000 C 
ATOM     32  C   UNL     1     112.780 128.698 137.191  0.00  0.00    +0.000 C 
ATOM     33  C   UNL     1     112.550 129.483 137.077  0.00  0.00    +0.000 C 
BRANCH  28  34
ATOM     34  O   UNL     1     113.468 126.345 137.532  0.00  0.00    +0.000 OA
BRANCH  34  39
ATOM     35  O   UNL     1     112.333 125.901 136.787  0.00  0.00    +0.000 OA
ATOM     36  O   UNL     1     114.001 124.788 137.649  0.00  0.00    +0.000 OA
ATOM     37  O   UNL     1     113.132 123.565 136.962  0.00  0.00    +0.000 OA
ATOM     38  O   UNL     1     111.731 123.899 136.158  0.00  0.00    +0.000 OA
ATOM     39  C   UNL     1     113.034 125.734 137.189  0.00  0.00    +0.000 C 
ATOM     40  C   UNL     1     113.300 124.955 137.247  0.00  0.00    +0.000 C 
ATOM     41  C   UNL     1     112.866 124.344 136.904  0.00  0.00    +0.000 C 
ATOM     42  C   UNL     1     112.166 124.511 136.502  0.00  0.00    +0.000 C 
ATOM     43  C   UNL     1     111.899 125.289 136.443  0.00  0.00    +0.000 C 
ENDBRANCH  34  39
ENDBRANCH  28  34
ENDBRANCH  24  31
ENDBRANCH   1  24
TORSDOF 7
ENDMDL
MODEL 5
REMARK VINA RESULT:      -9.6      6.544      9.598
REMARK  Name = 42607839
REMARK  7 active torsions:
REMARK  status: ('A' for Active; 'I' for Inactive)
REMARK    1  A    between atoms: O_1  and  C_13
REMARK    2  A    between atoms: O_1  and  C_18
REMARK    3  A    between atoms: O_4  and  C_16
REMARK    4  A    between atoms: O_4  and  C_24
REMARK    5  A    between atoms: C_25  and  C_28
REMARK    6  A    between atoms: C_36  and  C_39
REMARK    7  A    between atoms: C_39  and  C_40
REMARK                            x       y       z     vdW  Elec       q    Type
REMARK                         _______ _______ _______ _____ _____    ______ ____
ROOT
ATOM      1  C   UNL     1     111.163 130.945 144.304  0.00  0.00    +0.000 A 
ATOM      2  C   UNL     1     110.906 131.018 143.524  0.00  0.00    +0.000 A 
ATOM      3  C   UNL     1     111.562 130.265 144.545  0.00  0.00    +0.000 A 
ATOM      4  C   UNL     1     111.444 129.729 143.225  0.00  0.00    +0.000 A 
ATOM      5  C   UNL     1     111.046 130.410 142.985  0.00  0.00    +0.000 A 
ATOM      6  C   UNL     1     111.703 129.656 144.006  0.00  0.00    +0.000 A 
ENDROOT
BRANCH   4  10
ATOM      7  O   UNL     1     112.241 129.155 142.188  0.00  0.00    +0.000 OA
ATOM      8  O   UNL     1     110.694 127.227 142.066  0.00  0.00    +0.000 OA
ATOM      9  O   UNL     1     111.479 126.625 141.017  0.00  0.00    +0.000 OA
ATOM     10  C   UNL     1     111.585 129.120 142.686  0.00  0.00    +0.000 C 
ATOM     11  C   UNL     1     111.068 128.478 142.646  0.00  0.00    +0.000 C 
ATOM     12  C   UNL     1     111.209 127.870 142.107  0.00  0.00    +0.000 C 
ATOM     13  C   UNL     1     111.866 127.904 141.607  0.00  0.00    +0.000 A 
ATOM     14  C   UNL     1     112.381 128.546 141.648  0.00  0.00    +0.000 A 
ATOM     15  C   UNL     1     112.001 127.264 141.050  0.00  0.00    +0.000 A 
ATOM     16  C   UNL     1     112.682 127.294 140.528  0.00  0.00    +0.000 A 
ATOM     17  C   UNL     1     113.068 128.594 141.134  0.00  0.00    +0.000 A 
ATOM     18  C   UNL     1     113.220 127.963 140.570  0.00  0.00    +0.000 A 
BRANCH  16  19
ATOM     19  C   UNL     1     112.820 126.684 139.990  0.00  0.00    +0.000 C 
BRANCH  19  20
ATOM     20  C   UNL     1     113.535 126.650 139.578  0.00  0.00    +0.000 C 
ATOM     21  C   UNL     1     113.600 126.180 138.903  0.00  0.00    +0.000 C 
ATOM     22  C   UNL     1     114.315 126.147 138.492  0.00  0.00    +0.000 C 
ATOM     23  C   UNL     1     112.952 125.743 138.641  0.00  0.00    +0.000 C 
ENDBRANCH  19  20
ENDBRANCH  16  19
ENDBRANCH   4  10
BRANCH   1  24
ATOM     24  O   UNL     1     111.023 131.554 144.843  0.00  0.00    +0.000 OA
BRANCH  24  31
ATOM     25  O   UNL     1     112.272 132.233 144.698  0.00  0.00    +0.000 OA
ATOM     26  O   UNL     1     111.104 134.411 144.835  0.00  0.00    +0.000 OA
ATOM     27  O   UNL     1     112.742 134.364 144.645  0.00  0.00    +0.000 OA
ATOM     28  C   UNL     1     111.064 132.983 144.839  0.00  0.00    +0.000 C 
ATOM     29  C   UNL     1     111.493 133.685 144.789  0.00  0.00    +0.000 C 
ATOM     30  C   UNL     1     112.312 133.662 144.695  0.00  0.00    +0.000 C 
ATOM     31  C   UNL     1     111.453 132.257 144.793  0.00  0.00    +0.000 C 
ATOM     32  C   UNL     1     112.701 132.936 144.649  0.00  0.00    +0.000 C 
ATOM     33  C   UNL     1     113.521 132.912 144.554  0.00  0.00    +0.000 C 
BRANCH  28  34
ATOM     34  O   UNL     1     110.244 133.006 144.934  0.00  0.00    +0.000 OA
BRANCH  34  39
ATOM     35  O   UNL     1     110.402 133.121 146.349  0.00  0.00    +0.000 OA
ATOM     36  O   UNL     1     108.624 133.276 145.093  0.00  0.00    +0.000 OA
ATOM     37  O   UNL     1     107.972 133.527 146.588  0.00  0.00    +0.000 OA
ATOM     38  O   UNL     1     108.941 133.507 147.924  0.00  0.00    +0.000 OA
ATOM     39  C   UNL     1     109.918 133.131 145.681  0.00  0.00    +0.000 C 
ATOM     40  C   UNL     1     109.108 133.266 145.761  0.00  0.00    +0.000 C 
ATOM     41  C   UNL     1     108.783 133.391 146.508  0.00  0.00    +0.000 C 
ATOM     42  C   UNL     1     109.267 133.382 147.176  0.00  0.00    +0.000 C 
ATOM     43  C   UNL     1     110.077 133.246 147.097  0.00  0.00    +0.000 C 
ENDBRANCH  34  39
ENDBRANCH  28  34
ENDBRANCH  24  31
ENDBRANCH   1  24
TORSDOF 7
ENDMDL
MODEL 6
REMARK VINA RESULT:      -9.5      5.636      8.668
REMARK  Name = 42607839
REMARK  7 active torsions:
REMARK  status: ('A' for Active; 'I' for Inactive)
REMARK    1  A    between atoms: O_1  and  C_13
REMARK    2  A    between atoms: O_1  and  C_18
REMARK    3  A    between atoms: O_4  and  C_16
REMARK    4  A    between atoms: O_4  and  C_24
REMARK    5  A    between atoms: C_25  and  C_28
REMARK    6  A    between atoms: C_36  and  C_39
REMARK    7  A    between atoms: C_39  and  C_40
REMARK                            x       y       z     vdW  Elec       q    Type
REMARK                         _______ _______ _______ _____ _____    ______ ____
ROOT
ATOM      1  C   UNL     1     109.786 126.537 139.325  0.00  0.00    +0.000 A 
ATOM      2  C   UNL     1     110.571 126.426 139.549  0.00  0.00    +0.000 A 
ATOM      3  C   UNL     1     109.609 126.900 138.605  0.00  0.00    +0.000 A 
ATOM      4  C   UNL     1     111.005 127.043 138.335  0.00  0.00    +0.000 A 
ATOM      5  C   UNL     1     111.181 126.679 139.055  0.00  0.00    +0.000 A 
ATOM      6  C   UNL     1     110.219 127.153 138.111  0.00  0.00    +0.000 A 
ENDROOT
BRANCH   4  10
ATOM      7  O   UNL     1     111.742 128.101 137.722  0.00  0.00    +0.000 OA
ATOM      8  O   UNL     1     113.191 126.441 136.594  0.00  0.00    +0.000 OA
ATOM      9  O   UNL     1     113.951 127.491 135.962  0.00  0.00    +0.000 OA
ATOM     10  C   UNL     1     111.615 127.295 137.841  0.00  0.00    +0.000 C 
ATOM     11  C   UNL     1     112.098 126.741 137.465  0.00  0.00    +0.000 C 
ATOM     12  C   UNL     1     112.708 126.994 136.971  0.00  0.00    +0.000 C 
ATOM     13  C   UNL     1     112.835 127.801 136.852  0.00  0.00    +0.000 A 
ATOM     14  C   UNL     1     112.352 128.354 137.228  0.00  0.00    +0.000 A 
ATOM     15  C   UNL     1     113.473 128.052 136.334  0.00  0.00    +0.000 A 
ATOM     16  C   UNL     1     113.611 128.890 136.207  0.00  0.00    +0.000 A 
ATOM     17  C   UNL     1     112.474 129.197 137.112  0.00  0.00    +0.000 A 
ATOM     18  C   UNL     1     113.108 129.468 136.598  0.00  0.00    +0.000 A 
BRANCH  16  19
ATOM     19  C   UNL     1     114.222 129.140 135.711  0.00  0.00    +0.000 C 
BRANCH  19  20
ATOM     20  C   UNL     1     114.503 129.914 135.761  0.00  0.00    +0.000 C 
ATOM     21  C   UNL     1     115.053 130.190 135.212  0.00  0.00    +0.000 C 
ATOM     22  C   UNL     1     115.334 130.964 135.262  0.00  0.00    +0.000 C 
ATOM     23  C   UNL     1     115.322 129.692 134.612  0.00  0.00    +0.000 C 
ENDBRANCH  19  20
ENDBRANCH  16  19
ENDBRANCH   4  10
BRANCH   1  24
ATOM     24  O   UNL     1     109.176 126.284 139.819  0.00  0.00    +0.000 OA
BRANCH  24  31
ATOM     25  O   UNL     1     109.042 127.564 140.440  0.00  0.00    +0.000 OA
ATOM     26  O   UNL     1     108.093 126.488 142.456  0.00  0.00    +0.000 OA
ATOM     27  O   UNL     1     108.276 128.127 142.404  0.00  0.00    +0.000 OA
ATOM     28  C   UNL     1     108.634 126.386 141.138  0.00  0.00    +0.000 C 
ATOM     29  C   UNL     1     108.409 126.847 141.784  0.00  0.00    +0.000 C 
ATOM     30  C   UNL     1     108.500 127.665 141.758  0.00  0.00    +0.000 C 
ATOM     31  C   UNL     1     108.950 126.745 140.466  0.00  0.00    +0.000 C 
ATOM     32  C   UNL     1     108.817 128.024 141.086  0.00  0.00    +0.000 C 
ATOM     33  C   UNL     1     108.908 128.844 141.060  0.00  0.00    +0.000 C 
BRANCH  28  34
ATOM     34  O   UNL     1     108.543 125.566 141.164  0.00  0.00    +0.000 OA
BRANCH  34  39
ATOM     35  O   UNL     1     107.195 125.698 140.711  0.00  0.00    +0.000 OA
ATOM     36  O   UNL     1     108.322 123.941 141.348  0.00  0.00    +0.000 OA
ATOM     37  O   UNL     1     106.863 123.261 140.987  0.00  0.00    +0.000 OA
ATOM     38  O   UNL     1     105.624 124.205 140.442  0.00  0.00    +0.000 OA
ATOM     39  C   UNL     1     107.814 125.226 140.983  0.00  0.00    +0.000 C 
ATOM     40  C   UNL     1     107.703 124.413 141.076  0.00  0.00    +0.000 C 
ATOM     41  C   UNL     1     106.974 124.073 140.895  0.00  0.00    +0.000 C 
ATOM     42  C   UNL     1     106.355 124.545 140.623  0.00  0.00    +0.000 C 
ATOM     43  C   UNL     1     106.464 125.358 140.530  0.00  0.00    +0.000 C 
ENDBRANCH  34  39
ENDBRANCH  28  34
ENDBRANCH  24  31
ENDBRANCH   1  24
TORSDOF 7
ENDMDL
MODEL 7
REMARK VINA RESULT:      -9.5      5.042      6.224
REMARK  Name = 42607839
REMARK  7 active torsions:
REMARK  status: ('A' for Active; 'I' for Inactive)
REMARK    1  A    between atoms: O_1  and  C_13
REMARK    2  A    between atoms: O_1  and  C_18
REMARK    3  A    between atoms: O_4  and  C_16
REMARK    4  A    between atoms: O_4  and  C_24
REMARK    5  A    between atoms: C_25  and  C_28
REMARK    6  A    between atoms: C_36  and  C_39
REMARK    7  A    between atoms: C_39  and  C_40
REMARK                            x       y       z     vdW  Elec       q    Type
REMARK                         _______ _______ _______ _____ _____    ______ ____
ROOT
ATOM      1  C   UNL     1     106.253 126.846 146.437  0.00  0.00    +0.000 A 
ATOM      2  C   UNL     1     106.262 127.480 146.964  0.00  0.00    +0.000 A 
ATOM      3  C   UNL     1     106.663 126.896 145.723  0.00  0.00    +0.000 A 
ATOM      4  C   UNL     1     107.093 128.216 146.063  0.00  0.00    +0.000 A 
ATOM      5  C   UNL     1     106.682 128.165 146.777  0.00  0.00    +0.000 A 
ATOM      6  C   UNL     1     107.083 127.581 145.536  0.00  0.00    +0.000 A 
ENDROOT
BRANCH   4  10
ATOM      7  O   UNL     1     108.320 128.859 145.715  0.00  0.00    +0.000 OA
ATOM      8  O   UNL     1     107.157 131.042 145.639  0.00  0.00    +0.000 OA
ATOM      9  O   UNL     1     108.382 131.716 145.287  0.00  0.00    +0.000 OA
ATOM     10  C   UNL     1     107.513 128.901 145.877  0.00  0.00    +0.000 C 
ATOM     11  C   UNL     1     107.124 129.629 145.852  0.00  0.00    +0.000 C 
ATOM     12  C   UNL     1     107.544 130.314 145.665  0.00  0.00    +0.000 C 
ATOM     13  C   UNL     1     108.352 130.272 145.503  0.00  0.00    +0.000 A 
ATOM     14  C   UNL     1     108.740 129.544 145.528  0.00  0.00    +0.000 A 
ATOM     15  C   UNL     1     108.779 130.992 145.309  0.00  0.00    +0.000 A 
ATOM     16  C   UNL     1     109.619 130.954 145.140  0.00  0.00    +0.000 A 
ATOM     17  C   UNL     1     109.581 129.486 145.361  0.00  0.00    +0.000 A 
ATOM     18  C   UNL     1     110.025 130.197 145.166  0.00  0.00    +0.000 A 
BRANCH  16  19
ATOM     19  C   UNL     1     110.037 131.641 144.953  0.00  0.00    +0.000 C 
BRANCH  19  20
ATOM     20  C   UNL     1     110.807 131.590 144.662  0.00  0.00    +0.000 C 
ATOM     21  C   UNL     1     111.272 132.269 144.602  0.00  0.00    +0.000 C 
ATOM     22  C   UNL     1     112.042 132.217 144.310  0.00  0.00    +0.000 C 
ATOM     23  C   UNL     1     110.967 132.999 144.834  0.00  0.00    +0.000 C 
ENDBRANCH  19  20
ENDBRANCH  16  19
ENDBRANCH   4  10
BRANCH   1  24
ATOM     24  O   UNL     1     105.833 126.161 146.624  0.00  0.00    +0.000 OA
BRANCH  24  31
ATOM     25  O   UNL     1     106.933 125.573 147.322  0.00  0.00    +0.000 OA
ATOM     26  O   UNL     1     105.356 124.244 148.689  0.00  0.00    +0.000 OA
ATOM     27  O   UNL     1     106.982 124.100 148.931  0.00  0.00    +0.000 OA
ATOM     28  C   UNL     1     105.595 125.202 147.657  0.00  0.00    +0.000 C 
ATOM     29  C   UNL     1     105.882 124.687 148.234  0.00  0.00    +0.000 C 
ATOM     30  C   UNL     1     106.694 124.615 148.355  0.00  0.00    +0.000 C 
ATOM     31  C   UNL     1     106.120 125.645 147.202  0.00  0.00    +0.000 C 
ATOM     32  C   UNL     1     107.220 125.058 147.899  0.00  0.00    +0.000 C 
ATOM     33  C   UNL     1     108.033 124.986 148.020  0.00  0.00    +0.000 C 
BRANCH  28  34
ATOM     34  O   UNL     1     104.782 125.275 147.536  0.00  0.00    +0.000 OA
BRANCH  34  39
ATOM     35  O   UNL     1     104.820 124.188 146.610  0.00  0.00    +0.000 OA
ATOM     36  O   UNL     1     103.141 125.355 147.374  0.00  0.00    +0.000 OA
ATOM     37  O   UNL     1     102.360 124.307 146.367  0.00  0.00    +0.000 OA
ATOM     38  O   UNL     1     103.218 123.180 145.522  0.00  0.00    +0.000 OA
ATOM     39  C   UNL     1     104.391 124.751 147.033  0.00  0.00    +0.000 C 
ATOM     40  C   UNL     1     103.571 124.791 146.951  0.00  0.00    +0.000 C 
ATOM     41  C   UNL     1     103.180 124.268 146.448  0.00  0.00    +0.000 C 
ATOM     42  C   UNL     1     103.609 123.704 146.026  0.00  0.00    +0.000 C 
ATOM     43  C   UNL     1     104.429 123.664 146.106  0.00  0.00    +0.000 C 
ENDBRANCH  34  39
ENDBRANCH  28  34
ENDBRANCH  24  31
ENDBRANCH   1  24
TORSDOF 7
ENDMDL
MODEL 8
REMARK VINA RESULT:      -9.5      7.523      9.218
REMARK  Name = 42607839
REMARK  7 active torsions:
REMARK  status: ('A' for Active; 'I' for Inactive)
REMARK    1  A    between atoms: O_1  and  C_13
REMARK    2  A    between atoms: O_1  and  C_18
REMARK    3  A    between atoms: O_4  and  C_16
REMARK    4  A    between atoms: O_4  and  C_24
REMARK    5  A    between atoms: C_25  and  C_28
REMARK    6  A    between atoms: C_36  and  C_39
REMARK    7  A    between atoms: C_39  and  C_40
REMARK                            x       y       z     vdW  Elec       q    Type
REMARK                         _______ _______ _______ _____ _____    ______ ____
ROOT
ATOM      1  C   UNL     1     111.985 129.931 140.840  0.00  0.00    +0.000 A 
ATOM      2  C   UNL     1     112.691 130.091 141.235  0.00  0.00    +0.000 A 
ATOM      3  C   UNL     1     111.269 130.200 141.150  0.00  0.00    +0.000 A 
ATOM      4  C   UNL     1     111.967 130.788 142.250  0.00  0.00    +0.000 A 
ATOM      5  C   UNL     1     112.682 130.519 141.940  0.00  0.00    +0.000 A 
ATOM      6  C   UNL     1     111.260 130.629 141.855  0.00  0.00    +0.000 A 
ENDROOT
BRANCH   4  10
ATOM      7  O   UNL     1     111.965 130.821 143.678  0.00  0.00    +0.000 OA
ATOM      8  O   UNL     1     111.914 133.295 143.622  0.00  0.00    +0.000 OA
ATOM      9  O   UNL     1     111.912 133.356 145.063  0.00  0.00    +0.000 OA
ATOM     10  C   UNL     1     111.957 131.217 142.955  0.00  0.00    +0.000 C 
ATOM     11  C   UNL     1     111.940 132.042 142.936  0.00  0.00    +0.000 C 
ATOM     12  C   UNL     1     111.931 132.470 143.640  0.00  0.00    +0.000 C 
ATOM     13  C   UNL     1     111.939 132.074 144.365  0.00  0.00    +0.000 A 
ATOM     14  C   UNL     1     111.956 131.250 144.383  0.00  0.00    +0.000 A 
ATOM     15  C   UNL     1     111.929 132.531 145.092  0.00  0.00    +0.000 A 
ATOM     16  C   UNL     1     111.937 132.125 145.848  0.00  0.00    +0.000 A 
ATOM     17  C   UNL     1     111.965 130.825 145.130  0.00  0.00    +0.000 A 
ATOM     18  C   UNL     1     111.955 131.266 145.869  0.00  0.00    +0.000 A 
BRANCH  16  19
ATOM     19  C   UNL     1     111.928 132.556 146.552  0.00  0.00    +0.000 C 
BRANCH  19  20
ATOM     20  C   UNL     1     112.447 132.360 147.163  0.00  0.00    +0.000 C 
ATOM     21  C   UNL     1     112.352 132.699 147.910  0.00  0.00    +0.000 C 
ATOM     22  C   UNL     1     112.870 132.503 148.520  0.00  0.00    +0.000 C 
ATOM     23  C   UNL     1     111.738 133.234 148.044  0.00  0.00    +0.000 C 
ENDBRANCH  19  20
ENDBRANCH  16  19
ENDBRANCH   4  10
BRANCH   1  24
ATOM     24  O   UNL     1     111.994 129.503 140.135  0.00  0.00    +0.000 OA
BRANCH  24  31
ATOM     25  O   UNL     1     111.679 128.253 140.752  0.00  0.00    +0.000 OA
ATOM     26  O   UNL     1     112.976 127.066 139.010  0.00  0.00    +0.000 OA
ATOM     27  O   UNL     1     112.229 126.212 140.208  0.00  0.00    +0.000 OA
ATOM     28  C   UNL     1     112.485 128.284 139.572  0.00  0.00    +0.000 C 
ATOM     29  C   UNL     1     112.544 127.462 139.591  0.00  0.00    +0.000 C 
ATOM     30  C   UNL     1     112.170 127.035 140.189  0.00  0.00    +0.000 C 
ATOM     31  C   UNL     1     112.053 128.679 140.153  0.00  0.00    +0.000 C 
ATOM     32  C   UNL     1     111.738 127.431 140.770  0.00  0.00    +0.000 C 
ATOM     33  C   UNL     1     111.365 127.003 141.369  0.00  0.00    +0.000 C 
BRANCH  28  34
ATOM     34  O   UNL     1     112.858 128.712 138.974  0.00  0.00    +0.000 OA
BRANCH  34  39
ATOM     35  O   UNL     1     111.724 128.520 138.127  0.00  0.00    +0.000 OA
ATOM     36  O   UNL     1     113.635 129.507 137.754  0.00  0.00    +0.000 OA
ATOM     37  O   UNL     1     112.888 129.713 136.297  0.00  0.00    +0.000 OA
ATOM     38  O   UNL     1     111.365 129.124 136.060  0.00  0.00    +0.000 OA
ATOM     39  C   UNL     1     112.486 128.815 138.246  0.00  0.00    +0.000 C 
ATOM     40  C   UNL     1     112.873 129.212 137.635  0.00  0.00    +0.000 C 
ATOM     41  C   UNL     1     112.500 129.315 136.907  0.00  0.00    +0.000 C 
ATOM     42  C   UNL     1     111.739 129.021 136.789  0.00  0.00    +0.000 C 
ATOM     43  C   UNL     1     111.350 128.623 137.398  0.00  0.00    +0.000 C 
ENDBRANCH  34  39
ENDBRANCH  28  34
ENDBRANCH  24  31
ENDBRANCH   1  24
TORSDOF 7
ENDMDL
MODEL 9
REMARK VINA RESULT:      -9.3      7.828      8.896
REMARK  Name = 42607839
REMARK  7 active torsions:
REMARK  status: ('A' for Active; 'I' for Inactive)
REMARK    1  A    between atoms: O_1  and  C_13
REMARK    2  A    between atoms: O_1  and  C_18
REMARK    3  A    between atoms: O_4  and  C_16
REMARK    4  A    between atoms: O_4  and  C_24
REMARK    5  A    between atoms: C_25  and  C_28
REMARK    6  A    between atoms: C_36  and  C_39
REMARK    7  A    between atoms: C_39  and  C_40
REMARK                            x       y       z     vdW  Elec       q    Type
REMARK                         _______ _______ _______ _____ _____    ______ ____
ROOT
ATOM      1  C   UNL     1     112.157 129.191 140.512  0.00  0.00    +0.000 A 
ATOM      2  C   UNL     1     111.423 129.412 140.815  0.00  0.00    +0.000 A 
ATOM      3  C   UNL     1     112.850 129.460 140.871  0.00  0.00    +0.000 A 
ATOM      4  C   UNL     1     112.073 130.173 141.835  0.00  0.00    +0.000 A 
ATOM      5  C   UNL     1     111.381 129.904 141.476  0.00  0.00    +0.000 A 
ATOM      6  C   UNL     1     112.808 129.951 141.532  0.00  0.00    +0.000 A 
ENDROOT
BRANCH   4  10
ATOM      7  O   UNL     1     112.003 130.336 143.252  0.00  0.00    +0.000 OA
ATOM      8  O   UNL     1     111.959 132.795 142.968  0.00  0.00    +0.000 OA
ATOM      9  O   UNL     1     111.888 132.988 144.395  0.00  0.00    +0.000 OA
ATOM     10  C   UNL     1     112.031 130.664 142.497  0.00  0.00    +0.000 C 
ATOM     11  C   UNL     1     112.016 131.484 142.401  0.00  0.00    +0.000 C 
ATOM     12  C   UNL     1     111.974 131.975 143.062  0.00  0.00    +0.000 C 
ATOM     13  C   UNL     1     111.946 131.647 143.820  0.00  0.00    +0.000 A 
ATOM     14  C   UNL     1     111.961 130.828 143.914  0.00  0.00    +0.000 A 
ATOM     15  C   UNL     1     111.902 132.169 144.501  0.00  0.00    +0.000 A 
ATOM     16  C   UNL     1     111.873 131.834 145.290  0.00  0.00    +0.000 A 
ATOM     17  C   UNL     1     111.933 130.474 144.697  0.00  0.00    +0.000 A 
ATOM     18  C   UNL     1     111.889 130.980 145.390  0.00  0.00    +0.000 A 
BRANCH  16  19
ATOM     19  C   UNL     1     111.831 132.327 145.950  0.00  0.00    +0.000 C 
BRANCH  19  20
ATOM     20  C   UNL     1     112.327 132.197 146.596  0.00  0.00    +0.000 C 
ATOM     21  C   UNL     1     112.216 132.620 147.295  0.00  0.00    +0.000 C 
ATOM     22  C   UNL     1     112.712 132.489 147.941  0.00  0.00    +0.000 C 
ATOM     23  C   UNL     1     111.608 133.175 147.348  0.00  0.00    +0.000 C 
ENDBRANCH  19  20
ENDBRANCH  16  19
ENDBRANCH   4  10
BRANCH   1  24
ATOM     24  O   UNL     1     112.199 128.699 139.851  0.00  0.00    +0.000 OA
BRANCH  24  31
ATOM     25  O   UNL     1     112.384 129.769 138.922  0.00  0.00    +0.000 OA
ATOM     26  O   UNL     1     111.223 128.454 137.176  0.00  0.00    +0.000 OA
ATOM     27  O   UNL     1     111.795 129.962 136.829  0.00  0.00    +0.000 OA
ATOM     28  C   UNL     1     111.711 128.577 138.513  0.00  0.00    +0.000 C 
ATOM     29  C   UNL     1     111.610 128.892 137.758  0.00  0.00    +0.000 C 
ATOM     30  C   UNL     1     111.896 129.646 137.584  0.00  0.00    +0.000 C 
ATOM     31  C   UNL     1     112.098 129.015 139.095  0.00  0.00    +0.000 C 
ATOM     32  C   UNL     1     112.283 130.084 138.166  0.00  0.00    +0.000 C 
ATOM     33  C   UNL     1     112.569 130.839 137.993  0.00  0.00    +0.000 C 
BRANCH  28  34
ATOM     34  O   UNL     1     111.426 127.822 138.687  0.00  0.00    +0.000 OA
BRANCH  34  39
ATOM     35  O   UNL     1     112.643 127.240 138.220  0.00  0.00    +0.000 OA
ATOM     36  O   UNL     1     110.748 126.321 138.791  0.00  0.00    +0.000 OA
ATOM     37  O   UNL     1     111.628 124.989 138.376  0.00  0.00    +0.000 OA
ATOM     38  O   UNL     1     113.185 125.157 137.857  0.00  0.00    +0.000 OA
ATOM     39  C   UNL     1     111.865 127.156 138.480  0.00  0.00    +0.000 C 
ATOM     40  C   UNL     1     111.527 126.405 138.532  0.00  0.00    +0.000 C 
ATOM     41  C   UNL     1     111.966 125.739 138.324  0.00  0.00    +0.000 C 
ATOM     42  C   UNL     1     112.744 125.824 138.065  0.00  0.00    +0.000 C 
ATOM     43  C   UNL     1     113.084 126.574 138.012  0.00  0.00    +0.000 C 
ENDBRANCH  34  39
ENDBRANCH  28  34
ENDBRANCH  24  31
ENDBRANCH   1  24
TORSDOF 7
ENDMDL
