MODEL 1
REMARK VINA RESULT:     -10.7      0.000      0.000
REMARK  Name = 14427359
REMARK  5 active torsions:
REMARK  status: ('A' for Active; 'I' for Inactive)
REMARK    1  A    between atoms: C_16  and  C_21
REMARK    2  A    between atoms: C_17  and  C_26
REMARK    3  A    between atoms: C_24  and  C_32
REMARK    4  A    between atoms: C_27  and  C_33
REMARK    5  A    between atoms: C_34  and  C_37
REMARK                            x       y       z     vdW  Elec       q    Type
REMARK                         _______ _______ _______ _____ _____    ______ ____
ROOT
ATOM      1  O   UNL     1     113.263 127.321 138.389  0.00  0.00    +0.000 OA
ATOM      2  O   UNL     1     112.881 130.086 139.102  0.00  0.00    +0.000 OA
ATOM      3  O   UNL     1     113.904 128.263 141.050  0.00  0.00    +0.000 OA
ATOM      4  O   UNL     1     114.110 126.871 140.733  0.00  0.00    +0.000 OA
ATOM      5  C   UNL     1     113.075 128.712 138.762  0.00  0.00    +0.000 A 
ATOM      6  C   UNL     1     113.393 129.175 140.076  0.00  0.00    +0.000 A 
ATOM      7  C   UNL     1     113.116 129.325 139.313  0.00  0.00    +0.000 A 
ATOM      8  C   UNL     1     113.310 127.950 138.973  0.00  0.00    +0.000 A 
ATOM      9  C   UNL     1     113.587 127.801 139.736  0.00  0.00    +0.000 A 
ATOM     10  C   UNL     1     113.628 128.412 140.287  0.00  0.00    +0.000 A 
ATOM     11  C   UNL     1     113.506 126.525 138.604  0.00  0.00    +0.000 C 
ATOM     12  C   UNL     1     113.794 126.369 139.398  0.00  0.00    +0.000 C 
ATOM     13  C   UNL     1     113.835 127.011 139.968  0.00  0.00    +0.000 C 
ENDROOT
BRANCH   5  18
ATOM     14  O   UNL     1     113.333 129.001 137.386  0.00  0.00    +0.000 OA
ATOM     15  O   UNL     1     111.453 128.731 138.461  0.00  0.00    +0.000 OA
ATOM     16  O   UNL     1     110.900 129.031 136.936  0.00  0.00    +0.000 OA
ATOM     17  O   UNL     1     111.970 129.311 135.711  0.00  0.00    +0.000 OA
ATOM     18  C   UNL     1     112.799 128.861 137.999  0.00  0.00    +0.000 C 
ATOM     19  C   UNL     1     111.987 128.871 137.848  0.00  0.00    +0.000 C 
ATOM     20  C   UNL     1     111.711 129.021 137.086  0.00  0.00    +0.000 C 
ATOM     21  C   UNL     1     112.246 129.161 136.473  0.00  0.00    +0.000 C 
ATOM     22  C   UNL     1     113.057 129.151 136.623  0.00  0.00    +0.000 C 
BRANCH  22  24
ATOM     23  O   UNL     1     114.330 129.620 136.177  0.00  0.00    +0.000 OA
ATOM     24  C   UNL     1     113.592 129.291 136.011  0.00  0.00    +0.000 C 
ENDBRANCH  22  24
ENDBRANCH   5  18
BRANCH   6  29
ATOM     25  O   UNL     1     112.806 129.914 141.149  0.00  0.00    +0.000 OA
ATOM     26  O   UNL     1     114.728 130.142 140.138  0.00  0.00    +0.000 OA
ATOM     27  O   UNL     1     114.809 131.366 141.242  0.00  0.00    +0.000 OA
ATOM     28  O   UNL     1     113.556 131.621 142.283  0.00  0.00    +0.000 OA
ATOM     29  C   UNL     1     113.434 129.787 140.627  0.00  0.00    +0.000 C 
ATOM     30  C   UNL     1     114.101 130.270 140.659  0.00  0.00    +0.000 C 
ATOM     31  C   UNL     1     114.142 130.882 141.211  0.00  0.00    +0.000 C 
ATOM     32  C   UNL     1     113.515 131.010 141.732  0.00  0.00    +0.000 C 
ATOM     33  C   UNL     1     112.848 130.526 141.701  0.00  0.00    +0.000 C 
BRANCH  33  35
ATOM     34  O   UNL     1     111.443 130.575 141.956  0.00  0.00    +0.000 OA
ATOM     35  C   UNL     1     112.221 130.654 142.221  0.00  0.00    +0.000 C 
ENDBRANCH  33  35
ENDBRANCH   6  29
BRANCH  11  37
ATOM     36  O   UNL     1     113.337 124.083 136.390  0.00  0.00    +0.000 OA
ATOM     37  C   UNL     1     113.464 125.915 138.050  0.00  0.00    +0.000 A 
ATOM     38  C   UNL     1     114.135 125.699 137.621  0.00  0.00    +0.000 A 
ATOM     39  C   UNL     1     112.751 125.520 137.925  0.00  0.00    +0.000 A 
ATOM     40  C   UNL     1     114.092 125.089 137.068  0.00  0.00    +0.000 A 
ATOM     41  C   UNL     1     112.708 124.909 137.372  0.00  0.00    +0.000 A 
ATOM     42  C   UNL     1     113.379 124.694 136.943  0.00  0.00    +0.000 A 
ENDBRANCH  11  37
TORSDOF 5
ENDMDL
MODEL 2
REMARK VINA RESULT:     -10.4      1.130      5.007
REMARK  Name = 14427359
REMARK  5 active torsions:
REMARK  status: ('A' for Active; 'I' for Inactive)
REMARK    1  A    between atoms: C_16  and  C_21
REMARK    2  A    between atoms: C_17  and  C_26
REMARK    3  A    between atoms: C_24  and  C_32
REMARK    4  A    between atoms: C_27  and  C_33
REMARK    5  A    between atoms: C_34  and  C_37
REMARK                            x       y       z     vdW  Elec       q    Type
REMARK                         _______ _______ _______ _____ _____    ______ ____
ROOT
ATOM      1  O   UNL     1     113.361 128.861 139.442  0.00  0.00    +0.000 OA
ATOM      2  O   UNL     1     112.245 127.414 137.214  0.00  0.00    +0.000 OA
ATOM      3  O   UNL     1     113.609 125.981 139.277  0.00  0.00    +0.000 OA
ATOM      4  O   UNL     1     114.182 126.669 140.408  0.00  0.00    +0.000 OA
ATOM      5  C   UNL     1     112.803 128.119 138.325  0.00  0.00    +0.000 A 
ATOM      6  C   UNL     1     112.926 126.698 138.245  0.00  0.00    +0.000 A 
ATOM      7  C   UNL     1     112.658 127.411 137.928  0.00  0.00    +0.000 A 
ATOM      8  C   UNL     1     113.217 128.116 139.038  0.00  0.00    +0.000 A 
ATOM      9  C   UNL     1     113.485 127.403 139.355  0.00  0.00    +0.000 A 
ATOM     10  C   UNL     1     113.340 126.694 138.959  0.00  0.00    +0.000 A 
ATOM     11  C   UNL     1     113.791 128.863 140.185  0.00  0.00    +0.000 C 
ATOM     12  C   UNL     1     114.071 128.121 140.516  0.00  0.00    +0.000 C 
ATOM     13  C   UNL     1     113.917 127.386 140.098  0.00  0.00    +0.000 C 
ENDROOT
BRANCH   5  18
ATOM     14  O   UNL     1     111.821 129.156 138.265  0.00  0.00    +0.000 OA
ATOM     15  O   UNL     1     113.693 128.897 137.174  0.00  0.00    +0.000 OA
ATOM     16  O   UNL     1     113.156 130.323 136.539  0.00  0.00    +0.000 OA
ATOM     17  O   UNL     1     111.729 130.970 137.056  0.00  0.00    +0.000 OA
ATOM     18  C   UNL     1     112.535 128.832 138.008  0.00  0.00    +0.000 C 
ATOM     19  C   UNL     1     112.980 129.221 137.431  0.00  0.00    +0.000 C 
ATOM     20  C   UNL     1     112.711 129.934 137.114  0.00  0.00    +0.000 C 
ATOM     21  C   UNL     1     111.998 130.257 137.373  0.00  0.00    +0.000 C 
ATOM     22  C   UNL     1     111.553 129.869 137.948  0.00  0.00    +0.000 C 
BRANCH  22  24
ATOM     23  O   UNL     1     110.268 129.706 138.552  0.00  0.00    +0.000 OA
ATOM     24  C   UNL     1     110.839 130.192 138.207  0.00  0.00    +0.000 C 
ENDBRANCH  22  24
ENDBRANCH   5  18
BRANCH   6  29
ATOM     25  O   UNL     1     113.337 125.696 137.313  0.00  0.00    +0.000 OA
ATOM     26  O   UNL     1     111.529 125.867 138.523  0.00  0.00    +0.000 OA
ATOM     27  O   UNL     1     111.240 124.449 137.730  0.00  0.00    +0.000 OA
ATOM     28  O   UNL     1     112.350 123.863 136.660  0.00  0.00    +0.000 OA
ATOM     29  C   UNL     1     112.782 125.989 137.849  0.00  0.00    +0.000 C 
ATOM     30  C   UNL     1     112.083 125.573 137.988  0.00  0.00    +0.000 C 
ATOM     31  C   UNL     1     111.939 124.864 137.591  0.00  0.00    +0.000 C 
ATOM     32  C   UNL     1     112.494 124.571 137.056  0.00  0.00    +0.000 C 
ATOM     33  C   UNL     1     113.193 124.987 136.917  0.00  0.00    +0.000 C 
BRANCH  33  35
ATOM     34  O   UNL     1     114.464 125.089 136.274  0.00  0.00    +0.000 OA
ATOM     35  C   UNL     1     113.748 124.694 136.382  0.00  0.00    +0.000 C 
ENDBRANCH  33  35
ENDBRANCH   6  29
BRANCH  11  37
ATOM     36  O   UNL     1     114.367 131.704 141.763  0.00  0.00    +0.000 OA
ATOM     37  C   UNL     1     113.935 129.573 140.580  0.00  0.00    +0.000 A 
ATOM     38  C   UNL     1     113.395 129.852 141.138  0.00  0.00    +0.000 A 
ATOM     39  C   UNL     1     114.619 130.004 140.417  0.00  0.00    +0.000 A 
ATOM     40  C   UNL     1     113.539 130.563 141.532  0.00  0.00    +0.000 A 
ATOM     41  C   UNL     1     114.763 130.715 140.811  0.00  0.00    +0.000 A 
ATOM     42  C   UNL     1     114.223 130.994 141.369  0.00  0.00    +0.000 A 
ENDBRANCH  11  37
TORSDOF 5
ENDMDL
MODEL 3
REMARK VINA RESULT:     -10.4      8.152     10.375
REMARK  Name = 14427359
REMARK  5 active torsions:
REMARK  status: ('A' for Active; 'I' for Inactive)
REMARK    1  A    between atoms: C_16  and  C_21
REMARK    2  A    between atoms: C_17  and  C_26
REMARK    3  A    between atoms: C_24  and  C_32
REMARK    4  A    between atoms: C_27  and  C_33
REMARK    5  A    between atoms: C_34  and  C_37
REMARK                            x       y       z     vdW  Elec       q    Type
REMARK                         _______ _______ _______ _____ _____    ______ ____
ROOT
ATOM      1  O   UNL     1     106.337 127.131 144.749  0.00  0.00    +0.000 OA
ATOM      2  O   UNL     1     107.047 127.030 147.540  0.00  0.00    +0.000 OA
ATOM      3  O   UNL     1     106.452 124.603 146.153  0.00  0.00    +0.000 OA
ATOM      4  O   UNL     1     106.093 124.611 144.756  0.00  0.00    +0.000 OA
ATOM      5  C   UNL     1     106.693 127.066 146.155  0.00  0.00    +0.000 A 
ATOM      6  C   UNL     1     106.750 125.817 146.847  0.00  0.00    +0.000 A 
ATOM      7  C   UNL     1     106.830 126.638 146.848  0.00  0.00    +0.000 A 
ATOM      8  C   UNL     1     106.477 126.674 145.463  0.00  0.00    +0.000 A 
ATOM      9  C   UNL     1     106.396 125.853 145.463  0.00  0.00    +0.000 A 
ATOM     10  C   UNL     1     106.533 125.424 146.154  0.00  0.00    +0.000 A 
ATOM     11  C   UNL     1     106.111 126.728 144.025  0.00  0.00    +0.000 C 
ATOM     12  C   UNL     1     106.027 125.873 144.024  0.00  0.00    +0.000 C 
ATOM     13  C   UNL     1     106.171 125.433 144.747  0.00  0.00    +0.000 C 
ENDROOT
BRANCH   5  18
ATOM     14  O   UNL     1     107.480 128.233 145.907  0.00  0.00    +0.000 OA
ATOM     15  O   UNL     1     105.442 128.017 146.656  0.00  0.00    +0.000 OA
ATOM     16  O   UNL     1     105.603 129.659 146.658  0.00  0.00    +0.000 OA
ATOM     17  O   UNL     1     107.015 130.350 146.159  0.00  0.00    +0.000 OA
ATOM     18  C   UNL     1     106.774 127.887 146.156  0.00  0.00    +0.000 C 
ATOM     19  C   UNL     1     106.148 128.363 146.407  0.00  0.00    +0.000 C 
ATOM     20  C   UNL     1     106.228 129.184 146.408  0.00  0.00    +0.000 C 
ATOM     21  C   UNL     1     106.935 129.529 146.158  0.00  0.00    +0.000 C 
ATOM     22  C   UNL     1     107.560 129.054 145.908  0.00  0.00    +0.000 C 
BRANCH  22  24
ATOM     23  O   UNL     1     108.956 128.946 145.621  0.00  0.00    +0.000 OA
ATOM     24  C   UNL     1     108.267 129.399 145.658  0.00  0.00    +0.000 C 
ENDBRANCH  22  24
ENDBRANCH   5  18
BRANCH   6  29
ATOM     25  O   UNL     1     106.254 125.189 148.031  0.00  0.00    +0.000 OA
ATOM     26  O   UNL     1     108.283 125.355 147.244  0.00  0.00    +0.000 OA
ATOM     27  O   UNL     1     108.555 124.497 148.627  0.00  0.00    +0.000 OA
ATOM     28  O   UNL     1     107.293 124.101 149.612  0.00  0.00    +0.000 OA
ATOM     29  C   UNL     1     106.886 125.388 147.538  0.00  0.00    +0.000 C 
ATOM     30  C   UNL     1     107.653 125.157 147.736  0.00  0.00    +0.000 C 
ATOM     31  C   UNL     1     107.788 124.728 148.428  0.00  0.00    +0.000 C 
ATOM     32  C   UNL     1     107.157 124.530 148.921  0.00  0.00    +0.000 C 
ATOM     33  C   UNL     1     106.391 124.760 148.722  0.00  0.00    +0.000 C 
BRANCH  33  35
ATOM     34  O   UNL     1     105.030 124.940 149.122  0.00  0.00    +0.000 OA
ATOM     35  C   UNL     1     105.759 124.562 149.215  0.00  0.00    +0.000 C 
ENDBRANCH  33  35
ENDBRANCH   6  29
BRANCH  11  37
ATOM     36  O   UNL     1     105.568 128.452 141.264  0.00  0.00    +0.000 OA
ATOM     37  C   UNL     1     105.975 127.159 143.335  0.00  0.00    +0.000 A 
ATOM     38  C   UNL     1     105.237 127.502 143.201  0.00  0.00    +0.000 A 
ATOM     39  C   UNL     1     106.578 127.248 142.779  0.00  0.00    +0.000 A 
ATOM     40  C   UNL     1     105.101 127.933 142.510  0.00  0.00    +0.000 A 
ATOM     41  C   UNL     1     106.442 127.679 142.088  0.00  0.00    +0.000 A 
ATOM     42  C   UNL     1     105.704 128.021 141.954  0.00  0.00    +0.000 A 
ENDBRANCH  11  37
TORSDOF 5
ENDMDL
MODEL 4
REMARK VINA RESULT:     -10.3      2.609      5.005
REMARK  Name = 14427359
REMARK  5 active torsions:
REMARK  status: ('A' for Active; 'I' for Inactive)
REMARK    1  A    between atoms: C_16  and  C_21
REMARK    2  A    between atoms: C_17  and  C_26
REMARK    3  A    between atoms: C_24  and  C_32
REMARK    4  A    between atoms: C_27  and  C_33
REMARK    5  A    between atoms: C_34  and  C_37
REMARK                            x       y       z     vdW  Elec       q    Type
REMARK                         _______ _______ _______ _____ _____    ______ ____
ROOT
ATOM      1  O   UNL     1     110.756 127.317 136.339  0.00  0.00    +0.000 OA
ATOM      2  O   UNL     1     110.698 130.197 136.251  0.00  0.00    +0.000 OA
ATOM      3  O   UNL     1     108.244 128.738 136.118  0.00  0.00    +0.000 OA
ATOM      4  O   UNL     1     108.230 127.296 136.159  0.00  0.00    +0.000 OA
ATOM      5  C   UNL     1     110.712 128.768 136.294  0.00  0.00    +0.000 A 
ATOM      6  C   UNL     1     109.471 129.468 136.185  0.00  0.00    +0.000 A 
ATOM      7  C   UNL     1     110.294 129.478 136.243  0.00  0.00    +0.000 A 
ATOM      8  C   UNL     1     110.309 128.050 136.286  0.00  0.00    +0.000 A 
ATOM      9  C   UNL     1     109.486 128.040 136.227  0.00  0.00    +0.000 A 
ATOM     10  C   UNL     1     109.066 128.748 136.177  0.00  0.00    +0.000 A 
ATOM     11  C   UNL     1     110.341 126.566 136.331  0.00  0.00    +0.000 C 
ATOM     12  C   UNL     1     109.484 126.555 136.270  0.00  0.00    +0.000 C 
ATOM     13  C   UNL     1     109.053 127.297 136.218  0.00  0.00    +0.000 C 
ENDROOT
BRANCH   5  18
ATOM     14  O   UNL     1     111.896 128.766 137.094  0.00  0.00    +0.000 OA
ATOM     15  O   UNL     1     111.636 128.814 134.928  0.00  0.00    +0.000 OA
ATOM     16  O   UNL     1     113.282 128.834 135.045  0.00  0.00    +0.000 OA
ATOM     17  O   UNL     1     114.004 128.809 136.528  0.00  0.00    +0.000 OA
ATOM     18  C   UNL     1     111.535 128.778 136.353  0.00  0.00    +0.000 C 
ATOM     19  C   UNL     1     111.998 128.801 135.669  0.00  0.00    +0.000 C 
ATOM     20  C   UNL     1     112.820 128.811 135.728  0.00  0.00    +0.000 C 
ATOM     21  C   UNL     1     113.181 128.799 136.470  0.00  0.00    +0.000 C 
ATOM     22  C   UNL     1     112.719 128.776 137.153  0.00  0.00    +0.000 C 
BRANCH  22  24
ATOM     23  O   UNL     1     112.733 128.342 138.514  0.00  0.00    +0.000 OA
ATOM     24  C   UNL     1     113.080 128.763 137.895  0.00  0.00    +0.000 C 
ENDBRANCH  22  24
ENDBRANCH   5  18
BRANCH   6  29
ATOM     25  O   UNL     1     108.862 130.593 136.822  0.00  0.00    +0.000 OA
ATOM     26  O   UNL     1     109.013 130.054 134.712  0.00  0.00    +0.000 OA
ATOM     27  O   UNL     1     108.175 131.471 134.612  0.00  0.00    +0.000 OA
ATOM     28  O   UNL     1     107.795 132.302 135.985  0.00  0.00    +0.000 OA
ATOM     29  C   UNL     1     109.052 130.176 136.134  0.00  0.00    +0.000 C 
ATOM     30  C   UNL     1     108.823 130.469 135.398  0.00  0.00    +0.000 C 
ATOM     31  C   UNL     1     108.404 131.178 135.349  0.00  0.00    +0.000 C 
ATOM     32  C   UNL     1     108.214 131.594 136.034  0.00  0.00    +0.000 C 
ATOM     33  C   UNL     1     108.442 131.301 136.771  0.00  0.00    +0.000 C 
BRANCH  33  35
ATOM     34  O   UNL     1     108.174 131.314 138.175  0.00  0.00    +0.000 OA
ATOM     35  C   UNL     1     108.252 131.717 137.458  0.00  0.00    +0.000 C 
ENDBRANCH  33  35
ENDBRANCH   6  29
BRANCH  11  37
ATOM     36  O   UNL     1     112.025 123.735 136.533  0.00  0.00    +0.000 OA
ATOM     37  C   UNL     1     110.762 125.858 136.382  0.00  0.00    +0.000 A 
ATOM     38  C   UNL     1     110.992 125.567 137.119  0.00  0.00    +0.000 A 
ATOM     39  C   UNL     1     110.953 125.442 135.696  0.00  0.00    +0.000 A 
ATOM     40  C   UNL     1     111.413 124.859 137.168  0.00  0.00    +0.000 A 
ATOM     41  C   UNL     1     111.374 124.734 135.746  0.00  0.00    +0.000 A 
ATOM     42  C   UNL     1     111.604 124.442 136.482  0.00  0.00    +0.000 A 
ENDBRANCH  11  37
TORSDOF 5
ENDMDL
MODEL 5
REMARK VINA RESULT:     -10.2      3.034      5.148
REMARK  Name = 14427359
REMARK  5 active torsions:
REMARK  status: ('A' for Active; 'I' for Inactive)
REMARK    1  A    between atoms: C_16  and  C_21
REMARK    2  A    between atoms: C_17  and  C_26
REMARK    3  A    between atoms: C_24  and  C_32
REMARK    4  A    between atoms: C_27  and  C_33
REMARK    5  A    between atoms: C_34  and  C_37
REMARK                            x       y       z     vdW  Elec       q    Type
REMARK                         _______ _______ _______ _____ _____    ______ ____
ROOT
ATOM      1  O   UNL     1     110.981 126.778 136.940  0.00  0.00    +0.000 OA
ATOM      2  O   UNL     1     109.409 129.004 137.875  0.00  0.00    +0.000 OA
ATOM      3  O   UNL     1     110.160 128.875 135.121  0.00  0.00    +0.000 OA
ATOM      4  O   UNL     1     110.947 127.778 134.614  0.00  0.00    +0.000 OA
ATOM      5  C   UNL     1     110.188 127.906 137.398  0.00  0.00    +0.000 A 
ATOM      6  C   UNL     1     109.784 128.940 136.499  0.00  0.00    +0.000 A 
ATOM      7  C   UNL     1     109.794 128.617 137.258  0.00  0.00    +0.000 A 
ATOM      8  C   UNL     1     110.573 127.518 136.781  0.00  0.00    +0.000 A 
ATOM      9  C   UNL     1     110.564 127.841 136.022  0.00  0.00    +0.000 A 
ATOM     10  C   UNL     1     110.170 128.552 135.880  0.00  0.00    +0.000 A 
ATOM     11  C   UNL     1     111.383 126.370 136.301  0.00  0.00    +0.000 C 
ATOM     12  C   UNL     1     111.374 126.707 135.510  0.00  0.00    +0.000 C 
ATOM     13  C   UNL     1     110.961 127.447 135.370  0.00  0.00    +0.000 C 
ENDROOT
BRANCH   5  18
ATOM     14  O   UNL     1     109.652 126.999 138.365  0.00  0.00    +0.000 OA
ATOM     15  O   UNL     1     111.298 128.426 138.503  0.00  0.00    +0.000 OA
ATOM     16  O   UNL     1     111.316 127.780 140.021  0.00  0.00    +0.000 OA
ATOM     17  O   UNL     1     110.225 126.613 140.434  0.00  0.00    +0.000 OA
ATOM     18  C   UNL     1     110.198 127.583 138.157  0.00  0.00    +0.000 C 
ATOM     19  C   UNL     1     110.753 127.843 138.710  0.00  0.00    +0.000 C 
ATOM     20  C   UNL     1     110.762 127.520 139.469  0.00  0.00    +0.000 C 
ATOM     21  C   UNL     1     110.216 126.937 139.675  0.00  0.00    +0.000 C 
ATOM     22  C   UNL     1     109.662 126.676 139.124  0.00  0.00    +0.000 C 
BRANCH  22  24
ATOM     23  O   UNL     1     108.375 126.075 138.967  0.00  0.00    +0.000 OA
ATOM     24  C   UNL     1     109.116 126.093 139.330  0.00  0.00    +0.000 C 
ENDBRANCH  22  24
ENDBRANCH   5  18
BRANCH   6  29
ATOM     25  O   UNL     1     109.791 130.368 136.439  0.00  0.00    +0.000 OA
ATOM     26  O   UNL     1     108.196 128.929 136.053  0.00  0.00    +0.000 OA
ATOM     27  O   UNL     1     107.408 130.351 135.770  0.00  0.00    +0.000 OA
ATOM     28  O   UNL     1     108.210 131.783 135.933  0.00  0.00    +0.000 OA
ATOM     29  C   UNL     1     109.390 129.651 136.357  0.00  0.00    +0.000 C 
ATOM     30  C   UNL     1     108.596 129.645 136.135  0.00  0.00    +0.000 C 
ATOM     31  C   UNL     1     108.203 130.357 135.993  0.00  0.00    +0.000 C 
ATOM     32  C   UNL     1     108.603 131.073 136.074  0.00  0.00    +0.000 C 
ATOM     33  C   UNL     1     109.397 131.078 136.297  0.00  0.00    +0.000 C 
BRANCH  33  35
ATOM     34  O   UNL     1     110.571 131.803 136.669  0.00  0.00    +0.000 OA
ATOM     35  C   UNL     1     109.798 131.794 136.378  0.00  0.00    +0.000 C 
ENDBRANCH  33  35
ENDBRANCH   6  29
BRANCH  11  37
ATOM     36  O   UNL     1     112.959 123.528 136.876  0.00  0.00    +0.000 OA
ATOM     37  C   UNL     1     111.777 125.660 136.444  0.00  0.00    +0.000 A 
ATOM     38  C   UNL     1     111.377 124.943 136.364  0.00  0.00    +0.000 A 
ATOM     39  C   UNL     1     112.571 125.666 136.668  0.00  0.00    +0.000 A 
ATOM     40  C   UNL     1     111.771 124.232 136.508  0.00  0.00    +0.000 A 
ATOM     41  C   UNL     1     112.965 124.955 136.812  0.00  0.00    +0.000 A 
ATOM     42  C   UNL     1     112.565 124.238 136.732  0.00  0.00    +0.000 A 
ENDBRANCH  11  37
TORSDOF 5
ENDMDL
MODEL 6
REMARK VINA RESULT:     -10.2      2.716      5.852
REMARK  Name = 14427359
REMARK  5 active torsions:
REMARK  status: ('A' for Active; 'I' for Inactive)
REMARK    1  A    between atoms: C_16  and  C_21
REMARK    2  A    between atoms: C_17  and  C_26
REMARK    3  A    between atoms: C_24  and  C_32
REMARK    4  A    between atoms: C_27  and  C_33
REMARK    5  A    between atoms: C_34  and  C_37
REMARK                            x       y       z     vdW  Elec       q    Type
REMARK                         _______ _______ _______ _____ _____    ______ ____
ROOT
ATOM      1  O   UNL     1     110.185 129.580 136.217  0.00  0.00    +0.000 OA
ATOM      2  O   UNL     1     112.059 127.673 137.291  0.00  0.00    +0.000 OA
ATOM      3  O   UNL     1     109.373 126.855 136.758  0.00  0.00    +0.000 OA
ATOM      4  O   UNL     1     108.405 127.779 136.220  0.00  0.00    +0.000 OA
ATOM      5  C   UNL     1     111.120 128.609 136.758  0.00  0.00    +0.000 A 
ATOM      6  C   UNL     1     110.717 127.264 137.024  0.00  0.00    +0.000 A 
ATOM      7  C   UNL     1     111.299 127.848 137.025  0.00  0.00    +0.000 A 
ATOM      8  C   UNL     1     110.360 128.784 136.492  0.00  0.00    +0.000 A 
ATOM      9  C   UNL     1     109.777 128.200 136.492  0.00  0.00    +0.000 A 
ATOM     10  C   UNL     1     109.955 127.439 136.758  0.00  0.00    +0.000 A 
ATOM     11  C   UNL     1     109.395 129.769 135.939  0.00  0.00    +0.000 C 
ATOM     12  C   UNL     1     108.789 129.160 135.939  0.00  0.00    +0.000 C 
ATOM     13  C   UNL     1     108.981 128.370 136.217  0.00  0.00    +0.000 C 
ENDROOT
BRANCH   5  18
ATOM     14  O   UNL     1     111.757 129.721 137.390  0.00  0.00    +0.000 OA
ATOM     15  O   UNL     1     112.175 128.723 135.495  0.00  0.00    +0.000 OA
ATOM     16  O   UNL     1     113.339 129.892 135.496  0.00  0.00    +0.000 OA
ATOM     17  O   UNL     1     113.448 130.947 136.760  0.00  0.00    +0.000 OA
ATOM     18  C   UNL     1     111.702 129.193 136.759  0.00  0.00    +0.000 C 
ATOM     19  C   UNL     1     112.230 129.250 136.127  0.00  0.00    +0.000 C 
ATOM     20  C   UNL     1     112.812 129.835 136.127  0.00  0.00    +0.000 C 
ATOM     21  C   UNL     1     112.866 130.362 136.759  0.00  0.00    +0.000 C 
ATOM     22  C   UNL     1     112.339 130.305 137.391  0.00  0.00    +0.000 C 
BRANCH  22  24
ATOM     23  O   UNL     1     111.796 130.856 138.592  0.00  0.00    +0.000 OA
ATOM     24  C   UNL     1     112.393 130.833 138.023  0.00  0.00    +0.000 C 
ENDBRANCH  22  24
ENDBRANCH   5  18
BRANCH   6  29
ATOM     25  O   UNL     1     111.162 125.932 136.757  0.00  0.00    +0.000 OA
ATOM     26  O   UNL     1     110.541 126.884 138.620  0.00  0.00    +0.000 OA
ATOM     27  O   UNL     1     110.897 125.363 139.151  0.00  0.00    +0.000 OA
ATOM     28  O   UNL     1     111.430 124.222 138.086  0.00  0.00    +0.000 OA
ATOM     29  C   UNL     1     110.895 126.504 137.290  0.00  0.00    +0.000 C 
ATOM     30  C   UNL     1     110.807 126.314 138.088  0.00  0.00    +0.000 C 
ATOM     31  C   UNL     1     110.985 125.553 138.353  0.00  0.00    +0.000 C 
ATOM     32  C   UNL     1     111.251 124.982 137.821  0.00  0.00    +0.000 C 
ATOM     33  C   UNL     1     111.340 125.172 137.023  0.00  0.00    +0.000 C 
BRANCH  33  35
ATOM     34  O   UNL     1     111.286 124.567 135.730  0.00  0.00    +0.000 OA
ATOM     35  C   UNL     1     111.606 124.602 136.490  0.00  0.00    +0.000 C 
ENDBRANCH  33  35
ENDBRANCH   6  29
BRANCH  11  37
ATOM     36  O   UNL     1     108.691 132.813 134.877  0.00  0.00    +0.000 OA
ATOM     37  C   UNL     1     109.219 130.530 135.673  0.00  0.00    +0.000 A 
ATOM     38  C   UNL     1     109.318 130.722 134.877  0.00  0.00    +0.000 A 
ATOM     39  C   UNL     1     108.945 131.099 136.204  0.00  0.00    +0.000 A 
ATOM     40  C   UNL     1     109.142 131.484 134.612  0.00  0.00    +0.000 A 
ATOM     41  C   UNL     1     108.769 131.860 135.938  0.00  0.00    +0.000 A 
ATOM     42  C   UNL     1     108.867 132.052 135.143  0.00  0.00    +0.000 A 
ENDBRANCH  11  37
TORSDOF 5
ENDMDL
MODEL 7
REMARK VINA RESULT:     -10.1      2.162      4.176
REMARK  Name = 14427359
REMARK  5 active torsions:
REMARK  status: ('A' for Active; 'I' for Inactive)
REMARK    1  A    between atoms: C_16  and  C_21
REMARK    2  A    between atoms: C_17  and  C_26
REMARK    3  A    between atoms: C_24  and  C_32
REMARK    4  A    between atoms: C_27  and  C_33
REMARK    5  A    between atoms: C_34  and  C_37
REMARK                            x       y       z     vdW  Elec       q    Type
REMARK                         _______ _______ _______ _____ _____    ______ ____
ROOT
ATOM      1  O   UNL     1     112.144 128.213 137.586  0.00  0.00    +0.000 OA
ATOM      2  O   UNL     1     111.102 130.854 137.093  0.00  0.00    +0.000 OA
ATOM      3  O   UNL     1     109.296 128.720 137.688  0.00  0.00    +0.000 OA
ATOM      4  O   UNL     1     109.778 127.384 137.940  0.00  0.00    +0.000 OA
ATOM      5  C   UNL     1     111.605 129.539 137.340  0.00  0.00    +0.000 A 
ATOM      6  C   UNL     1     110.199 129.787 137.390  0.00  0.00    +0.000 A 
ATOM      7  C   UNL     1     110.969 130.061 137.274  0.00  0.00    +0.000 A 
ATOM      8  C   UNL     1     111.473 128.746 137.521  0.00  0.00    +0.000 A 
ATOM      9  C   UNL     1     110.703 128.473 137.637  0.00  0.00    +0.000 A 
ATOM     10  C   UNL     1     110.066 128.993 137.572  0.00  0.00    +0.000 A 
ATOM     11  C   UNL     1     112.012 127.386 137.774  0.00  0.00    +0.000 C 
ATOM     12  C   UNL     1     111.210 127.101 137.895  0.00  0.00    +0.000 C 
ATOM     13  C   UNL     1     110.551 127.648 137.826  0.00  0.00    +0.000 C 
ENDROOT
BRANCH   5  18
ATOM     14  O   UNL     1     112.834 130.041 137.870  0.00  0.00    +0.000 OA
ATOM     15  O   UNL     1     112.228 129.629 135.814  0.00  0.00    +0.000 OA
ATOM     16  O   UNL     1     113.767 130.176 135.582  0.00  0.00    +0.000 OA
ATOM     17  O   UNL     1     114.685 130.632 136.876  0.00  0.00    +0.000 OA
ATOM     18  C   UNL     1     112.375 129.812 137.224  0.00  0.00    +0.000 C 
ATOM     19  C   UNL     1     112.687 129.858 136.460  0.00  0.00    +0.000 C 
ATOM     20  C   UNL     1     113.457 130.131 136.344  0.00  0.00    +0.000 C 
ATOM     21  C   UNL     1     113.915 130.359 136.992  0.00  0.00    +0.000 C 
ATOM     22  C   UNL     1     113.604 130.314 137.754  0.00  0.00    +0.000 C 
BRANCH  22  24
ATOM     23  O   UNL     1     113.697 130.770 139.105  0.00  0.00    +0.000 OA
ATOM     24  C   UNL     1     114.062 130.542 138.401  0.00  0.00    +0.000 C 
ENDBRANCH  22  24
ENDBRANCH   5  18
BRANCH   6  29
ATOM     25  O   UNL     1     109.182 130.404 136.599  0.00  0.00    +0.000 OA
ATOM     26  O   UNL     1     109.685 130.633 138.711  0.00  0.00    +0.000 OA
ATOM     27  O   UNL     1     108.411 131.673 138.579  0.00  0.00    +0.000 OA
ATOM     28  O   UNL     1     107.651 131.867 137.128  0.00  0.00    +0.000 OA
ATOM     29  C   UNL     1     109.562 130.307 137.325  0.00  0.00    +0.000 C 
ATOM     30  C   UNL     1     109.305 130.730 137.985  0.00  0.00    +0.000 C 
ATOM     31  C   UNL     1     108.668 131.250 137.919  0.00  0.00    +0.000 C 
ATOM     32  C   UNL     1     108.288 131.347 137.194  0.00  0.00    +0.000 C 
ATOM     33  C   UNL     1     108.545 130.925 136.534  0.00  0.00    +0.000 C 
BRANCH  33  35
ATOM     34  O   UNL     1     108.492 130.691 135.125  0.00  0.00    +0.000 OA
ATOM     35  C   UNL     1     108.165 131.021 135.808  0.00  0.00    +0.000 C 
ENDBRANCH  33  35
ENDBRANCH   6  29
BRANCH  11  37
ATOM     36  O   UNL     1     114.566 125.312 138.033  0.00  0.00    +0.000 OA
ATOM     37  C   UNL     1     112.650 126.867 137.839  0.00  0.00    +0.000 A 
ATOM     38  C   UNL     1     112.933 126.476 137.170  0.00  0.00    +0.000 A 
ATOM     39  C   UNL     1     113.006 126.740 138.572  0.00  0.00    +0.000 A 
ATOM     40  C   UNL     1     113.572 125.958 137.235  0.00  0.00    +0.000 A 
ATOM     41  C   UNL     1     113.644 126.222 138.637  0.00  0.00    +0.000 A 
ATOM     42  C   UNL     1     113.928 125.830 137.969  0.00  0.00    +0.000 A 
ENDBRANCH  11  37
TORSDOF 5
ENDMDL
MODEL 8
REMARK VINA RESULT:     -10.1      1.855      2.724
REMARK  Name = 14427359
REMARK  5 active torsions:
REMARK  status: ('A' for Active; 'I' for Inactive)
REMARK    1  A    between atoms: C_16  and  C_21
REMARK    2  A    between atoms: C_17  and  C_26
REMARK    3  A    between atoms: C_24  and  C_32
REMARK    4  A    between atoms: C_27  and  C_33
REMARK    5  A    between atoms: C_34  and  C_37
REMARK                            x       y       z     vdW  Elec       q    Type
REMARK                         _______ _______ _______ _____ _____    ______ ____
ROOT
ATOM      1  O   UNL     1     112.504 127.332 138.136  0.00  0.00    +0.000 OA
ATOM      2  O   UNL     1     111.213 129.908 138.143  0.00  0.00    +0.000 OA
ATOM      3  O   UNL     1     110.698 128.073 140.274  0.00  0.00    +0.000 OA
ATOM      4  O   UNL     1     111.325 126.775 140.307  0.00  0.00    +0.000 OA
ATOM      5  C   UNL     1     111.847 128.627 138.152  0.00  0.00    +0.000 A 
ATOM      6  C   UNL     1     110.956 128.991 139.208  0.00  0.00    +0.000 A 
ATOM      7  C   UNL     1     111.339 129.176 138.501  0.00  0.00    +0.000 A 
ATOM      8  C   UNL     1     111.972 127.895 138.510  0.00  0.00    +0.000 A 
ATOM      9  C   UNL     1     111.589 127.710 139.217  0.00  0.00    +0.000 A 
ATOM     10  C   UNL     1     111.081 128.258 139.566  0.00  0.00    +0.000 A 
ATOM     11  C   UNL     1     112.638 126.568 138.504  0.00  0.00    +0.000 C 
ATOM     12  C   UNL     1     112.240 126.375 139.241  0.00  0.00    +0.000 C 
ATOM     13  C   UNL     1     111.712 126.950 139.599  0.00  0.00    +0.000 C 
ENDROOT
BRANCH   5  18
ATOM     14  O   UNL     1     111.909 128.566 136.726  0.00  0.00    +0.000 OA
ATOM     15  O   UNL     1     113.255 129.487 138.176  0.00  0.00    +0.000 OA
ATOM     16  O   UNL     1     114.020 129.856 136.762  0.00  0.00    +0.000 OA
ATOM     17  O   UNL     1     113.378 129.365 135.324  0.00  0.00    +0.000 OA
ATOM     18  C   UNL     1     112.230 128.811 137.445  0.00  0.00    +0.000 C 
ATOM     19  C   UNL     1     112.934 129.242 137.457  0.00  0.00    +0.000 C 
ATOM     20  C   UNL     1     113.317 129.426 136.750  0.00  0.00    +0.000 C 
ATOM     21  C   UNL     1     112.995 129.180 136.031  0.00  0.00    +0.000 C 
ATOM     22  C   UNL     1     112.292 128.751 136.019  0.00  0.00    +0.000 C 
BRANCH  22  24
ATOM     23  O   UNL     1     111.193 128.230 135.269  0.00  0.00    +0.000 OA
ATOM     24  C   UNL     1     111.970 128.505 135.300  0.00  0.00    +0.000 C 
ENDBRANCH  22  24
ENDBRANCH   5  18
BRANCH   6  29
ATOM     25  O   UNL     1     110.737 130.069 140.120  0.00  0.00    +0.000 OA
ATOM     26  O   UNL     1     109.362 129.027 138.784  0.00  0.00    +0.000 OA
ATOM     27  O   UNL     1     108.346 130.123 139.484  0.00  0.00    +0.000 OA
ATOM     28  O   UNL     1     108.925 131.182 140.608  0.00  0.00    +0.000 OA
ATOM     29  C   UNL     1     110.448 129.539 139.558  0.00  0.00    +0.000 C 
ATOM     30  C   UNL     1     109.650 129.557 139.346  0.00  0.00    +0.000 C 
ATOM     31  C   UNL     1     109.143 130.105 139.696  0.00  0.00    +0.000 C 
ATOM     32  C   UNL     1     109.432 130.635 140.258  0.00  0.00    +0.000 C 
ATOM     33  C   UNL     1     110.229 130.617 140.470  0.00  0.00    +0.000 C 
BRANCH  33  35
ATOM     34  O   UNL     1     111.331 131.286 141.087  0.00  0.00    +0.000 OA
ATOM     35  C   UNL     1     110.519 131.147 141.032  0.00  0.00    +0.000 C 
ENDBRANCH  33  35
ENDBRANCH   6  29
BRANCH  11  37
ATOM     36  O   UNL     1     114.674 124.382 137.099  0.00  0.00    +0.000 OA
ATOM     37  C   UNL     1     113.147 126.021 138.153  0.00  0.00    +0.000 A 
ATOM     38  C   UNL     1     112.856 125.483 137.600  0.00  0.00    +0.000 A 
ATOM     39  C   UNL     1     113.947 126.013 138.355  0.00  0.00    +0.000 A 
ATOM     40  C   UNL     1     113.366 124.937 137.249  0.00  0.00    +0.000 A 
ATOM     41  C   UNL     1     114.456 125.467 138.004  0.00  0.00    +0.000 A 
ATOM     42  C   UNL     1     114.165 124.929 137.451  0.00  0.00    +0.000 A 
ENDBRANCH  11  37
TORSDOF 5
ENDMDL
MODEL 9
REMARK VINA RESULT:     -10.0      2.390      5.927
REMARK  Name = 14427359
REMARK  5 active torsions:
REMARK  status: ('A' for Active; 'I' for Inactive)
REMARK    1  A    between atoms: C_16  and  C_21
REMARK    2  A    between atoms: C_17  and  C_26
REMARK    3  A    between atoms: C_24  and  C_32
REMARK    4  A    between atoms: C_27  and  C_33
REMARK    5  A    between atoms: C_34  and  C_37
REMARK                            x       y       z     vdW  Elec       q    Type
REMARK                         _______ _______ _______ _____ _____    ______ ____
ROOT
ATOM      1  O   UNL     1     110.561 128.628 136.122  0.00  0.00    +0.000 OA
ATOM      2  O   UNL     1     112.314 126.956 137.681  0.00  0.00    +0.000 OA
ATOM      3  O   UNL     1     110.964 125.849 135.418  0.00  0.00    +0.000 OA
ATOM      4  O   UNL     1     110.078 126.653 134.612  0.00  0.00    +0.000 OA
ATOM      5  C   UNL     1     111.441 127.774 136.899  0.00  0.00    +0.000 A 
ATOM      6  C   UNL     1     111.639 126.403 136.550  0.00  0.00    +0.000 A 
ATOM      7  C   UNL     1     111.798 127.044 137.044  0.00  0.00    +0.000 A 
ATOM      8  C   UNL     1     110.926 127.862 136.262  0.00  0.00    +0.000 A 
ATOM      9  C   UNL     1     110.767 127.221 135.768  0.00  0.00    +0.000 A 
ATOM     10  C   UNL     1     111.123 126.491 135.912  0.00  0.00    +0.000 A 
ATOM     11  C   UNL     1     110.023 128.726 135.459  0.00  0.00    +0.000 C 
ATOM     12  C   UNL     1     109.857 128.058 134.945  0.00  0.00    +0.000 C 
ATOM     13  C   UNL     1     110.231 127.300 135.100  0.00  0.00    +0.000 C 
ENDROOT
BRANCH   5  18
ATOM     14  O   UNL     1     111.093 128.591 138.018  0.00  0.00    +0.000 OA
ATOM     15  O   UNL     1     112.776 128.707 136.634  0.00  0.00    +0.000 OA
ATOM     16  O   UNL     1     113.095 129.990 137.621  0.00  0.00    +0.000 OA
ATOM     17  O   UNL     1     112.078 130.340 138.873  0.00  0.00    +0.000 OA
ATOM     18  C   UNL     1     111.601 128.416 137.392  0.00  0.00    +0.000 C 
ATOM     19  C   UNL     1     112.269 128.883 137.260  0.00  0.00    +0.000 C 
ATOM     20  C   UNL     1     112.428 129.524 137.754  0.00  0.00    +0.000 C 
ATOM     21  C   UNL     1     111.919 129.699 138.380  0.00  0.00    +0.000 C 
ATOM     22  C   UNL     1     111.252 129.233 138.512  0.00  0.00    +0.000 C 
BRANCH  22  24
ATOM     23  O   UNL     1     110.000 129.053 139.175  0.00  0.00    +0.000 OA
ATOM     24  C   UNL     1     110.744 129.407 139.138  0.00  0.00    +0.000 C 
ENDBRANCH  22  24
ENDBRANCH   5  18
BRANCH   6  29
ATOM     25  O   UNL     1     112.733 125.502 136.364  0.00  0.00    +0.000 OA
ATOM     26  O   UNL     1     110.879 125.284 137.495  0.00  0.00    +0.000 OA
ATOM     27  O   UNL     1     111.592 123.824 137.781  0.00  0.00    +0.000 OA
ATOM     28  O   UNL     1     113.066 123.483 137.123  0.00  0.00    +0.000 OA
ATOM     29  C   UNL     1     111.995 125.673 136.694  0.00  0.00    +0.000 C 
ATOM     30  C   UNL     1     111.615 125.113 137.166  0.00  0.00    +0.000 C 
ATOM     31  C   UNL     1     111.973 124.383 137.309  0.00  0.00    +0.000 C 
ATOM     32  C   UNL     1     112.709 124.213 136.980  0.00  0.00    +0.000 C 
ATOM     33  C   UNL     1     113.089 124.772 136.508  0.00  0.00    +0.000 C 
BRANCH  33  35
ATOM     34  O   UNL     1     114.445 125.144 136.251  0.00  0.00    +0.000 OA
ATOM     35  C   UNL     1     113.826 124.602 136.178  0.00  0.00    +0.000 C 
ENDBRANCH  33  35
ENDBRANCH   6  29
BRANCH  11  37
ATOM     36  O   UNL     1     108.602 131.650 134.891  0.00  0.00    +0.000 OA
ATOM     37  C   UNL     1     109.667 129.457 135.317  0.00  0.00    +0.000 A 
ATOM     38  C   UNL     1     108.984 129.670 135.728  0.00  0.00    +0.000 A 
ATOM     39  C   UNL     1     109.995 129.974 134.765  0.00  0.00    +0.000 A 
ATOM     40  C   UNL     1     108.630 130.402 135.586  0.00  0.00    +0.000 A 
ATOM     41  C   UNL     1     109.640 130.705 134.623  0.00  0.00    +0.000 A 
ATOM     42  C   UNL     1     108.957 130.919 135.033  0.00  0.00    +0.000 A 
ENDBRANCH  11  37
TORSDOF 5
ENDMDL
MODEL 10
REMARK VINA RESULT:     -10.0      2.450      4.178
REMARK  Name = 14427359
REMARK  5 active torsions:
REMARK  status: ('A' for Active; 'I' for Inactive)
REMARK    1  A    between atoms: C_16  and  C_21
REMARK    2  A    between atoms: C_17  and  C_26
REMARK    3  A    between atoms: C_24  and  C_32
REMARK    4  A    between atoms: C_27  and  C_33
REMARK    5  A    between atoms: C_34  and  C_37
REMARK                            x       y       z     vdW  Elec       q    Type
REMARK                         _______ _______ _______ _____ _____    ______ ____
ROOT
ATOM      1  O   UNL     1     112.201 128.043 137.311  0.00  0.00    +0.000 OA
ATOM      2  O   UNL     1     111.179 130.640 136.592  0.00  0.00    +0.000 OA
ATOM      3  O   UNL     1     109.361 128.592 137.410  0.00  0.00    +0.000 OA
ATOM      4  O   UNL     1     109.832 127.280 137.777  0.00  0.00    +0.000 OA
ATOM      5  C   UNL     1     111.673 129.348 136.952  0.00  0.00    +0.000 A 
ATOM      6  C   UNL     1     110.270 129.617 137.001  0.00  0.00    +0.000 A 
ATOM      7  C   UNL     1     111.041 129.868 136.848  0.00  0.00    +0.000 A 
ATOM      8  C   UNL     1     111.534 128.576 137.207  0.00  0.00    +0.000 A 
ATOM      9  C   UNL     1     110.763 128.324 137.360  0.00  0.00    +0.000 A 
ATOM     10  C   UNL     1     110.131 128.844 137.257  0.00  0.00    +0.000 A 
ATOM     11  C   UNL     1     112.063 127.239 137.578  0.00  0.00    +0.000 C 
ATOM     12  C   UNL     1     111.260 126.976 137.737  0.00  0.00    +0.000 C 
ATOM     13  C   UNL     1     110.606 127.523 137.627  0.00  0.00    +0.000 C 
ENDROOT
BRANCH   5  18
ATOM     14  O   UNL     1     112.788 129.453 136.064  0.00  0.00    +0.000 OA
ATOM     15  O   UNL     1     112.526 130.145 138.117  0.00  0.00    +0.000 OA
ATOM     16  O   UNL     1     114.067 130.649 137.812  0.00  0.00    +0.000 OA
ATOM     17  O   UNL     1     114.755 130.355 136.341  0.00  0.00    +0.000 OA
ATOM     18  C   UNL     1     112.443 129.599 136.799  0.00  0.00    +0.000 C 
ATOM     19  C   UNL     1     112.870 129.998 137.382  0.00  0.00    +0.000 C 
ATOM     20  C   UNL     1     113.641 130.250 137.229  0.00  0.00    +0.000 C 
ATOM     21  C   UNL     1     113.985 130.103 136.494  0.00  0.00    +0.000 C 
ATOM     22  C   UNL     1     113.558 129.704 135.911  0.00  0.00    +0.000 C 
BRANCH  22  24
ATOM     23  O   UNL     1     113.494 129.113 134.612  0.00  0.00    +0.000 OA
ATOM     24  C   UNL     1     113.902 129.557 135.176  0.00  0.00    +0.000 C 
ENDBRANCH  22  24
ENDBRANCH   5  18
BRANCH   6  29
ATOM     25  O   UNL     1     109.414 130.640 137.513  0.00  0.00    +0.000 OA
ATOM     26  O   UNL     1     109.454 129.651 135.567  0.00  0.00    +0.000 OA
ATOM     27  O   UNL     1     108.189 130.690 135.362  0.00  0.00    +0.000 OA
ATOM     28  O   UNL     1     107.742 131.696 136.591  0.00  0.00    +0.000 OA
ATOM     29  C   UNL     1     109.638 130.136 136.898  0.00  0.00    +0.000 C 
ATOM     30  C   UNL     1     109.230 130.153 136.181  0.00  0.00    +0.000 C 
ATOM     31  C   UNL     1     108.598 130.673 136.079  0.00  0.00    +0.000 C 
ATOM     32  C   UNL     1     108.373 131.176 136.693  0.00  0.00    +0.000 C 
ATOM     33  C   UNL     1     108.781 131.159 137.410  0.00  0.00    +0.000 C 
BRANCH  33  35
ATOM     34  O   UNL     1     108.475 131.365 138.790  0.00  0.00    +0.000 OA
ATOM     35  C   UNL     1     108.558 131.662 138.024  0.00  0.00    +0.000 C 
ENDBRANCH  33  35
ENDBRANCH   6  29
BRANCH  11  37
ATOM     36  O   UNL     1     114.598 125.166 137.987  0.00  0.00    +0.000 OA
ATOM     37  C   UNL     1     112.696 126.720 137.680  0.00  0.00    +0.000 A 
ATOM     38  C   UNL     1     113.052 126.645 138.421  0.00  0.00    +0.000 A 
ATOM     39  C   UNL     1     112.974 126.277 137.042  0.00  0.00    +0.000 A 
ATOM     40  C   UNL     1     113.686 126.127 138.522  0.00  0.00    +0.000 A 
ATOM     41  C   UNL     1     113.608 125.759 137.144  0.00  0.00    +0.000 A 
ATOM     42  C   UNL     1     113.964 125.684 137.884  0.00  0.00    +0.000 A 
ENDBRANCH  11  37
TORSDOF 5
ENDMDL
