MODEL 1
REMARK VINA RESULT:      -9.9      0.000      0.000
REMARK  Name = 44257075
REMARK  8 active torsions:
REMARK  status: ('A' for Active; 'I' for Inactive)
REMARK    1  A    between atoms: O_2  and  C_15
REMARK    2  A    between atoms: O_2  and  C_18
REMARK    3  A    between atoms: O_3  and  C_13
REMARK    4  A    between atoms: O_3  and  C_29
REMARK    5  A    between atoms: C_17  and  C_21
REMARK    6  A    between atoms: C_19  and  C_23
REMARK    7  A    between atoms: C_29  and  C_35
REMARK    8  A    between atoms: C_36  and  C_37
REMARK                            x       y       z     vdW  Elec       q    Type
REMARK                         _______ _______ _______ _____ _____    ______ ____
ROOT
ATOM      1  O   UNL     1     106.142 127.927 144.510  0.00  0.00    +0.000 OA
ENDROOT
BRANCH   1   5
ATOM      2  O   UNL     1     106.866 127.061 146.378  0.00  0.00    +0.000 OA
ATOM      3  O   UNL     1     105.119 125.168 145.069  0.00  0.00    +0.000 OA
ATOM      4  O   UNL     1     106.355 124.479 147.624  0.00  0.00    +0.000 OA
ATOM      5  C   UNL     1     106.259 127.393 145.128  0.00  0.00    +0.000 C 
ATOM      6  C   UNL     1     106.749 127.595 145.760  0.00  0.00    +0.000 C 
ATOM      7  C   UNL     1     105.886 126.658 145.113  0.00  0.00    +0.000 C 
ATOM      8  C   UNL     1     106.002 126.124 145.731  0.00  0.00    +0.000 A 
ATOM      9  C   UNL     1     106.493 126.325 146.364  0.00  0.00    +0.000 A 
ATOM     10  C   UNL     1     105.608 125.361 145.706  0.00  0.00    +0.000 A 
ATOM     11  C   UNL     1     106.623 125.779 147.014  0.00  0.00    +0.000 A 
ATOM     12  C   UNL     1     105.726 124.801 146.346  0.00  0.00    +0.000 A 
ATOM     13  C   UNL     1     106.236 125.011 147.005  0.00  0.00    +0.000 A 
BRANCH   6  16
ATOM     14  O   UNL     1     109.072 129.200 145.317  0.00  0.00    +0.000 OA
ATOM     15  O   UNL     1     108.244 130.537 145.817  0.00  0.00    +0.000 OA
ATOM     16  C   UNL     1     107.123 128.330 145.774  0.00  0.00    +0.000 A 
ATOM     17  C   UNL     1     107.911 128.397 145.538  0.00  0.00    +0.000 A 
ATOM     18  C   UNL     1     106.709 128.999 146.024  0.00  0.00    +0.000 A 
ATOM     19  C   UNL     1     108.285 129.133 145.552  0.00  0.00    +0.000 A 
ATOM     20  C   UNL     1     107.082 129.734 146.038  0.00  0.00    +0.000 A 
ATOM     21  C   UNL     1     107.870 129.801 145.802  0.00  0.00    +0.000 A 
ENDBRANCH   6  16
ENDBRANCH   1   5
BRANCH   1  27
ATOM     22  O   UNL     1     106.648 127.179 143.402  0.00  0.00    +0.000 OA
ATOM     23  O   UNL     1     104.803 128.322 143.630  0.00  0.00    +0.000 OA
ATOM     24  O   UNL     1     105.815 126.826 141.417  0.00  0.00    +0.000 OA
ATOM     25  C   UNL     1     105.309 127.574 142.523  0.00  0.00    +0.000 C 
ATOM     26  C   UNL     1     105.390 127.850 143.297  0.00  0.00    +0.000 C 
ATOM     27  C   UNL     1     106.060 127.652 143.736  0.00  0.00    +0.000 C 
ATOM     28  C   UNL     1     105.896 127.101 142.190  0.00  0.00    +0.000 C 
ATOM     29  C   UNL     1     106.566 126.904 142.629  0.00  0.00    +0.000 C 
BRANCH  29  31
ATOM     30  O   UNL     1     107.948 126.586 142.458  0.00  0.00    +0.000 OA
ATOM     31  C   UNL     1     107.154 126.431 142.296  0.00  0.00    +0.000 C 
ENDBRANCH  29  31
BRANCH  25  32
ATOM     32  O   UNL     1     104.639 127.772 142.084  0.00  0.00    +0.000 OA
BRANCH  32  34
ATOM     33  O   UNL     1     105.243 128.783 141.276  0.00  0.00    +0.000 OA
ATOM     34  C   UNL     1     104.596 128.502 141.704  0.00  0.00    +0.000 C 
BRANCH  34  35
ATOM     35  C   UNL     1     103.906 128.952 141.751  0.00  0.00    +0.000 C 
ATOM     36  C   UNL     1     103.685 129.435 141.121  0.00  0.00    +0.000 C 
BRANCH  36  37
ATOM     37  C   UNL     1     102.995 129.885 141.168  0.00  0.00    +0.000 A 
ATOM     38  C   UNL     1     102.922 130.470 141.745  0.00  0.00    +0.000 A 
ATOM     39  C   UNL     1     102.377 129.750 140.637  0.00  0.00    +0.000 A 
ATOM     40  C   UNL     1     102.231 130.919 141.792  0.00  0.00    +0.000 A 
ATOM     41  C   UNL     1     101.687 130.199 140.685  0.00  0.00    +0.000 A 
ATOM     42  C   UNL     1     101.615 130.784 141.262  0.00  0.00    +0.000 A 
ENDBRANCH  36  37
ENDBRANCH  34  35
ENDBRANCH  32  34
ENDBRANCH  25  32
ENDBRANCH   1  27
TORSDOF 8
ENDMDL
MODEL 2
REMARK VINA RESULT:      -9.9      2.415      6.527
REMARK  Name = 44257075
REMARK  8 active torsions:
REMARK  status: ('A' for Active; 'I' for Inactive)
REMARK    1  A    between atoms: O_2  and  C_15
REMARK    2  A    between atoms: O_2  and  C_18
REMARK    3  A    between atoms: O_3  and  C_13
REMARK    4  A    between atoms: O_3  and  C_29
REMARK    5  A    between atoms: C_17  and  C_21
REMARK    6  A    between atoms: C_19  and  C_23
REMARK    7  A    between atoms: C_29  and  C_35
REMARK    8  A    between atoms: C_36  and  C_37
REMARK                            x       y       z     vdW  Elec       q    Type
REMARK                         _______ _______ _______ _____ _____    ______ ____
ROOT
ATOM      1  O   UNL     1     106.370 125.226 141.914  0.00  0.00    +0.000 OA
ENDROOT
BRANCH   1   5
ATOM      2  O   UNL     1     107.644 125.242 140.143  0.00  0.00    +0.000 OA
ATOM      3  O   UNL     1     108.850 126.883 142.194  0.00  0.00    +0.000 OA
ATOM      4  O   UNL     1     110.178 126.578 139.610  0.00  0.00    +0.000 OA
ATOM      5  C   UNL     1     106.999 125.395 141.408  0.00  0.00    +0.000 C 
ATOM      6  C   UNL     1     107.015 125.073 140.649  0.00  0.00    +0.000 C 
ATOM      7  C   UNL     1     107.612 125.885 141.662  0.00  0.00    +0.000 C 
ATOM      8  C   UNL     1     108.241 126.054 141.156  0.00  0.00    +0.000 A 
ATOM      9  C   UNL     1     108.258 125.733 140.397  0.00  0.00    +0.000 A 
ATOM     10  C   UNL     1     108.874 126.566 141.432  0.00  0.00    +0.000 A 
ATOM     11  C   UNL     1     108.908 125.901 139.860  0.00  0.00    +0.000 A 
ATOM     12  C   UNL     1     109.532 126.746 140.910  0.00  0.00    +0.000 A 
ATOM     13  C   UNL     1     109.550 126.411 140.118  0.00  0.00    +0.000 A 
BRANCH   6  16
ATOM     14  O   UNL     1     104.609 124.691 139.154  0.00  0.00    +0.000 OA
ATOM     15  O   UNL     1     104.563 123.112 139.633  0.00  0.00    +0.000 OA
ATOM     16  C   UNL     1     106.403 124.583 140.395  0.00  0.00    +0.000 A 
ATOM     17  C   UNL     1     105.813 124.882 139.902  0.00  0.00    +0.000 A 
ATOM     18  C   UNL     1     106.379 123.794 140.634  0.00  0.00    +0.000 A 
ATOM     19  C   UNL     1     105.199 124.392 139.647  0.00  0.00    +0.000 A 
ATOM     20  C   UNL     1     105.766 123.304 140.380  0.00  0.00    +0.000 A 
ATOM     21  C   UNL     1     105.176 123.603 139.887  0.00  0.00    +0.000 A 
ENDBRANCH   6  16
ENDBRANCH   1   5
BRANCH   1  27
ATOM     22  O   UNL     1     105.847 126.541 142.118  0.00  0.00    +0.000 OA
ATOM     23  O   UNL     1     106.253 124.929 143.533  0.00  0.00    +0.000 OA
ATOM     24  O   UNL     1     105.208 127.557 143.940  0.00  0.00    +0.000 OA
ATOM     25  C   UNL     1     105.731 126.244 143.737  0.00  0.00    +0.000 C 
ATOM     26  C   UNL     1     106.021 125.660 143.231  0.00  0.00    +0.000 C 
ATOM     27  C   UNL     1     106.079 125.809 142.421  0.00  0.00    +0.000 C 
ATOM     28  C   UNL     1     105.499 126.975 143.434  0.00  0.00    +0.000 C 
ATOM     29  C   UNL     1     105.557 127.123 142.625  0.00  0.00    +0.000 C 
BRANCH  29  31
ATOM     30  O   UNL     1     104.969 127.897 141.577  0.00  0.00    +0.000 OA
ATOM     31  C   UNL     1     105.325 127.854 142.321  0.00  0.00    +0.000 C 
ENDBRANCH  29  31
BRANCH  25  32
ATOM     32  O   UNL     1     105.672 126.095 144.546  0.00  0.00    +0.000 OA
BRANCH  32  34
ATOM     33  O   UNL     1     106.944 126.681 144.828  0.00  0.00    +0.000 OA
ATOM     34  C   UNL     1     106.341 126.155 145.026  0.00  0.00    +0.000 C 
BRANCH  34  35
ATOM     35  C   UNL     1     106.406 125.688 145.703  0.00  0.00    +0.000 C 
ATOM     36  C   UNL     1     106.724 126.006 146.394  0.00  0.00    +0.000 C 
BRANCH  36  37
ATOM     37  C   UNL     1     106.789 125.539 147.071  0.00  0.00    +0.000 A 
ATOM     38  C   UNL     1     107.523 125.439 147.435  0.00  0.00    +0.000 A 
ATOM     39  C   UNL     1     106.120 125.172 147.385  0.00  0.00    +0.000 A 
ATOM     40  C   UNL     1     107.588 124.972 148.112  0.00  0.00    +0.000 A 
ATOM     41  C   UNL     1     106.185 124.706 148.062  0.00  0.00    +0.000 A 
ATOM     42  C   UNL     1     106.919 124.606 148.425  0.00  0.00    +0.000 A 
ENDBRANCH  36  37
ENDBRANCH  34  35
ENDBRANCH  32  34
ENDBRANCH  25  32
ENDBRANCH   1  27
TORSDOF 8
ENDMDL
MODEL 3
REMARK VINA RESULT:      -9.8      9.353     10.661
REMARK  Name = 44257075
REMARK  8 active torsions:
REMARK  status: ('A' for Active; 'I' for Inactive)
REMARK    1  A    between atoms: O_2  and  C_15
REMARK    2  A    between atoms: O_2  and  C_18
REMARK    3  A    between atoms: O_3  and  C_13
REMARK    4  A    between atoms: O_3  and  C_29
REMARK    5  A    between atoms: C_17  and  C_21
REMARK    6  A    between atoms: C_19  and  C_23
REMARK    7  A    between atoms: C_29  and  C_35
REMARK    8  A    between atoms: C_36  and  C_37
REMARK                            x       y       z     vdW  Elec       q    Type
REMARK                         _______ _______ _______ _____ _____    ______ ____
ROOT
ATOM      1  O   UNL     1     113.029 127.406 136.982  0.00  0.00    +0.000 OA
ENDROOT
BRANCH   1   5
ATOM      2  O   UNL     1     111.998 125.710 136.076  0.00  0.00    +0.000 OA
ATOM      3  O   UNL     1     110.443 128.106 135.641  0.00  0.00    +0.000 OA
ATOM      4  O   UNL     1     109.485 125.546 134.613  0.00  0.00    +0.000 OA
ATOM      5  C   UNL     1     112.462 126.965 136.577  0.00  0.00    +0.000 C 
ATOM      6  C   UNL     1     112.565 126.151 136.482  0.00  0.00    +0.000 C 
ATOM      7  C   UNL     1     111.795 127.336 136.266  0.00  0.00    +0.000 C 
ATOM      8  C   UNL     1     111.229 126.894 135.860  0.00  0.00    +0.000 A 
ATOM      9  C   UNL     1     111.330 126.081 135.765  0.00  0.00    +0.000 A 
ATOM     10  C   UNL     1     110.537 127.292 135.541  0.00  0.00    +0.000 A 
ATOM     11  C   UNL     1     110.748 125.609 135.344  0.00  0.00    +0.000 A 
ATOM     12  C   UNL     1     109.944 126.837 135.118  0.00  0.00    +0.000 A 
ATOM     13  C   UNL     1     110.049 125.990 135.018  0.00  0.00    +0.000 A 
BRANCH   6  16
ATOM     14  O   UNL     1     115.168 125.031 136.116  0.00  0.00    +0.000 OA
ATOM     15  O   UNL     1     115.237 124.665 137.723  0.00  0.00    +0.000 OA
ATOM     16  C   UNL     1     113.232 125.780 136.792  0.00  0.00    +0.000 A 
ATOM     17  C   UNL     1     113.866 125.591 136.299  0.00  0.00    +0.000 A 
ATOM     18  C   UNL     1     113.267 125.597 137.596  0.00  0.00    +0.000 A 
ATOM     19  C   UNL     1     114.535 125.220 136.609  0.00  0.00    +0.000 A 
ATOM     20  C   UNL     1     113.935 125.226 137.906  0.00  0.00    +0.000 A 
ATOM     21  C   UNL     1     114.568 125.037 137.413  0.00  0.00    +0.000 A 
ENDBRANCH   6  16
ENDBRANCH   1   5
BRANCH   1  27
ATOM     22  O   UNL     1     113.520 128.320 135.999  0.00  0.00    +0.000 OA
ATOM     23  O   UNL     1     112.722 128.667 138.001  0.00  0.00    +0.000 OA
ATOM     24  O   UNL     1     113.703 130.494 136.036  0.00  0.00    +0.000 OA
ATOM     25  C   UNL     1     113.213 129.581 137.018  0.00  0.00    +0.000 C 
ATOM     26  C   UNL     1     113.044 128.809 137.256  0.00  0.00    +0.000 C 
ATOM     27  C   UNL     1     113.197 128.179 136.746  0.00  0.00    +0.000 C 
ATOM     28  C   UNL     1     113.535 129.723 136.273  0.00  0.00    +0.000 C 
ATOM     29  C   UNL     1     113.688 129.092 135.763  0.00  0.00    +0.000 C 
BRANCH  29  31
ATOM     30  O   UNL     1     114.630 128.764 134.740  0.00  0.00    +0.000 OA
ATOM     31  C   UNL     1     114.010 129.233 135.017  0.00  0.00    +0.000 C 
ENDBRANCH  29  31
BRANCH  25  32
ATOM     32  O   UNL     1     113.060 130.212 137.528  0.00  0.00    +0.000 OA
BRANCH  32  34
ATOM     33  O   UNL     1     111.922 130.037 138.373  0.00  0.00    +0.000 OA
ATOM     34  C   UNL     1     112.282 130.402 137.727  0.00  0.00    +0.000 C 
BRANCH  34  35
ATOM     35  C   UNL     1     111.866 130.957 137.281  0.00  0.00    +0.000 C 
ATOM     36  C   UNL     1     111.227 131.358 137.614  0.00  0.00    +0.000 C 
BRANCH  36  37
ATOM     37  C   UNL     1     110.811 131.913 137.168  0.00  0.00    +0.000 A 
ATOM     38  C   UNL     1     110.241 131.664 136.626  0.00  0.00    +0.000 A 
ATOM     39  C   UNL     1     110.964 132.719 137.264  0.00  0.00    +0.000 A 
ATOM     40  C   UNL     1     109.825 132.219 136.180  0.00  0.00    +0.000 A 
ATOM     41  C   UNL     1     110.547 133.274 136.818  0.00  0.00    +0.000 A 
ATOM     42  C   UNL     1     109.978 133.024 136.276  0.00  0.00    +0.000 A 
ENDBRANCH  36  37
ENDBRANCH  34  35
ENDBRANCH  32  34
ENDBRANCH  25  32
ENDBRANCH   1  27
TORSDOF 8
ENDMDL
MODEL 4
REMARK VINA RESULT:      -9.8      1.952      3.741
REMARK  Name = 44257075
REMARK  8 active torsions:
REMARK  status: ('A' for Active; 'I' for Inactive)
REMARK    1  A    between atoms: O_2  and  C_15
REMARK    2  A    between atoms: O_2  and  C_18
REMARK    3  A    between atoms: O_3  and  C_13
REMARK    4  A    between atoms: O_3  and  C_29
REMARK    5  A    between atoms: C_17  and  C_21
REMARK    6  A    between atoms: C_19  and  C_23
REMARK    7  A    between atoms: C_29  and  C_35
REMARK    8  A    between atoms: C_36  and  C_37
REMARK                            x       y       z     vdW  Elec       q    Type
REMARK                         _______ _______ _______ _____ _____    ______ ____
ROOT
ATOM      1  O   UNL     1     105.008 125.839 145.960  0.00  0.00    +0.000 OA
ENDROOT
BRANCH   1   5
ATOM      2  O   UNL     1     105.576 124.586 147.654  0.00  0.00    +0.000 OA
ATOM      3  O   UNL     1     107.829 126.227 146.890  0.00  0.00    +0.000 OA
ATOM      4  O   UNL     1     108.081 124.362 149.124  0.00  0.00    +0.000 OA
ATOM      5  C   UNL     1     105.458 125.500 146.562  0.00  0.00    +0.000 C 
ATOM      6  C   UNL     1     105.126 124.925 147.051  0.00  0.00    +0.000 C 
ATOM      7  C   UNL     1     106.240 125.736 146.674  0.00  0.00    +0.000 C 
ATOM      8  C   UNL     1     106.690 125.397 147.277  0.00  0.00    +0.000 A 
ATOM      9  C   UNL     1     106.359 124.822 147.767  0.00  0.00    +0.000 A 
ATOM     10  C   UNL     1     107.505 125.651 147.385  0.00  0.00    +0.000 A 
ATOM     11  C   UNL     1     106.817 124.461 148.398  0.00  0.00    +0.000 A 
ATOM     12  C   UNL     1     107.979 125.302 148.010  0.00  0.00    +0.000 A 
ATOM     13  C   UNL     1     107.633 124.703 148.520  0.00  0.00    +0.000 A 
BRANCH   6  16
ATOM     14  O   UNL     1     103.226 123.112 145.924  0.00  0.00    +0.000 OA
ATOM     15  O   UNL     1     101.996 123.979 146.600  0.00  0.00    +0.000 OA
ATOM     16  C   UNL     1     104.344 124.689 146.939  0.00  0.00    +0.000 A 
ATOM     17  C   UNL     1     104.176 124.019 146.488  0.00  0.00    +0.000 A 
ATOM     18  C   UNL     1     103.728 125.122 147.277  0.00  0.00    +0.000 A 
ATOM     19  C   UNL     1     103.393 123.782 146.375  0.00  0.00    +0.000 A 
ATOM     20  C   UNL     1     102.947 124.886 147.165  0.00  0.00    +0.000 A 
ATOM     21  C   UNL     1     102.779 124.216 146.713  0.00  0.00    +0.000 A 
ENDBRANCH   6  16
ENDBRANCH   1   5
BRANCH   1  27
ATOM     22  O   UNL     1     105.722 125.472 144.778  0.00  0.00    +0.000 OA
ATOM     23  O   UNL     1     105.006 127.414 145.469  0.00  0.00    +0.000 OA
ATOM     24  O   UNL     1     106.433 126.680 143.106  0.00  0.00    +0.000 OA
ATOM     25  C   UNL     1     105.720 127.047 144.287  0.00  0.00    +0.000 C 
ATOM     26  C   UNL     1     105.363 126.837 145.001  0.00  0.00    +0.000 C 
ATOM     27  C   UNL     1     105.364 126.050 145.246  0.00  0.00    +0.000 C 
ATOM     28  C   UNL     1     106.077 126.470 143.819  0.00  0.00    +0.000 C 
ATOM     29  C   UNL     1     106.078 125.683 144.064  0.00  0.00    +0.000 C 
BRANCH  29  31
ATOM     30  O   UNL     1     106.185 124.320 143.647  0.00  0.00    +0.000 OA
ATOM     31  C   UNL     1     106.436 125.105 143.596  0.00  0.00    +0.000 C 
ENDBRANCH  29  31
BRANCH  25  32
ATOM     32  O   UNL     1     105.719 127.835 144.041  0.00  0.00    +0.000 OA
BRANCH  32  34
ATOM     33  O   UNL     1     104.934 127.707 142.855  0.00  0.00    +0.000 OA
ATOM     34  C   UNL     1     105.118 128.113 143.549  0.00  0.00    +0.000 C 
BRANCH  34  35
ATOM     35  C   UNL     1     104.703 128.797 143.750  0.00  0.00    +0.000 C 
ATOM     36  C   UNL     1     104.438 129.307 143.158  0.00  0.00    +0.000 C 
BRANCH  36  37
ATOM     37  C   UNL     1     104.023 129.991 143.359  0.00  0.00    +0.000 A 
ATOM     38  C   UNL     1     104.296 130.476 143.968  0.00  0.00    +0.000 A 
ATOM     39  C   UNL     1     103.333 130.190 142.951  0.00  0.00    +0.000 A 
ATOM     40  C   UNL     1     103.881 131.160 144.168  0.00  0.00    +0.000 A 
ATOM     41  C   UNL     1     102.918 130.874 143.152  0.00  0.00    +0.000 A 
ATOM     42  C   UNL     1     103.192 131.359 143.761  0.00  0.00    +0.000 A 
ENDBRANCH  36  37
ENDBRANCH  34  35
ENDBRANCH  32  34
ENDBRANCH  25  32
ENDBRANCH   1  27
TORSDOF 8
ENDMDL
MODEL 5
REMARK VINA RESULT:      -9.8      8.449      9.822
REMARK  Name = 44257075
REMARK  8 active torsions:
REMARK  status: ('A' for Active; 'I' for Inactive)
REMARK    1  A    between atoms: O_2  and  C_15
REMARK    2  A    between atoms: O_2  and  C_18
REMARK    3  A    between atoms: O_3  and  C_13
REMARK    4  A    between atoms: O_3  and  C_29
REMARK    5  A    between atoms: C_17  and  C_21
REMARK    6  A    between atoms: C_19  and  C_23
REMARK    7  A    between atoms: C_29  and  C_35
REMARK    8  A    between atoms: C_36  and  C_37
REMARK                            x       y       z     vdW  Elec       q    Type
REMARK                         _______ _______ _______ _____ _____    ______ ____
ROOT
ATOM      1  O   UNL     1     112.214 127.049 137.101  0.00  0.00    +0.000 OA
ENDROOT
BRANCH   1   5
ATOM      2  O   UNL     1     113.163 126.145 138.846  0.00  0.00    +0.000 OA
ATOM      3  O   UNL     1     113.172 129.020 139.143  0.00  0.00    +0.000 OA
ATOM      4  O   UNL     1     114.337 127.340 141.230  0.00  0.00    +0.000 OA
ATOM      5  C   UNL     1     112.595 126.972 137.829  0.00  0.00    +0.000 C 
ATOM      6  C   UNL     1     112.782 126.222 138.118  0.00  0.00    +0.000 C 
ATOM      7  C   UNL     1     112.787 127.644 138.266  0.00  0.00    +0.000 C 
ATOM      8  C   UNL     1     113.168 127.567 138.994  0.00  0.00    +0.000 A 
ATOM      9  C   UNL     1     113.356 126.818 139.285  0.00  0.00    +0.000 A 
ATOM     10  C   UNL     1     113.364 128.274 139.441  0.00  0.00    +0.000 A 
ATOM     11  C   UNL     1     113.753 126.724 140.041  0.00  0.00    +0.000 A 
ATOM     12  C   UNL     1     113.761 128.200 140.200  0.00  0.00    +0.000 A 
ATOM     13  C   UNL     1     113.956 127.420 140.502  0.00  0.00    +0.000 A 
BRANCH   6  16
ATOM     14  O   UNL     1     113.538 124.156 136.295  0.00  0.00    +0.000 OA
ATOM     15  O   UNL     1     112.012 123.533 136.367  0.00  0.00    +0.000 OA
ATOM     16  C   UNL     1     112.590 125.551 137.681  0.00  0.00    +0.000 A 
ATOM     17  C   UNL     1     113.160 125.190 137.207  0.00  0.00    +0.000 A 
ATOM     18  C   UNL     1     111.826 125.239 137.717  0.00  0.00    +0.000 A 
ATOM     19  C   UNL     1     112.968 124.517 136.769  0.00  0.00    +0.000 A 
ATOM     20  C   UNL     1     111.634 124.567 137.280  0.00  0.00    +0.000 A 
ATOM     21  C   UNL     1     112.204 124.206 136.806  0.00  0.00    +0.000 A 
ENDBRANCH   6  16
ENDBRANCH   1   5
BRANCH   1  27
ATOM     22  O   UNL     1     113.189 127.811 136.388  0.00  0.00    +0.000 OA
ATOM     23  O   UNL     1     111.022 128.034 136.524  0.00  0.00    +0.000 OA
ATOM     24  O   UNL     1     112.973 129.558 135.098  0.00  0.00    +0.000 OA
ATOM     25  C   UNL     1     111.998 128.796 135.811  0.00  0.00    +0.000 C 
ATOM     26  C   UNL     1     111.807 128.169 136.312  0.00  0.00    +0.000 C 
ATOM     27  C   UNL     1     112.403 127.676 136.600  0.00  0.00    +0.000 C 
ATOM     28  C   UNL     1     112.783 128.931 135.598  0.00  0.00    +0.000 C 
ATOM     29  C   UNL     1     113.379 128.439 135.887  0.00  0.00    +0.000 C 
BRANCH  29  31
ATOM     30  O   UNL     1     114.649 127.938 135.464  0.00  0.00    +0.000 OA
ATOM     31  C   UNL     1     114.165 128.573 135.675  0.00  0.00    +0.000 C 
ENDBRANCH  29  31
BRANCH  25  32
ATOM     32  O   UNL     1     111.403 129.289 135.522  0.00  0.00    +0.000 OA
BRANCH  32  34
ATOM     33  O   UNL     1     111.640 130.290 136.513  0.00  0.00    +0.000 OA
ATOM     34  C   UNL     1     111.132 129.920 135.979  0.00  0.00    +0.000 C 
BRANCH  34  35
ATOM     35  C   UNL     1     110.353 130.182 135.901  0.00  0.00    +0.000 C 
ATOM     36  C   UNL     1     110.181 130.986 135.960  0.00  0.00    +0.000 C 
BRANCH  36  37
ATOM     37  C   UNL     1     109.403 131.248 135.882  0.00  0.00    +0.000 A 
ATOM     38  C   UNL     1     109.131 131.525 135.154  0.00  0.00    +0.000 A 
ATOM     39  C   UNL     1     108.895 131.233 136.533  0.00  0.00    +0.000 A 
ATOM     40  C   UNL     1     108.353 131.787 135.076  0.00  0.00    +0.000 A 
ATOM     41  C   UNL     1     108.116 131.494 136.455  0.00  0.00    +0.000 A 
ATOM     42  C   UNL     1     107.846 131.772 135.726  0.00  0.00    +0.000 A 
ENDBRANCH  36  37
ENDBRANCH  34  35
ENDBRANCH  32  34
ENDBRANCH  25  32
ENDBRANCH   1  27
TORSDOF 8
ENDMDL
MODEL 6
REMARK VINA RESULT:      -9.7      6.967      8.736
REMARK  Name = 44257075
REMARK  8 active torsions:
REMARK  status: ('A' for Active; 'I' for Inactive)
REMARK    1  A    between atoms: O_2  and  C_15
REMARK    2  A    between atoms: O_2  and  C_18
REMARK    3  A    between atoms: O_3  and  C_13
REMARK    4  A    between atoms: O_3  and  C_29
REMARK    5  A    between atoms: C_17  and  C_21
REMARK    6  A    between atoms: C_19  and  C_23
REMARK    7  A    between atoms: C_29  and  C_35
REMARK    8  A    between atoms: C_36  and  C_37
REMARK                            x       y       z     vdW  Elec       q    Type
REMARK                         _______ _______ _______ _____ _____    ______ ____
ROOT
ATOM      1  O   UNL     1     111.845 127.759 138.665  0.00  0.00    +0.000 OA
ENDROOT
BRANCH   1   5
ATOM      2  O   UNL     1     113.413 126.277 138.991  0.00  0.00    +0.000 OA
ATOM      3  O   UNL     1     112.911 126.520 136.155  0.00  0.00    +0.000 OA
ATOM      4  O   UNL     1     114.939 124.650 137.117  0.00  0.00    +0.000 OA
ATOM      5  C   UNL     1     112.423 127.190 138.515  0.00  0.00    +0.000 C 
ATOM      6  C   UNL     1     112.835 126.846 139.141  0.00  0.00    +0.000 C 
ATOM      7  C   UNL     1     112.588 126.966 137.739  0.00  0.00    +0.000 C 
ATOM      8  C   UNL     1     113.166 126.396 137.588  0.00  0.00    +0.000 A 
ATOM      9  C   UNL     1     113.579 126.052 138.214  0.00  0.00    +0.000 A 
ATOM     10  C   UNL     1     113.329 126.170 136.775  0.00  0.00    +0.000 A 
ATOM     11  C   UNL     1     114.183 125.458 138.071  0.00  0.00    +0.000 A 
ATOM     12  C   UNL     1     113.930 125.578 136.613  0.00  0.00    +0.000 A 
ATOM     13  C   UNL     1     114.360 125.219 137.264  0.00  0.00    +0.000 A 
BRANCH   6  16
ATOM     14  O   UNL     1     111.470 126.395 141.611  0.00  0.00    +0.000 OA
ATOM     15  O   UNL     1     112.174 127.745 142.247  0.00  0.00    +0.000 OA
ATOM     16  C   UNL     1     112.670 127.071 139.917  0.00  0.00    +0.000 A 
ATOM     17  C   UNL     1     112.153 126.621 140.376  0.00  0.00    +0.000 A 
ATOM     18  C   UNL     1     113.021 127.746 140.235  0.00  0.00    +0.000 A 
ATOM     19  C   UNL     1     111.987 126.845 141.153  0.00  0.00    +0.000 A 
ATOM     20  C   UNL     1     112.856 127.971 141.011  0.00  0.00    +0.000 A 
ATOM     21  C   UNL     1     112.339 127.521 141.470  0.00  0.00    +0.000 A 
ENDBRANCH   6  16
ENDBRANCH   1   5
BRANCH   1  27
ATOM     22  O   UNL     1     110.659 127.126 138.179  0.00  0.00    +0.000 OA
ATOM     23  O   UNL     1     111.473 129.117 137.804  0.00  0.00    +0.000 OA
ATOM     24  O   UNL     1     109.102 127.851 136.833  0.00  0.00    +0.000 OA
ATOM     25  C   UNL     1     110.287 128.484 137.318  0.00  0.00    +0.000 C 
ATOM     26  C   UNL     1     110.973 128.462 137.776  0.00  0.00    +0.000 C 
ATOM     27  C   UNL     1     111.159 127.783 138.207  0.00  0.00    +0.000 C 
ATOM     28  C   UNL     1     109.788 127.829 137.290  0.00  0.00    +0.000 C 
ATOM     29  C   UNL     1     109.974 127.150 137.721  0.00  0.00    +0.000 C 
BRANCH  29  31
ATOM     30  O   UNL     1     109.181 126.170 138.394  0.00  0.00    +0.000 OA
ATOM     31  C   UNL     1     109.474 126.494 137.693  0.00  0.00    +0.000 C 
ENDBRANCH  29  31
BRANCH  25  32
ATOM     32  O   UNL     1     110.101 129.163 136.888  0.00  0.00    +0.000 OA
BRANCH  32  34
ATOM     33  O   UNL     1     109.076 129.676 137.739  0.00  0.00    +0.000 OA
ATOM     34  C   UNL     1     109.736 129.801 137.261  0.00  0.00    +0.000 C 
BRANCH  34  35
ATOM     35  C   UNL     1     110.032 130.565 137.156  0.00  0.00    +0.000 C 
ATOM     36  C   UNL     1     109.512 131.200 137.075  0.00  0.00    +0.000 C 
BRANCH  36  37
ATOM     37  C   UNL     1     109.807 131.963 136.970  0.00  0.00    +0.000 A 
ATOM     38  C   UNL     1     109.799 132.310 136.221  0.00  0.00    +0.000 A 
ATOM     39  C   UNL     1     110.112 132.380 137.614  0.00  0.00    +0.000 A 
ATOM     40  C   UNL     1     110.094 133.073 136.116  0.00  0.00    +0.000 A 
ATOM     41  C   UNL     1     110.407 133.144 137.509  0.00  0.00    +0.000 A 
ATOM     42  C   UNL     1     110.397 133.489 136.759  0.00  0.00    +0.000 A 
ENDBRANCH  36  37
ENDBRANCH  34  35
ENDBRANCH  32  34
ENDBRANCH  25  32
ENDBRANCH   1  27
TORSDOF 8
ENDMDL
MODEL 7
REMARK VINA RESULT:      -9.7      7.624      9.445
REMARK  Name = 44257075
REMARK  8 active torsions:
REMARK  status: ('A' for Active; 'I' for Inactive)
REMARK    1  A    between atoms: O_2  and  C_15
REMARK    2  A    between atoms: O_2  and  C_18
REMARK    3  A    between atoms: O_3  and  C_13
REMARK    4  A    between atoms: O_3  and  C_29
REMARK    5  A    between atoms: C_17  and  C_21
REMARK    6  A    between atoms: C_19  and  C_23
REMARK    7  A    between atoms: C_29  and  C_35
REMARK    8  A    between atoms: C_36  and  C_37
REMARK                            x       y       z     vdW  Elec       q    Type
REMARK                         _______ _______ _______ _____ _____    ______ ____
ROOT
ATOM      1  O   UNL     1     112.259 127.570 137.859  0.00  0.00    +0.000 OA
ENDROOT
BRANCH   1   5
ATOM      2  O   UNL     1     112.413 125.409 138.120  0.00  0.00    +0.000 OA
ATOM      3  O   UNL     1     111.293 125.973 135.516  0.00  0.00    +0.000 OA
ATOM      4  O   UNL     1     111.705 123.204 136.352  0.00  0.00    +0.000 OA
ATOM      5  C   UNL     1     112.210 126.761 137.706  0.00  0.00    +0.000 C 
ATOM      6  C   UNL     1     112.462 126.218 138.273  0.00  0.00    +0.000 C 
ATOM      7  C   UNL     1     111.908 126.496 136.986  0.00  0.00    +0.000 C 
ATOM      8  C   UNL     1     111.859 125.687 136.832  0.00  0.00    +0.000 A 
ATOM      9  C   UNL     1     112.112 125.143 137.399  0.00  0.00    +0.000 A 
ATOM     10  C   UNL     1     111.543 125.422 136.078  0.00  0.00    +0.000 A 
ATOM     11  C   UNL     1     112.066 124.298 137.252  0.00  0.00    +0.000 A 
ATOM     12  C   UNL     1     111.490 124.581 135.912  0.00  0.00    +0.000 A 
ATOM     13  C   UNL     1     111.753 124.014 136.503  0.00  0.00    +0.000 A 
BRANCH   6  16
ATOM     14  O   UNL     1     112.043 127.063 140.971  0.00  0.00    +0.000 OA
ATOM     15  O   UNL     1     113.668 127.280 141.156  0.00  0.00    +0.000 OA
ATOM     16  C   UNL     1     112.764 126.483 138.993  0.00  0.00    +0.000 A 
ATOM     17  C   UNL     1     112.252 126.640 139.622  0.00  0.00    +0.000 A 
ATOM     18  C   UNL     1     113.576 126.592 139.086  0.00  0.00    +0.000 A 
ATOM     19  C   UNL     1     112.554 126.906 140.343  0.00  0.00    +0.000 A 
ATOM     20  C   UNL     1     113.878 126.857 139.806  0.00  0.00    +0.000 A 
ATOM     21  C   UNL     1     113.367 127.014 140.435  0.00  0.00    +0.000 A 
ENDBRANCH   6  16
ENDBRANCH   1   5
BRANCH   1  27
ATOM     22  O   UNL     1     113.094 127.997 136.781  0.00  0.00    +0.000 OA
ATOM     23  O   UNL     1     111.232 128.827 137.562  0.00  0.00    +0.000 OA
ATOM     24  O   UNL     1     112.902 129.680 135.406  0.00  0.00    +0.000 OA
ATOM     25  C   UNL     1     112.067 129.254 136.483  0.00  0.00    +0.000 C 
ATOM     26  C   UNL     1     111.906 128.726 137.097  0.00  0.00    +0.000 C 
ATOM     27  C   UNL     1     112.419 128.098 137.246  0.00  0.00    +0.000 C 
ATOM     28  C   UNL     1     112.741 129.153 136.019  0.00  0.00    +0.000 C 
ATOM     29  C   UNL     1     113.254 128.525 136.168  0.00  0.00    +0.000 C 
BRANCH  29  31
ATOM     30  O   UNL     1     114.536 127.928 135.962  0.00  0.00    +0.000 OA
ATOM     31  C   UNL     1     113.928 128.423 135.703  0.00  0.00    +0.000 C 
ENDBRANCH  29  31
BRANCH  25  32
ATOM     32  O   UNL     1     111.554 129.882 136.334  0.00  0.00    +0.000 OA
BRANCH  32  34
ATOM     33  O   UNL     1     110.886 129.156 135.302  0.00  0.00    +0.000 OA
ATOM     34  C   UNL     1     110.895 129.772 135.850  0.00  0.00    +0.000 C 
BRANCH  34  35
ATOM     35  C   UNL     1     110.246 130.277 135.915  0.00  0.00    +0.000 C 
ATOM     36  C   UNL     1     109.733 130.371 135.277  0.00  0.00    +0.000 C 
BRANCH  36  37
ATOM     37  C   UNL     1     109.084 130.877 135.341  0.00  0.00    +0.000 A 
ATOM     38  C   UNL     1     109.012 131.523 134.834  0.00  0.00    +0.000 A 
ATOM     39  C   UNL     1     108.505 130.735 135.913  0.00  0.00    +0.000 A 
ATOM     40  C   UNL     1     108.362 132.028 134.898  0.00  0.00    +0.000 A 
ATOM     41  C   UNL     1     107.856 131.240 135.977  0.00  0.00    +0.000 A 
ATOM     42  C   UNL     1     107.785 131.887 135.469  0.00  0.00    +0.000 A 
ENDBRANCH  36  37
ENDBRANCH  34  35
ENDBRANCH  32  34
ENDBRANCH  25  32
ENDBRANCH   1  27
TORSDOF 8
ENDMDL
MODEL 8
REMARK VINA RESULT:      -9.7      7.410     10.159
REMARK  Name = 44257075
REMARK  8 active torsions:
REMARK  status: ('A' for Active; 'I' for Inactive)
REMARK    1  A    between atoms: O_2  and  C_15
REMARK    2  A    between atoms: O_2  and  C_18
REMARK    3  A    between atoms: O_3  and  C_13
REMARK    4  A    between atoms: O_3  and  C_29
REMARK    5  A    between atoms: C_17  and  C_21
REMARK    6  A    between atoms: C_19  and  C_23
REMARK    7  A    between atoms: C_29  and  C_35
REMARK    8  A    between atoms: C_36  and  C_37
REMARK                            x       y       z     vdW  Elec       q    Type
REMARK                         _______ _______ _______ _____ _____    ______ ____
ROOT
ATOM      1  O   UNL     1     110.714 129.720 137.903  0.00  0.00    +0.000 OA
ENDROOT
BRANCH   1   5
ATOM      2  O   UNL     1     109.101 131.047 137.268  0.00  0.00    +0.000 OA
ATOM      3  O   UNL     1     110.292 129.819 134.939  0.00  0.00    +0.000 OA
ATOM      4  O   UNL     1     108.075 131.694 134.620  0.00  0.00    +0.000 OA
ATOM      5  C   UNL     1     110.186 130.130 137.419  0.00  0.00    +0.000 C 
ATOM      6  C   UNL     1     109.629 130.638 137.753  0.00  0.00    +0.000 C 
ATOM      7  C   UNL     1     110.217 130.031 136.601  0.00  0.00    +0.000 C 
ATOM      8  C   UNL     1     109.690 130.440 136.116  0.00  0.00    +0.000 A 
ATOM      9  C   UNL     1     109.132 130.949 136.449  0.00  0.00    +0.000 A 
ATOM     10  C   UNL     1     109.731 130.330 135.264  0.00  0.00    +0.000 A 
ATOM     11  C   UNL     1     108.577 131.381 135.956  0.00  0.00    +0.000 A 
ATOM     12  C   UNL     1     109.184 130.753 134.755  0.00  0.00    +0.000 A 
ATOM     13  C   UNL     1     108.603 131.283 135.102  0.00  0.00    +0.000 A 
BRANCH   6  16
ATOM     14  O   UNL     1     110.385 132.080 140.102  0.00  0.00    +0.000 OA
ATOM     15  O   UNL     1     109.507 131.033 141.027  0.00  0.00    +0.000 OA
ATOM     16  C   UNL     1     109.598 130.736 138.571  0.00  0.00    +0.000 A 
ATOM     17  C   UNL     1     110.007 131.358 138.927  0.00  0.00    +0.000 A 
ATOM     18  C   UNL     1     109.159 130.214 139.034  0.00  0.00    +0.000 A 
ATOM     19  C   UNL     1     109.977 131.458 139.746  0.00  0.00    +0.000 A 
ATOM     20  C   UNL     1     109.129 130.312 139.852  0.00  0.00    +0.000 A 
ATOM     21  C   UNL     1     109.537 130.934 140.208  0.00  0.00    +0.000 A 
ENDBRANCH   6  16
ENDBRANCH   1   5
BRANCH   1  27
ATOM     22  O   UNL     1     111.962 130.197 137.398  0.00  0.00    +0.000 OA
ATOM     23  O   UNL     1     111.293 128.176 137.878  0.00  0.00    +0.000 OA
ATOM     24  O   UNL     1     113.790 129.129 136.868  0.00  0.00    +0.000 OA
ATOM     25  C   UNL     1     112.542 128.653 137.372  0.00  0.00    +0.000 C 
ATOM     26  C   UNL     1     111.772 128.800 137.632  0.00  0.00    +0.000 C 
ATOM     27  C   UNL     1     111.483 129.572 137.644  0.00  0.00    +0.000 C 
ATOM     28  C   UNL     1     113.021 129.277 137.126  0.00  0.00    +0.000 C 
ATOM     29  C   UNL     1     112.731 130.049 137.139  0.00  0.00    +0.000 C 
BRANCH  29  31
ATOM     30  O   UNL     1     113.241 131.369 137.338  0.00  0.00    +0.000 OA
ATOM     31  C   UNL     1     113.210 130.674 136.893  0.00  0.00    +0.000 C 
ENDBRANCH  29  31
BRANCH  25  32
ATOM     32  O   UNL     1     112.832 127.880 137.360  0.00  0.00    +0.000 OA
BRANCH  32  34
ATOM     33  O   UNL     1     112.687 127.694 135.951  0.00  0.00    +0.000 OA
ATOM     34  C   UNL     1     112.669 127.389 136.717  0.00  0.00    +0.000 C 
BRANCH  34  35
ATOM     35  C   UNL     1     112.489 126.593 136.841  0.00  0.00    +0.000 C 
ATOM     36  C   UNL     1     112.794 126.018 136.335  0.00  0.00    +0.000 C 
BRANCH  36  37
ATOM     37  C   UNL     1     112.614 125.223 136.459  0.00  0.00    +0.000 A 
ATOM     38  C   UNL     1     111.855 124.941 136.299  0.00  0.00    +0.000 A 
ATOM     39  C   UNL     1     113.193 124.708 136.743  0.00  0.00    +0.000 A 
ATOM     40  C   UNL     1     111.675 124.146 136.423  0.00  0.00    +0.000 A 
ATOM     41  C   UNL     1     113.013 123.912 136.867  0.00  0.00    +0.000 A 
ATOM     42  C   UNL     1     112.254 123.632 136.707  0.00  0.00    +0.000 A 
ENDBRANCH  36  37
ENDBRANCH  34  35
ENDBRANCH  32  34
ENDBRANCH  25  32
ENDBRANCH   1  27
TORSDOF 8
ENDMDL
MODEL 9
REMARK VINA RESULT:      -9.6      6.866      9.397
REMARK  Name = 44257075
REMARK  8 active torsions:
REMARK  status: ('A' for Active; 'I' for Inactive)
REMARK    1  A    between atoms: O_2  and  C_15
REMARK    2  A    between atoms: O_2  and  C_18
REMARK    3  A    between atoms: O_3  and  C_13
REMARK    4  A    between atoms: O_3  and  C_29
REMARK    5  A    between atoms: C_17  and  C_21
REMARK    6  A    between atoms: C_19  and  C_23
REMARK    7  A    between atoms: C_29  and  C_35
REMARK    8  A    between atoms: C_36  and  C_37
REMARK                            x       y       z     vdW  Elec       q    Type
REMARK                         _______ _______ _______ _____ _____    ______ ____
ROOT
ATOM      1  O   UNL     1     111.915 129.019 140.188  0.00  0.00    +0.000 OA
ENDROOT
BRANCH   1   5
ATOM      2  O   UNL     1     113.112 130.211 141.571  0.00  0.00    +0.000 OA
ATOM      3  O   UNL     1     114.434 130.125 139.002  0.00  0.00    +0.000 OA
ATOM      4  O   UNL     1     115.643 131.607 141.209  0.00  0.00    +0.000 OA
ATOM      5  C   UNL     1     112.525 129.487 140.487  0.00  0.00    +0.000 C 
ATOM      6  C   UNL     1     112.502 129.742 141.272  0.00  0.00    +0.000 C 
ATOM      7  C   UNL     1     113.157 129.700 140.002  0.00  0.00    +0.000 C 
ATOM      8  C   UNL     1     113.766 130.169 140.301  0.00  0.00    +0.000 A 
ATOM      9  C   UNL     1     113.745 130.424 141.085  0.00  0.00    +0.000 A 
ATOM     10  C   UNL     1     114.420 130.385 139.785  0.00  0.00    +0.000 A 
ATOM     11  C   UNL     1     114.373 130.912 141.408  0.00  0.00    +0.000 A 
ATOM     12  C   UNL     1     115.058 130.872 140.091  0.00  0.00    +0.000 A 
ATOM     13  C   UNL     1     115.035 131.138 140.908  0.00  0.00    +0.000 A 
BRANCH   6  16
ATOM     14  O   UNL     1     111.286 127.896 143.082  0.00  0.00    +0.000 OA
ATOM     15  O   UNL     1     109.975 128.888 143.214  0.00  0.00    +0.000 OA
ATOM     16  C   UNL     1     111.871 129.529 141.757  0.00  0.00    +0.000 A 
ATOM     17  C   UNL     1     111.895 128.819 142.177  0.00  0.00    +0.000 A 
ATOM     18  C   UNL     1     111.215 130.025 141.823  0.00  0.00    +0.000 A 
ATOM     19  C   UNL     1     111.262 128.605 142.663  0.00  0.00    +0.000 A 
ATOM     20  C   UNL     1     110.583 129.812 142.308  0.00  0.00    +0.000 A 
ATOM     21  C   UNL     1     110.607 129.102 142.728  0.00  0.00    +0.000 A 
ENDBRANCH   6  16
ENDBRANCH   1   5
BRANCH   1  27
ATOM     22  O   UNL     1     111.435 129.769 139.071  0.00  0.00    +0.000 OA
ATOM     23  O   UNL     1     112.078 127.688 139.226  0.00  0.00    +0.000 OA
ATOM     24  O   UNL     1     111.118 129.188 136.991  0.00  0.00    +0.000 OA
ATOM     25  C   UNL     1     111.598 128.438 138.108  0.00  0.00    +0.000 C 
ATOM     26  C   UNL     1     111.797 128.395 138.908  0.00  0.00    +0.000 C 
ATOM     27  C   UNL     1     111.716 129.060 139.389  0.00  0.00    +0.000 C 
ATOM     28  C   UNL     1     111.317 129.145 137.790  0.00  0.00    +0.000 C 
ATOM     29  C   UNL     1     111.236 129.811 138.271  0.00  0.00    +0.000 C 
BRANCH  29  31
ATOM     30  O   UNL     1     110.446 130.995 138.396  0.00  0.00    +0.000 OA
ATOM     31  C   UNL     1     110.956 130.518 137.954  0.00  0.00    +0.000 C 
ENDBRANCH  29  31
BRANCH  25  32
ATOM     32  O   UNL     1     111.679 127.773 137.627  0.00  0.00    +0.000 OA
BRANCH  32  34
ATOM     33  O   UNL     1     112.815 128.172 136.858  0.00  0.00    +0.000 OA
ATOM     34  C   UNL     1     112.410 127.596 137.288  0.00  0.00    +0.000 C 
BRANCH  34  35
ATOM     35  C   UNL     1     112.735 126.843 137.377  0.00  0.00    +0.000 C 
ATOM     36  C   UNL     1     113.167 126.505 136.762  0.00  0.00    +0.000 C 
BRANCH  36  37
ATOM     37  C   UNL     1     113.492 125.752 136.852  0.00  0.00    +0.000 A 
ATOM     38  C   UNL     1     113.076 125.089 136.593  0.00  0.00    +0.000 A 
ATOM     39  C   UNL     1     114.235 125.662 137.201  0.00  0.00    +0.000 A 
ATOM     40  C   UNL     1     113.401 124.336 136.683  0.00  0.00    +0.000 A 
ATOM     41  C   UNL     1     114.560 124.909 137.291  0.00  0.00    +0.000 A 
ATOM     42  C   UNL     1     114.142 124.246 137.031  0.00  0.00    +0.000 A 
ENDBRANCH  36  37
ENDBRANCH  34  35
ENDBRANCH  32  34
ENDBRANCH  25  32
ENDBRANCH   1  27
TORSDOF 8
ENDMDL
MODEL 10
REMARK VINA RESULT:      -9.5      7.356      9.929
REMARK  Name = 44257075
REMARK  8 active torsions:
REMARK  status: ('A' for Active; 'I' for Inactive)
REMARK    1  A    between atoms: O_2  and  C_15
REMARK    2  A    between atoms: O_2  and  C_18
REMARK    3  A    between atoms: O_3  and  C_13
REMARK    4  A    between atoms: O_3  and  C_29
REMARK    5  A    between atoms: C_17  and  C_21
REMARK    6  A    between atoms: C_19  and  C_23
REMARK    7  A    between atoms: C_29  and  C_35
REMARK    8  A    between atoms: C_36  and  C_37
REMARK                            x       y       z     vdW  Elec       q    Type
REMARK                         _______ _______ _______ _____ _____    ______ ____
ROOT
ATOM      1  O   UNL     1     110.607 129.156 137.908  0.00  0.00    +0.000 OA
ENDROOT
BRANCH   1   5
ATOM      2  O   UNL     1     112.099 130.743 137.768  0.00  0.00    +0.000 OA
ATOM      3  O   UNL     1     112.668 128.727 135.777  0.00  0.00    +0.000 OA
ATOM      4  O   UNL     1     114.389 131.076 135.999  0.00  0.00    +0.000 OA
ATOM      5  C   UNL     1     111.260 129.592 137.655  0.00  0.00    +0.000 C 
ATOM      6  C   UNL     1     111.445 130.308 138.021  0.00  0.00    +0.000 C 
ATOM      7  C   UNL     1     111.727 129.311 137.036  0.00  0.00    +0.000 C 
ATOM      8  C   UNL     1     112.381 129.746 136.783  0.00  0.00    +0.000 A 
ATOM      9  C   UNL     1     112.567 130.462 137.149  0.00  0.00    +0.000 A 
ATOM     10  C   UNL     1     112.861 129.444 136.137  0.00  0.00    +0.000 A 
ATOM     11  C   UNL     1     113.245 130.925 136.894  0.00  0.00    +0.000 A 
ATOM     12  C   UNL     1     113.543 129.893 135.869  0.00  0.00    +0.000 A 
ATOM     13  C   UNL     1     113.736 130.638 136.250  0.00  0.00    +0.000 A 
BRANCH   6  16
ATOM     14  O   UNL     1     109.363 132.020 138.970  0.00  0.00    +0.000 OA
ATOM     15  O   UNL     1     109.575 131.431 140.497  0.00  0.00    +0.000 OA
ATOM     16  C   UNL     1     110.978 130.588 138.640  0.00  0.00    +0.000 A 
ATOM     17  C   UNL     1     110.405 131.163 138.495  0.00  0.00    +0.000 A 
ATOM     18  C   UNL     1     111.083 130.294 139.404  0.00  0.00    +0.000 A 
ATOM     19  C   UNL     1     109.937 131.444 139.115  0.00  0.00    +0.000 A 
ATOM     20  C   UNL     1     110.616 130.574 140.022  0.00  0.00    +0.000 A 
ATOM     21  C   UNL     1     110.043 131.150 139.878  0.00  0.00    +0.000 A 
ENDBRANCH   6  16
ENDBRANCH   1   5
BRANCH   1  27
ATOM     22  O   UNL     1     109.717 129.159 136.790  0.00  0.00    +0.000 OA
ATOM     23  O   UNL     1     110.546 127.508 137.953  0.00  0.00    +0.000 OA
ATOM     24  O   UNL     1     108.768 127.512 135.717  0.00  0.00    +0.000 OA
ATOM     25  C   UNL     1     109.657 127.510 136.835  0.00  0.00    +0.000 C 
ATOM     26  C   UNL     1     110.117 127.921 137.383  0.00  0.00    +0.000 C 
ATOM     27  C   UNL     1     110.147 128.745 137.361  0.00  0.00    +0.000 C 
ATOM     28  C   UNL     1     109.228 127.923 136.265  0.00  0.00    +0.000 C 
ATOM     29  C   UNL     1     109.258 128.747 136.242  0.00  0.00    +0.000 C 
BRANCH  29  31
ATOM     30  O   UNL     1     108.372 129.813 135.892  0.00  0.00    +0.000 OA
ATOM     31  C   UNL     1     108.829 129.161 135.672  0.00  0.00    +0.000 C 
ENDBRANCH  29  31
BRANCH  25  32
ATOM     32  O   UNL     1     109.626 126.686 136.857  0.00  0.00    +0.000 OA
BRANCH  32  34
ATOM     33  O   UNL     1     109.846 126.212 135.528  0.00  0.00    +0.000 OA
ATOM     34  C   UNL     1     110.069 126.242 136.322  0.00  0.00    +0.000 C 
BRANCH  34  35
ATOM     35  C   UNL     1     110.734 125.827 136.579  0.00  0.00    +0.000 C 
ATOM     36  C   UNL     1     111.058 125.234 136.108  0.00  0.00    +0.000 C 
BRANCH  36  37
ATOM     37  C   UNL     1     111.723 124.819 136.366  0.00  0.00    +0.000 A 
ATOM     38  C   UNL     1     112.474 125.153 136.288  0.00  0.00    +0.000 A 
ATOM     39  C   UNL     1     111.638 124.070 136.702  0.00  0.00    +0.000 A 
ATOM     40  C   UNL     1     113.139 124.738 136.546  0.00  0.00    +0.000 A 
ATOM     41  C   UNL     1     112.304 123.655 136.960  0.00  0.00    +0.000 A 
ATOM     42  C   UNL     1     113.054 123.990 136.881  0.00  0.00    +0.000 A 
ENDBRANCH  36  37
ENDBRANCH  34  35
ENDBRANCH  32  34
ENDBRANCH  25  32
ENDBRANCH   1  27
TORSDOF 8
ENDMDL
