MODEL 1
REMARK VINA RESULT:      -9.2      0.000      0.000
REMARK  Name = 51666248
REMARK  4 active torsions:
REMARK  status: ('A' for Active; 'I' for Inactive)
REMARK    1  A    between atoms: O_2  and  C_14
REMARK    2  A    between atoms: O_2  and  C_16
REMARK    3  A    between atoms: C_13  and  C_15
REMARK    4  A    between atoms: C_17  and  C_25
REMARK                            x       y       z     vdW  Elec       q    Type
REMARK                         _______ _______ _______ _____ _____    ______ ____
ROOT
ATOM      1  O   UNL     1     112.140 126.635 136.230  0.00  0.00    +0.000 OA
ATOM      2  O   UNL     1     110.515 124.938 135.450  0.00  0.00    +0.000 OA
ATOM      3  C   UNL     1     110.572 127.964 135.354  0.00  0.00    +0.000 A 
ATOM      4  C   UNL     1     112.294 125.832 136.344  0.00  0.00    +0.000 C 
ATOM      5  C   UNL     1     111.753 125.267 136.084  0.00  0.00    +0.000 C 
ATOM      6  C   UNL     1     111.444 126.872 135.856  0.00  0.00    +0.000 A 
ATOM      7  C   UNL     1     110.903 126.307 135.596  0.00  0.00    +0.000 A 
ATOM      8  C   UNL     1     111.295 127.710 135.743  0.00  0.00    +0.000 A 
ATOM      9  C   UNL     1     111.057 125.504 135.710  0.00  0.00    +0.000 C 
ATOM     10  C   UNL     1     110.008 127.375 135.083  0.00  0.00    +0.000 A 
ATOM     11  C   UNL     1     110.174 126.541 135.205  0.00  0.00    +0.000 A 
ENDROOT
BRANCH   4  13
ATOM     12  O   UNL     1     115.077 124.883 137.842  0.00  0.00    +0.000 OA
ATOM     13  C   UNL     1     112.990 125.595 136.719  0.00  0.00    +0.000 A 
ATOM     14  C   UNL     1     113.617 125.295 136.273  0.00  0.00    +0.000 A 
ATOM     15  C   UNL     1     113.059 125.657 137.539  0.00  0.00    +0.000 A 
ATOM     16  C   UNL     1     114.312 125.058 136.648  0.00  0.00    +0.000 A 
ATOM     17  C   UNL     1     113.755 125.420 137.913  0.00  0.00    +0.000 A 
ATOM     18  C   UNL     1     114.381 125.120 137.468  0.00  0.00    +0.000 A 
ENDBRANCH   4  13
BRANCH   3  19
ATOM     19  O   UNL     1     110.420 128.767 135.241  0.00  0.00    +0.000 OA
BRANCH  19  28
ATOM     20  O   UNL     1     109.964 129.069 136.561  0.00  0.00    +0.000 OA
ATOM     21  O   UNL     1     108.212 130.542 135.619  0.00  0.00    +0.000 OA
ATOM     22  O   UNL     1     108.339 130.352 137.252  0.00  0.00    +0.000 OA
ATOM     23  O   UNL     1     109.253 129.749 134.613  0.00  0.00    +0.000 OA
ATOM     24  C   UNL     1     108.796 130.051 135.933  0.00  0.00    +0.000 C 
ATOM     25  C   UNL     1     108.860 129.955 136.750  0.00  0.00    +0.000 C 
ATOM     26  C   UNL     1     109.317 129.654 135.429  0.00  0.00    +0.000 C 
ATOM     27  C   UNL     1     109.444 129.464 137.064  0.00  0.00    +0.000 C 
ATOM     28  C   UNL     1     109.901 129.163 135.744  0.00  0.00    +0.000 C 
BRANCH  27  30
ATOM     29  O   UNL     1     109.303 128.651 138.230  0.00  0.00    +0.000 OA
ATOM     30  C   UNL     1     109.507 129.370 137.880  0.00  0.00    +0.000 C 
ENDBRANCH  27  30
ENDBRANCH  19  28
ENDBRANCH   3  19
TORSDOF 4
ENDMDL
MODEL 2
REMARK VINA RESULT:      -9.2     12.248     14.296
REMARK  Name = 51666248
REMARK  4 active torsions:
REMARK  status: ('A' for Active; 'I' for Inactive)
REMARK    1  A    between atoms: O_2  and  C_14
REMARK    2  A    between atoms: O_2  and  C_16
REMARK    3  A    between atoms: C_13  and  C_15
REMARK    4  A    between atoms: C_17  and  C_25
REMARK                            x       y       z     vdW  Elec       q    Type
REMARK                         _______ _______ _______ _____ _____    ______ ____
ROOT
ATOM      1  O   UNL     1     103.175 124.426 147.385  0.00  0.00    +0.000 OA
ATOM      2  O   UNL     1     102.559 123.527 149.608  0.00  0.00    +0.000 OA
ATOM      3  C   UNL     1     104.628 125.532 148.676  0.00  0.00    +0.000 A 
ATOM      4  C   UNL     1     102.569 123.870 147.452  0.00  0.00    +0.000 C 
ATOM      5  C   UNL     1     102.364 123.571 148.193  0.00  0.00    +0.000 C 
ATOM      6  C   UNL     1     103.577 124.682 148.059  0.00  0.00    +0.000 A 
ATOM      7  C   UNL     1     103.371 124.383 148.800  0.00  0.00    +0.000 A 
ATOM      8  C   UNL     1     104.206 125.261 147.977  0.00  0.00    +0.000 A 
ATOM      9  C   UNL     1     102.765 123.827 148.867  0.00  0.00    +0.000 C 
ATOM     10  C   UNL     1     104.413 125.219 149.447  0.00  0.00    +0.000 A 
ATOM     11  C   UNL     1     103.781 124.641 149.509  0.00  0.00    +0.000 A 
ENDROOT
BRANCH   4  13
ATOM     12  O   UNL     1     100.966 122.845 144.756  0.00  0.00    +0.000 OA
ATOM     13  C   UNL     1     102.168 123.614 146.778  0.00  0.00    +0.000 A 
ATOM     14  C   UNL     1     101.460 123.975 146.557  0.00  0.00    +0.000 A 
ATOM     15  C   UNL     1     102.476 122.997 146.325  0.00  0.00    +0.000 A 
ATOM     16  C   UNL     1     101.060 123.719 145.883  0.00  0.00    +0.000 A 
ATOM     17  C   UNL     1     102.075 122.740 145.651  0.00  0.00    +0.000 A 
ATOM     18  C   UNL     1     101.367 123.101 145.430  0.00  0.00    +0.000 A 
ENDBRANCH   4  13
BRANCH   3  19
ATOM     19  O   UNL     1     105.234 126.087 148.606  0.00  0.00    +0.000 OA
BRANCH  19  28
ATOM     20  O   UNL     1     106.359 125.212 148.701  0.00  0.00    +0.000 OA
ATOM     21  O   UNL     1     107.462 126.429 146.849  0.00  0.00    +0.000 OA
ATOM     22  O   UNL     1     108.219 125.149 147.562  0.00  0.00    +0.000 OA
ATOM     23  O   UNL     1     105.969 126.898 147.371  0.00  0.00    +0.000 OA
ATOM     24  C   UNL     1     107.094 126.023 147.466  0.00  0.00    +0.000 C 
ATOM     25  C   UNL     1     107.473 125.383 147.823  0.00  0.00    +0.000 C 
ATOM     26  C   UNL     1     106.347 126.258 147.728  0.00  0.00    +0.000 C 
ATOM     27  C   UNL     1     107.105 124.978 148.441  0.00  0.00    +0.000 C 
ATOM     28  C   UNL     1     105.980 125.853 148.345  0.00  0.00    +0.000 C 
BRANCH  27  30
ATOM     29  O   UNL     1     107.427 124.225 149.612  0.00  0.00    +0.000 OA
ATOM     30  C   UNL     1     107.485 124.338 148.797  0.00  0.00    +0.000 C 
ENDBRANCH  27  30
ENDBRANCH  19  28
ENDBRANCH   3  19
TORSDOF 4
ENDMDL
MODEL 3
REMARK VINA RESULT:      -9.2      1.153      1.833
REMARK  Name = 51666248
REMARK  4 active torsions:
REMARK  status: ('A' for Active; 'I' for Inactive)
REMARK    1  A    between atoms: O_2  and  C_14
REMARK    2  A    between atoms: O_2  and  C_16
REMARK    3  A    between atoms: C_13  and  C_15
REMARK    4  A    between atoms: C_17  and  C_25
REMARK                            x       y       z     vdW  Elec       q    Type
REMARK                         _______ _______ _______ _____ _____    ______ ____
ROOT
ATOM      1  O   UNL     1     112.737 127.051 136.217  0.00  0.00    +0.000 OA
ATOM      2  O   UNL     1     114.157 129.018 135.728  0.00  0.00    +0.000 OA
ATOM      3  C   UNL     1     111.196 128.462 135.422  0.00  0.00    +0.000 A 
ATOM      4  C   UNL     1     113.547 127.022 136.368  0.00  0.00    +0.000 C 
ATOM      5  C   UNL     1     114.020 127.678 136.205  0.00  0.00    +0.000 C 
ATOM      6  C   UNL     1     112.399 127.735 135.902  0.00  0.00    +0.000 A 
ATOM      7  C   UNL     1     112.872 128.391 135.740  0.00  0.00    +0.000 A 
ATOM      8  C   UNL     1     111.554 127.752 135.749  0.00  0.00    +0.000 A 
ATOM      9  C   UNL     1     113.683 128.362 135.891  0.00  0.00    +0.000 C 
ATOM     10  C   UNL     1     111.690 129.145 135.253  0.00  0.00    +0.000 A 
ATOM     11  C   UNL     1     112.533 129.109 135.412  0.00  0.00    +0.000 A 
ENDROOT
BRANCH   4  13
ATOM     12  O   UNL     1     114.897 124.286 137.624  0.00  0.00    +0.000 OA
ATOM     13  C   UNL     1     113.885 126.338 136.682  0.00  0.00    +0.000 A 
ATOM     14  C   UNL     1     113.830 126.185 137.491  0.00  0.00    +0.000 A 
ATOM     15  C   UNL     1     114.277 125.807 136.187  0.00  0.00    +0.000 A 
ATOM     16  C   UNL     1     114.167 125.501 137.804  0.00  0.00    +0.000 A 
ATOM     17  C   UNL     1     114.614 125.123 136.501  0.00  0.00    +0.000 A 
ATOM     18  C   UNL     1     114.560 124.970 137.310  0.00  0.00    +0.000 A 
ENDBRANCH   4  13
BRANCH   3  19
ATOM     19  O   UNL     1     110.386 128.488 135.272  0.00  0.00    +0.000 OA
BRANCH  19  28
ATOM     20  O   UNL     1     109.971 128.882 136.581  0.00  0.00    +0.000 OA
ATOM     21  O   UNL     1     108.235 130.343 135.592  0.00  0.00    +0.000 OA
ATOM     22  O   UNL     1     108.399 130.250 137.230  0.00  0.00    +0.000 OA
ATOM     23  O   UNL     1     109.229 129.462 134.612  0.00  0.00    +0.000 OA
ATOM     24  C   UNL     1     108.814 129.856 135.921  0.00  0.00    +0.000 C 
ATOM     25  C   UNL     1     108.896 129.809 136.741  0.00  0.00    +0.000 C 
ATOM     26  C   UNL     1     109.311 129.415 135.431  0.00  0.00    +0.000 C 
ATOM     27  C   UNL     1     109.475 129.322 137.071  0.00  0.00    +0.000 C 
ATOM     28  C   UNL     1     109.889 128.928 135.761  0.00  0.00    +0.000 C 
BRANCH  27  30
ATOM     29  O   UNL     1     109.421 128.561 138.279  0.00  0.00    +0.000 OA
ATOM     30  C   UNL     1     109.556 129.276 137.890  0.00  0.00    +0.000 C 
ENDBRANCH  27  30
ENDBRANCH  19  28
ENDBRANCH   3  19
TORSDOF 4
ENDMDL
MODEL 4
REMARK VINA RESULT:      -9.1      1.122      1.575
REMARK  Name = 51666248
REMARK  4 active torsions:
REMARK  status: ('A' for Active; 'I' for Inactive)
REMARK    1  A    between atoms: O_2  and  C_14
REMARK    2  A    between atoms: O_2  and  C_16
REMARK    3  A    between atoms: C_13  and  C_15
REMARK    4  A    between atoms: C_17  and  C_25
REMARK                            x       y       z     vdW  Elec       q    Type
REMARK                         _______ _______ _______ _____ _____    ______ ____
ROOT
ATOM      1  O   UNL     1     110.918 126.265 136.525  0.00  0.00    +0.000 OA
ATOM      2  O   UNL     1     109.659 125.319 134.616  0.00  0.00    +0.000 OA
ATOM      3  C   UNL     1     109.272 127.768 136.353  0.00  0.00    +0.000 A 
ATOM      4  C   UNL     1     111.177 125.571 136.163  0.00  0.00    +0.000 C 
ATOM      5  C   UNL     1     110.757 125.255 135.527  0.00  0.00    +0.000 C 
ATOM      6  C   UNL     1     110.239 126.645 136.250  0.00  0.00    +0.000 A 
ATOM      7  C   UNL     1     109.819 126.330 135.614  0.00  0.00    +0.000 A 
ATOM      8  C   UNL     1     109.980 127.368 136.635  0.00  0.00    +0.000 A 
ATOM      9  C   UNL     1     110.078 125.635 135.252  0.00  0.00    +0.000 C 
ATOM     10  C   UNL     1     108.836 127.439 135.690  0.00  0.00    +0.000 A 
ATOM     11  C   UNL     1     109.111 126.715 135.318  0.00  0.00    +0.000 A 
ENDROOT
BRANCH   4  13
ATOM     12  O   UNL     1     113.893 124.052 137.262  0.00  0.00    +0.000 OA
ATOM     13  C   UNL     1     111.856 125.191 136.438  0.00  0.00    +0.000 A 
ATOM     14  C   UNL     1     112.596 125.540 136.330  0.00  0.00    +0.000 A 
ATOM     15  C   UNL     1     111.795 124.462 136.821  0.00  0.00    +0.000 A 
ATOM     16  C   UNL     1     113.274 125.160 136.605  0.00  0.00    +0.000 A 
ATOM     17  C   UNL     1     112.474 124.082 137.095  0.00  0.00    +0.000 A 
ATOM     18  C   UNL     1     113.214 124.431 136.988  0.00  0.00    +0.000 A 
ENDBRANCH   4  13
BRANCH   3  19
ATOM     19  O   UNL     1     109.016 128.463 136.716  0.00  0.00    +0.000 OA
BRANCH  19  28
ATOM     20  O   UNL     1     109.972 129.430 136.277  0.00  0.00    +0.000 OA
ATOM     21  O   UNL     1     108.132 130.918 135.549  0.00  0.00    +0.000 OA
ATOM     22  O   UNL     1     109.701 131.388 135.353  0.00  0.00    +0.000 OA
ATOM     23  O   UNL     1     107.790 129.455 136.231  0.00  0.00    +0.000 OA
ATOM     24  C   UNL     1     108.745 130.422 135.792  0.00  0.00    +0.000 C 
ATOM     25  C   UNL     1     109.530 130.657 135.694  0.00  0.00    +0.000 C 
ATOM     26  C   UNL     1     108.574 129.690 136.133  0.00  0.00    +0.000 C 
ATOM     27  C   UNL     1     110.143 130.161 135.937  0.00  0.00    +0.000 C 
ATOM     28  C   UNL     1     109.187 129.194 136.376  0.00  0.00    +0.000 C 
BRANCH  27  30
ATOM     29  O   UNL     1     111.445 130.389 136.481  0.00  0.00    +0.000 OA
ATOM     30  C   UNL     1     110.927 130.396 135.838  0.00  0.00    +0.000 C 
ENDBRANCH  27  30
ENDBRANCH  19  28
ENDBRANCH   3  19
TORSDOF 4
ENDMDL
MODEL 5
REMARK VINA RESULT:      -9.1      7.059      8.443
REMARK  Name = 51666248
REMARK  4 active torsions:
REMARK  status: ('A' for Active; 'I' for Inactive)
REMARK    1  A    between atoms: O_2  and  C_14
REMARK    2  A    between atoms: O_2  and  C_16
REMARK    3  A    between atoms: C_13  and  C_15
REMARK    4  A    between atoms: C_17  and  C_25
REMARK                            x       y       z     vdW  Elec       q    Type
REMARK                         _______ _______ _______ _____ _____    ______ ____
ROOT
ATOM      1  O   UNL     1     104.916 124.374 139.491  0.00  0.00    +0.000 OA
ATOM      2  O   UNL     1     104.726 122.739 141.340  0.00  0.00    +0.000 OA
ATOM      3  C   UNL     1     106.494 125.152 140.870  0.00  0.00    +0.000 A 
ATOM      4  C   UNL     1     104.362 123.764 139.447  0.00  0.00    +0.000 C 
ATOM      5  C   UNL     1     104.299 123.220 140.064  0.00  0.00    +0.000 C 
ATOM      6  C   UNL     1     105.407 124.439 140.151  0.00  0.00    +0.000 A 
ATOM      7  C   UNL     1     105.343 123.895 140.767  0.00  0.00    +0.000 A 
ATOM      8  C   UNL     1     105.979 125.079 140.185  0.00  0.00    +0.000 A 
ATOM      9  C   UNL     1     104.790 123.285 140.724  0.00  0.00    +0.000 C 
ATOM     10  C   UNL     1     106.427 124.584 141.512  0.00  0.00    +0.000 A 
ATOM     11  C   UNL     1     105.848 123.951 141.460  0.00  0.00    +0.000 A 
ENDROOT
BRANCH   4  13
ATOM     12  O   UNL     1     102.399 123.504 136.808  0.00  0.00    +0.000 OA
ATOM     13  C   UNL     1     103.871 123.699 138.787  0.00  0.00    +0.000 A 
ATOM     14  C   UNL     1     104.182 123.447 138.066  0.00  0.00    +0.000 A 
ATOM     15  C   UNL     1     103.070 123.887 138.850  0.00  0.00    +0.000 A 
ATOM     16  C   UNL     1     103.691 123.382 137.406  0.00  0.00    +0.000 A 
ATOM     17  C   UNL     1     102.579 123.822 138.189  0.00  0.00    +0.000 A 
ATOM     18  C   UNL     1     102.889 123.569 137.468  0.00  0.00    +0.000 A 
ENDBRANCH   4  13
BRANCH   3  19
ATOM     19  O   UNL     1     107.047 125.763 140.911  0.00  0.00    +0.000 OA
BRANCH  19  28
ATOM     20  O   UNL     1     106.222 126.802 141.443  0.00  0.00    +0.000 OA
ATOM     21  O   UNL     1     108.023 127.423 143.023  0.00  0.00    +0.000 OA
ATOM     22  O   UNL     1     106.598 128.254 143.027  0.00  0.00    +0.000 OA
ATOM     23  O   UNL     1     108.247 126.177 141.965  0.00  0.00    +0.000 OA
ATOM     24  C   UNL     1     107.422 127.216 142.496  0.00  0.00    +0.000 C 
ATOM     25  C   UNL     1     106.710 127.631 142.498  0.00  0.00    +0.000 C 
ATOM     26  C   UNL     1     107.535 126.592 141.966  0.00  0.00    +0.000 C 
ATOM     27  C   UNL     1     106.110 127.424 141.971  0.00  0.00    +0.000 C 
ATOM     28  C   UNL     1     106.934 126.385 141.440  0.00  0.00    +0.000 C 
BRANCH  27  30
ATOM     29  O   UNL     1     104.683 127.436 142.058  0.00  0.00    +0.000 OA
ATOM     30  C   UNL     1     105.398 127.840 141.973  0.00  0.00    +0.000 C 
ENDBRANCH  27  30
ENDBRANCH  19  28
ENDBRANCH   3  19
TORSDOF 4
ENDMDL
MODEL 6
REMARK VINA RESULT:      -8.9      2.472      4.222
REMARK  Name = 51666248
REMARK  4 active torsions:
REMARK  status: ('A' for Active; 'I' for Inactive)
REMARK    1  A    between atoms: O_2  and  C_14
REMARK    2  A    between atoms: O_2  and  C_16
REMARK    3  A    between atoms: C_13  and  C_15
REMARK    4  A    between atoms: C_17  and  C_25
REMARK                            x       y       z     vdW  Elec       q    Type
REMARK                         _______ _______ _______ _____ _____    ______ ____
ROOT
ATOM      1  O   UNL     1     112.634 128.336 135.553  0.00  0.00    +0.000 OA
ATOM      2  O   UNL     1     110.743 129.631 134.617  0.00  0.00    +0.000 OA
ATOM      3  C   UNL     1     111.043 126.766 135.550  0.00  0.00    +0.000 A 
ATOM      4  C   UNL     1     112.737 129.129 135.350  0.00  0.00    +0.000 C 
ATOM      5  C   UNL     1     112.107 129.560 135.038  0.00  0.00    +0.000 C 
ATOM      6  C   UNL     1     111.900 127.974 135.445  0.00  0.00    +0.000 A 
ATOM      7  C   UNL     1     111.270 128.405 135.133  0.00  0.00    +0.000 A 
ATOM      8  C   UNL     1     111.805 127.148 135.661  0.00  0.00    +0.000 A 
ATOM      9  C   UNL     1     111.373 129.198 134.929  0.00  0.00    +0.000 C 
ATOM     10  C   UNL     1     110.387 127.216 135.225  0.00  0.00    +0.000 A 
ATOM     11  C   UNL     1     110.501 128.041 135.015  0.00  0.00    +0.000 A 
ENDROOT
BRANCH   4  13
ATOM     12  O   UNL     1     115.671 130.575 135.784  0.00  0.00    +0.000 OA
ATOM     13  C   UNL     1     113.471 129.490 135.458  0.00  0.00    +0.000 A 
ATOM     14  C   UNL     1     114.051 129.429 134.875  0.00  0.00    +0.000 A 
ATOM     15  C   UNL     1     113.624 129.913 136.150  0.00  0.00    +0.000 A 
ATOM     16  C   UNL     1     114.784 129.790 134.984  0.00  0.00    +0.000 A 
ATOM     17  C   UNL     1     114.357 130.275 136.259  0.00  0.00    +0.000 A 
ATOM     18  C   UNL     1     114.938 130.213 135.676  0.00  0.00    +0.000 A 
ENDBRANCH   4  13
BRANCH   3  19
ATOM     19  O   UNL     1     110.942 125.973 135.754  0.00  0.00    +0.000 OA
BRANCH  19  28
ATOM     20  O   UNL     1     110.437 126.189 137.074  0.00  0.00    +0.000 OA
ATOM     21  O   UNL     1     111.710 124.226 137.882  0.00  0.00    +0.000 OA
ATOM     22  O   UNL     1     110.781 125.095 138.931  0.00  0.00    +0.000 OA
ATOM     23  O   UNL     1     111.791 124.664 136.293  0.00  0.00    +0.000 OA
ATOM     24  C   UNL     1     111.286 124.880 137.612  0.00  0.00    +0.000 C 
ATOM     25  C   UNL     1     110.821 125.315 138.137  0.00  0.00    +0.000 C 
ATOM     26  C   UNL     1     111.326 125.099 136.817  0.00  0.00    +0.000 C 
ATOM     27  C   UNL     1     110.397 125.970 137.867  0.00  0.00    +0.000 C 
ATOM     28  C   UNL     1     110.902 125.754 136.548  0.00  0.00    +0.000 C 
BRANCH  27  30
ATOM     29  O   UNL     1     109.165 126.622 138.182  0.00  0.00    +0.000 OA
ATOM     30  C   UNL     1     109.933 126.404 138.392  0.00  0.00    +0.000 C 
ENDBRANCH  27  30
ENDBRANCH  19  28
ENDBRANCH   3  19
TORSDOF 4
ENDMDL
MODEL 7
REMARK VINA RESULT:      -8.9      7.180     10.458
REMARK  Name = 51666248
REMARK  4 active torsions:
REMARK  status: ('A' for Active; 'I' for Inactive)
REMARK    1  A    between atoms: O_2  and  C_14
REMARK    2  A    between atoms: O_2  and  C_16
REMARK    3  A    between atoms: C_13  and  C_15
REMARK    4  A    between atoms: C_17  and  C_25
REMARK                            x       y       z     vdW  Elec       q    Type
REMARK                         _______ _______ _______ _____ _____    ______ ____
ROOT
ATOM      1  O   UNL     1     103.162 130.245 141.992  0.00  0.00    +0.000 OA
ATOM      2  O   UNL     1     102.766 128.988 139.896  0.00  0.00    +0.000 OA
ATOM      3  C   UNL     1     104.532 128.507 142.308  0.00  0.00    +0.000 A 
ATOM      4  C   UNL     1     102.631 130.534 141.431  0.00  0.00    +0.000 C 
ATOM      5  C   UNL     1     102.499 130.115 140.733  0.00  0.00    +0.000 C 
ATOM      6  C   UNL     1     103.562 129.536 141.854  0.00  0.00    +0.000 A 
ATOM      7  C   UNL     1     103.430 129.117 141.156  0.00  0.00    +0.000 A 
ATOM      8  C   UNL     1     104.113 129.245 142.446  0.00  0.00    +0.000 A 
ATOM      9  C   UNL     1     102.899 129.407 140.595  0.00  0.00    +0.000 C 
ATOM     10  C   UNL     1     104.394 128.072 141.581  0.00  0.00    +0.000 A 
ATOM     11  C   UNL     1     103.840 128.378 141.001  0.00  0.00    +0.000 A 
ENDROOT
BRANCH   4  13
ATOM     12  O   UNL     1     101.031 133.368 141.982  0.00  0.00    +0.000 OA
ATOM     13  C   UNL     1     102.231 131.243 141.569  0.00  0.00    +0.000 A 
ATOM     14  C   UNL     1     102.588 131.962 141.378  0.00  0.00    +0.000 A 
ATOM     15  C   UNL     1     101.474 131.232 141.898  0.00  0.00    +0.000 A 
ATOM     16  C   UNL     1     102.188 132.669 141.516  0.00  0.00    +0.000 A 
ATOM     17  C   UNL     1     101.074 131.940 142.036  0.00  0.00    +0.000 A 
ATOM     18  C   UNL     1     101.431 132.659 141.845  0.00  0.00    +0.000 A 
ENDBRANCH   4  13
BRANCH   3  19
ATOM     19  O   UNL     1     105.063 128.220 142.871  0.00  0.00    +0.000 OA
BRANCH  19  28
ATOM     20  O   UNL     1     106.232 128.832 142.321  0.00  0.00    +0.000 OA
ATOM     21  O   UNL     1     107.568 126.846 142.952  0.00  0.00    +0.000 OA
ATOM     22  O   UNL     1     108.290 128.119 142.193  0.00  0.00    +0.000 OA
ATOM     23  O   UNL     1     105.954 126.896 143.291  0.00  0.00    +0.000 OA
ATOM     24  C   UNL     1     107.123 127.508 142.742  0.00  0.00    +0.000 C 
ATOM     25  C   UNL     1     107.484 128.145 142.362  0.00  0.00    +0.000 C 
ATOM     26  C   UNL     1     106.315 127.533 142.911  0.00  0.00    +0.000 C 
ATOM     27  C   UNL     1     107.038 128.807 142.152  0.00  0.00    +0.000 C 
ATOM     28  C   UNL     1     105.870 128.195 142.701  0.00  0.00    +0.000 C 
BRANCH  27  30
ATOM     29  O   UNL     1     107.182 129.643 141.002  0.00  0.00    +0.000 OA
ATOM     30  C   UNL     1     107.400 129.443 141.772  0.00  0.00    +0.000 C 
ENDBRANCH  27  30
ENDBRANCH  19  28
ENDBRANCH   3  19
TORSDOF 4
ENDMDL
MODEL 8
REMARK VINA RESULT:      -8.9      1.451      2.190
REMARK  Name = 51666248
REMARK  4 active torsions:
REMARK  status: ('A' for Active; 'I' for Inactive)
REMARK    1  A    between atoms: O_2  and  C_14
REMARK    2  A    between atoms: O_2  and  C_16
REMARK    3  A    between atoms: C_13  and  C_15
REMARK    4  A    between atoms: C_17  and  C_25
REMARK                            x       y       z     vdW  Elec       q    Type
REMARK                         _______ _______ _______ _____ _____    ______ ____
ROOT
ATOM      1  O   UNL     1     112.561 127.267 137.084  0.00  0.00    +0.000 OA
ATOM      2  O   UNL     1     113.893 128.673 135.543  0.00  0.00    +0.000 OA
ATOM      3  C   UNL     1     111.351 129.146 137.119  0.00  0.00    +0.000 A 
ATOM      4  C   UNL     1     113.244 126.964 136.736  0.00  0.00    +0.000 C 
ATOM      5  C   UNL     1     113.688 127.433 136.222  0.00  0.00    +0.000 C 
ATOM      6  C   UNL     1     112.321 128.038 136.919  0.00  0.00    +0.000 A 
ATOM      7  C   UNL     1     112.764 128.507 136.405  0.00  0.00    +0.000 A 
ATOM      8  C   UNL     1     111.607 128.342 137.288  0.00  0.00    +0.000 A 
ATOM      9  C   UNL     1     113.448 128.204 136.057  0.00  0.00    +0.000 C 
ATOM     10  C   UNL     1     111.814 129.634 136.584  0.00  0.00    +0.000 A 
ATOM     11  C   UNL     1     112.525 129.312 136.225  0.00  0.00    +0.000 A 
ENDROOT
BRANCH   4  13
ATOM     12  O   UNL     1     114.204 123.876 137.396  0.00  0.00    +0.000 OA
ATOM     13  C   UNL     1     113.485 126.192 136.901  0.00  0.00    +0.000 A 
ATOM     14  C   UNL     1     114.063 126.053 137.473  0.00  0.00    +0.000 A 
ATOM     15  C   UNL     1     113.146 125.559 136.494  0.00  0.00    +0.000 A 
ATOM     16  C   UNL     1     114.302 125.281 137.638  0.00  0.00    +0.000 A 
ATOM     17  C   UNL     1     113.386 124.787 136.659  0.00  0.00    +0.000 A 
ATOM     18  C   UNL     1     113.964 124.648 137.231  0.00  0.00    +0.000 A 
ENDBRANCH   4  13
BRANCH   3  19
ATOM     19  O   UNL     1     110.667 129.446 137.469  0.00  0.00    +0.000 OA
BRANCH  19  28
ATOM     20  O   UNL     1     109.689 128.859 136.609  0.00  0.00    +0.000 OA
ATOM     21  O   UNL     1     108.456 131.004 136.546  0.00  0.00    +0.000 OA
ATOM     22  O   UNL     1     107.889 129.701 135.707  0.00  0.00    +0.000 OA
ATOM     23  O   UNL     1     109.845 130.876 137.427  0.00  0.00    +0.000 OA
ATOM     24  C   UNL     1     108.867 130.289 136.567  0.00  0.00    +0.000 C 
ATOM     25  C   UNL     1     108.584 129.637 136.147  0.00  0.00    +0.000 C 
ATOM     26  C   UNL     1     109.562 130.225 137.008  0.00  0.00    +0.000 C 
ATOM     27  C   UNL     1     108.995 128.922 136.168  0.00  0.00    +0.000 C 
ATOM     28  C   UNL     1     109.973 129.510 137.029  0.00  0.00    +0.000 C 
BRANCH  27  30
ATOM     29  O   UNL     1     108.532 127.571 136.145  0.00  0.00    +0.000 OA
ATOM     30  C   UNL     1     108.712 128.272 135.749  0.00  0.00    +0.000 C 
ENDBRANCH  27  30
ENDBRANCH  19  28
ENDBRANCH   3  19
TORSDOF 4
ENDMDL
MODEL 9
REMARK VINA RESULT:      -8.8      8.602     10.460
REMARK  Name = 51666248
REMARK  4 active torsions:
REMARK  status: ('A' for Active; 'I' for Inactive)
REMARK    1  A    between atoms: O_2  and  C_14
REMARK    2  A    between atoms: O_2  and  C_16
REMARK    3  A    between atoms: C_13  and  C_15
REMARK    4  A    between atoms: C_17  and  C_25
REMARK                            x       y       z     vdW  Elec       q    Type
REMARK                         _______ _______ _______ _____ _____    ______ ____
ROOT
ATOM      1  O   UNL     1     106.618 125.775 146.196  0.00  0.00    +0.000 OA
ATOM      2  O   UNL     1     106.678 128.235 146.474  0.00  0.00    +0.000 OA
ATOM      3  C   UNL     1     105.790 126.416 144.222  0.00  0.00    +0.000 A 
ATOM      4  C   UNL     1     106.900 126.105 146.898  0.00  0.00    +0.000 C 
ATOM      5  C   UNL     1     106.920 126.924 146.990  0.00  0.00    +0.000 C 
ATOM      6  C   UNL     1     106.356 126.266 145.587  0.00  0.00    +0.000 A 
ATOM      7  C   UNL     1     106.376 127.085 145.679  0.00  0.00    +0.000 A 
ATOM      8  C   UNL     1     106.065 125.911 144.861  0.00  0.00    +0.000 A 
ATOM      9  C   UNL     1     106.658 127.415 146.381  0.00  0.00    +0.000 C 
ATOM     10  C   UNL     1     105.811 127.270 144.318  0.00  0.00    +0.000 A 
ATOM     11  C   UNL     1     106.106 127.606 145.052  0.00  0.00    +0.000 A 
ENDROOT
BRANCH   4  13
ATOM     12  O   UNL     1     107.949 124.145 149.337  0.00  0.00    +0.000 OA
ATOM     13  C   UNL     1     107.162 125.615 147.508  0.00  0.00    +0.000 A 
ATOM     14  C   UNL     1     106.630 125.346 148.079  0.00  0.00    +0.000 A 
ATOM     15  C   UNL     1     107.957 125.394 147.547  0.00  0.00    +0.000 A 
ATOM     16  C   UNL     1     106.893 124.856 148.688  0.00  0.00    +0.000 A 
ATOM     17  C   UNL     1     108.219 124.904 148.156  0.00  0.00    +0.000 A 
ATOM     18  C   UNL     1     107.687 124.635 148.727  0.00  0.00    +0.000 A 
ENDBRANCH   4  13
BRANCH   3  19
ATOM     19  O   UNL     1     105.509 126.084 143.521  0.00  0.00    +0.000 OA
BRANCH  19  28
ATOM     20  O   UNL     1     106.638 126.398 142.703  0.00  0.00    +0.000 OA
ATOM     21  O   UNL     1     106.418 124.213 141.561  0.00  0.00    +0.000 OA
ATOM     22  O   UNL     1     107.619 125.255 141.124  0.00  0.00    +0.000 OA
ATOM     23  O   UNL     1     105.362 124.627 142.760  0.00  0.00    +0.000 OA
ATOM     24  C   UNL     1     106.491 124.941 141.942  0.00  0.00    +0.000 C 
ATOM     25  C   UNL     1     107.092 125.462 141.723  0.00  0.00    +0.000 C 
ATOM     26  C   UNL     1     105.963 125.149 142.542  0.00  0.00    +0.000 C 
ATOM     27  C   UNL     1     107.165 126.191 142.104  0.00  0.00    +0.000 C 
ATOM     28  C   UNL     1     106.036 125.877 142.922  0.00  0.00    +0.000 C 
BRANCH  27  30
ATOM     29  O   UNL     1     108.389 126.865 142.404  0.00  0.00    +0.000 OA
ATOM     30  C   UNL     1     107.766 126.711 141.885  0.00  0.00    +0.000 C 
ENDBRANCH  27  30
ENDBRANCH  19  28
ENDBRANCH   3  19
TORSDOF 4
ENDMDL
MODEL 10
REMARK VINA RESULT:      -8.8      1.892      2.528
REMARK  Name = 51666248
REMARK  4 active torsions:
REMARK  status: ('A' for Active; 'I' for Inactive)
REMARK    1  A    between atoms: O_2  and  C_14
REMARK    2  A    between atoms: O_2  and  C_16
REMARK    3  A    between atoms: C_13  and  C_15
REMARK    4  A    between atoms: C_17  and  C_25
REMARK                            x       y       z     vdW  Elec       q    Type
REMARK                         _______ _______ _______ _____ _____    ______ ____
ROOT
ATOM      1  O   UNL     1     111.586 126.326 135.919  0.00  0.00    +0.000 OA
ATOM      2  O   UNL     1     109.460 126.218 134.655  0.00  0.00    +0.000 OA
ATOM      3  C   UNL     1     111.538 128.385 135.051  0.00  0.00    +0.000 A 
ATOM      4  C   UNL     1     111.137 125.633 135.924  0.00  0.00    +0.000 C 
ATOM      5  C   UNL     1     110.429 125.598 135.503  0.00  0.00    +0.000 C 
ATOM      6  C   UNL     1     111.327 126.982 135.492  0.00  0.00    +0.000 A 
ATOM      7  C   UNL     1     110.618 126.947 135.070  0.00  0.00    +0.000 A 
ATOM      8  C   UNL     1     111.803 127.697 135.494  0.00  0.00    +0.000 A 
ATOM      9  C   UNL     1     110.169 126.254 135.076  0.00  0.00    +0.000 C 
ATOM     10  C   UNL     1     110.800 128.347 134.612  0.00  0.00    +0.000 A 
ATOM     11  C   UNL     1     110.337 127.623 134.622  0.00  0.00    +0.000 A 
ENDROOT
BRANCH   4  13
ATOM     12  O   UNL     1     112.176 123.007 137.631  0.00  0.00    +0.000 OA
ATOM     13  C   UNL     1     111.397 124.977 136.351  0.00  0.00    +0.000 A 
ATOM     14  C   UNL     1     111.280 124.943 137.167  0.00  0.00    +0.000 A 
ATOM     15  C   UNL     1     111.773 124.354 135.961  0.00  0.00    +0.000 A 
ATOM     16  C   UNL     1     111.540 124.286 137.593  0.00  0.00    +0.000 A 
ATOM     17  C   UNL     1     112.033 123.697 136.388  0.00  0.00    +0.000 A 
ATOM     18  C   UNL     1     111.916 123.664 137.204  0.00  0.00    +0.000 A 
ENDBRANCH   4  13
BRANCH   3  19
ATOM     19  O   UNL     1     111.989 129.076 135.047  0.00  0.00    +0.000 OA
BRANCH  19  28
ATOM     20  O   UNL     1     111.268 129.792 136.051  0.00  0.00    +0.000 OA
ATOM     21  O   UNL     1     113.402 130.637 136.978  0.00  0.00    +0.000 OA
ATOM     22  O   UNL     1     111.971 131.072 137.673  0.00  0.00    +0.000 OA
ATOM     23  O   UNL     1     113.411 129.639 135.665  0.00  0.00    +0.000 OA
ATOM     24  C   UNL     1     112.691 130.356 136.669  0.00  0.00    +0.000 C 
ATOM     25  C   UNL     1     111.975 130.573 137.017  0.00  0.00    +0.000 C 
ATOM     26  C   UNL     1     112.695 129.856 136.012  0.00  0.00    +0.000 C 
ATOM     27  C   UNL     1     111.264 130.291 136.708  0.00  0.00    +0.000 C 
ATOM     28  C   UNL     1     111.984 129.574 135.703  0.00  0.00    +0.000 C 
BRANCH  27  30
ATOM     29  O   UNL     1     109.960 130.867 136.601  0.00  0.00    +0.000 OA
ATOM     30  C   UNL     1     110.548 130.508 137.055  0.00  0.00    +0.000 C 
ENDBRANCH  27  30
ENDBRANCH  19  28
ENDBRANCH   3  19
TORSDOF 4
ENDMDL
