MODEL 1
REMARK VINA RESULT:      -9.8      0.000      0.000
REMARK  Name = 42607834
REMARK  3 active torsions:
REMARK  status: ('A' for Active; 'I' for Inactive)
REMARK    1  A    between atoms: O_2  and  C_15
REMARK    2  A    between atoms: O_2  and  C_17
REMARK    3  A    between atoms: C_18  and  C_25
REMARK                            x       y       z     vdW  Elec       q    Type
REMARK                         _______ _______ _______ _____ _____    ______ ____
ROOT
ATOM      1  O   UNL     1     113.598 128.601 139.664  0.00  0.00    +0.000 OA
ATOM      2  O   UNL     1     113.116 128.274 138.092  0.00  0.00    +0.000 OA
ATOM      3  O   UNL     1     113.320 126.908 141.447  0.00  0.00    +0.000 OA
ATOM      4  C   UNL     1     112.673 126.940 138.490  0.00  0.00    +0.000 A 
ATOM      5  C   UNL     1     113.837 128.772 140.435  0.00  0.00    +0.000 C 
ATOM      6  C   UNL     1     113.745 128.207 141.029  0.00  0.00    +0.000 C 
ATOM      7  C   UNL     1     113.266 127.868 139.487  0.00  0.00    +0.000 A 
ATOM      8  C   UNL     1     113.173 127.303 140.081  0.00  0.00    +0.000 A 
ATOM      9  C   UNL     1     113.020 127.703 138.681  0.00  0.00    +0.000 A 
ATOM     10  C   UNL     1     113.412 127.473 140.852  0.00  0.00    +0.000 C 
ATOM     11  C   UNL     1     112.576 126.352 139.109  0.00  0.00    +0.000 A 
ATOM     12  C   UNL     1     112.828 126.534 139.910  0.00  0.00    +0.000 A 
ENDROOT
BRANCH   5  15
ATOM     13  O   UNL     1     113.620 131.368 141.609  0.00  0.00    +0.000 OA
ATOM     14  O   UNL     1     115.166 131.708 141.143  0.00  0.00    +0.000 OA
ATOM     15  C   UNL     1     114.170 129.506 140.612  0.00  0.00    +0.000 A 
ATOM     16  C   UNL     1     113.728 130.070 141.022  0.00  0.00    +0.000 A 
ATOM     17  C   UNL     1     114.943 129.676 140.379  0.00  0.00    +0.000 A 
ATOM     18  C   UNL     1     114.060 130.804 141.199  0.00  0.00    +0.000 A 
ATOM     19  C   UNL     1     115.274 130.410 140.556  0.00  0.00    +0.000 A 
ATOM     20  C   UNL     1     114.834 130.974 140.966  0.00  0.00    +0.000 A 
ENDBRANCH   5  15
BRANCH   4  21
ATOM     21  O   UNL     1     112.434 126.774 137.718  0.00  0.00    +0.000 OA
BRANCH  21  30
ATOM     22  O   UNL     1     113.482 125.870 137.362  0.00  0.00    +0.000 OA
ATOM     23  O   UNL     1     111.838 124.413 136.222  0.00  0.00    +0.000 OA
ATOM     24  O   UNL     1     113.433 123.994 136.246  0.00  0.00    +0.000 OA
ATOM     25  O   UNL     1     111.338 125.803 136.958  0.00  0.00    +0.000 OA
ATOM     26  C   UNL     1     112.386 124.898 136.602  0.00  0.00    +0.000 C 
ATOM     27  C   UNL     1     113.184 124.690 136.614  0.00  0.00    +0.000 C 
ATOM     28  C   UNL     1     112.137 125.593 136.970  0.00  0.00    +0.000 C 
ATOM     29  C   UNL     1     113.732 125.175 136.994  0.00  0.00    +0.000 C 
ATOM     30  C   UNL     1     112.685 126.079 137.350  0.00  0.00    +0.000 C 
ATOM     31  C   UNL     1     114.530 124.965 137.006  0.00  0.00    +0.000 C 
ENDBRANCH  21  30
ENDBRANCH   4  21
TORSDOF 3
ENDMDL
MODEL 2
REMARK VINA RESULT:      -9.7      9.705     10.686
REMARK  Name = 42607834
REMARK  3 active torsions:
REMARK  status: ('A' for Active; 'I' for Inactive)
REMARK    1  A    between atoms: O_2  and  C_15
REMARK    2  A    between atoms: O_2  and  C_17
REMARK    3  A    between atoms: C_18  and  C_25
REMARK                            x       y       z     vdW  Elec       q    Type
REMARK                         _______ _______ _______ _____ _____    ______ ____
ROOT
ATOM      1  O   UNL     1     103.111 130.313 142.187  0.00  0.00    +0.000 OA
ATOM      2  O   UNL     1     104.050 129.759 143.461  0.00  0.00    +0.000 OA
ATOM      3  O   UNL     1     103.029 129.072 140.048  0.00  0.00    +0.000 OA
ATOM      4  C   UNL     1     104.487 128.617 142.662  0.00  0.00    +0.000 A 
ATOM      5  C   UNL     1     102.646 130.593 141.566  0.00  0.00    +0.000 C 
ATOM      6  C   UNL     1     102.619 130.179 140.853  0.00  0.00    +0.000 C 
ATOM      7  C   UNL     1     103.549 129.620 142.097  0.00  0.00    +0.000 A 
ATOM      8  C   UNL     1     103.522 129.206 141.384  0.00  0.00    +0.000 A 
ATOM      9  C   UNL     1     104.029 129.339 142.751  0.00  0.00    +0.000 A 
ATOM     10  C   UNL     1     103.057 129.486 140.762  0.00  0.00    +0.000 C 
ATOM     11  C   UNL     1     104.459 128.186 141.919  0.00  0.00    +0.000 A 
ATOM     12  C   UNL     1     103.973 128.482 141.275  0.00  0.00    +0.000 A 
ENDROOT
BRANCH   5  15
ATOM     13  O   UNL     1     102.454 133.439 141.393  0.00  0.00    +0.000 OA
ATOM     14  O   UNL     1     100.895 133.366 141.931  0.00  0.00    +0.000 OA
ATOM     15  C   UNL     1     102.208 131.286 141.658  0.00  0.00    +0.000 A 
ATOM     16  C   UNL     1     102.550 132.016 141.480  0.00  0.00    +0.000 A 
ATOM     17  C   UNL     1     101.429 131.250 141.927  0.00  0.00    +0.000 A 
ATOM     18  C   UNL     1     102.112 132.709 141.571  0.00  0.00    +0.000 A 
ATOM     19  C   UNL     1     100.992 131.943 142.018  0.00  0.00    +0.000 A 
ATOM     20  C   UNL     1     101.333 132.673 141.840  0.00  0.00    +0.000 A 
ENDBRANCH   5  15
BRANCH   4  21
ATOM     21  O   UNL     1     104.951 128.340 143.286  0.00  0.00    +0.000 OA
BRANCH  21  30
ATOM     22  O   UNL     1     106.243 128.596 142.730  0.00  0.00    +0.000 OA
ATOM     23  O   UNL     1     107.035 126.404 143.564  0.00  0.00    +0.000 OA
ATOM     24  O   UNL     1     108.063 127.390 142.731  0.00  0.00    +0.000 OA
ATOM     25  O   UNL     1     105.479 126.879 143.841  0.00  0.00    +0.000 OA
ATOM     26  C   UNL     1     106.771 127.135 143.286  0.00  0.00    +0.000 C 
ATOM     27  C   UNL     1     107.284 127.628 142.869  0.00  0.00    +0.000 C 
ATOM     28  C   UNL     1     105.993 127.373 143.424  0.00  0.00    +0.000 C 
ATOM     29  C   UNL     1     107.020 128.359 142.592  0.00  0.00    +0.000 C 
ATOM     30  C   UNL     1     105.729 128.103 143.146  0.00  0.00    +0.000 C 
ATOM     31  C   UNL     1     107.535 128.851 142.175  0.00  0.00    +0.000 C 
ENDBRANCH  21  30
ENDBRANCH   4  21
TORSDOF 3
ENDMDL
MODEL 3
REMARK VINA RESULT:      -9.6      8.408      9.680
REMARK  Name = 42607834
REMARK  3 active torsions:
REMARK  status: ('A' for Active; 'I' for Inactive)
REMARK    1  A    between atoms: O_2  and  C_15
REMARK    2  A    between atoms: O_2  and  C_17
REMARK    3  A    between atoms: C_18  and  C_25
REMARK                            x       y       z     vdW  Elec       q    Type
REMARK                         _______ _______ _______ _____ _____    ______ ____
ROOT
ATOM      1  O   UNL     1     106.617 125.154 146.069  0.00  0.00    +0.000 OA
ATOM      2  O   UNL     1     106.426 124.205 144.701  0.00  0.00    +0.000 OA
ATOM      3  O   UNL     1     105.982 127.546 146.045  0.00  0.00    +0.000 OA
ATOM      4  C   UNL     1     105.889 125.347 143.965  0.00  0.00    +0.000 A 
ATOM      5  C   UNL     1     106.715 125.613 146.748  0.00  0.00    +0.000 C 
ATOM      6  C   UNL     1     106.503 126.411 146.739  0.00  0.00    +0.000 C 
ATOM      7  C   UNL     1     106.308 125.491 145.383  0.00  0.00    +0.000 A 
ATOM      8  C   UNL     1     106.096 126.288 145.375  0.00  0.00    +0.000 A 
ATOM      9  C   UNL     1     106.211 125.002 144.684  0.00  0.00    +0.000 A 
ATOM     10  C   UNL     1     106.193 126.748 146.053  0.00  0.00    +0.000 C 
ATOM     11  C   UNL     1     105.669 126.178 143.957  0.00  0.00    +0.000 A 
ATOM     12  C   UNL     1     105.773 126.652 144.666  0.00  0.00    +0.000 A 
ENDROOT
BRANCH   5  15
ATOM     13  O   UNL     1     106.324 124.241 149.224  0.00  0.00    +0.000 OA
ATOM     14  O   UNL     1     107.951 124.264 149.494  0.00  0.00    +0.000 OA
ATOM     15  C   UNL     1     107.024 125.276 147.434  0.00  0.00    +0.000 A 
ATOM     16  C   UNL     1     106.519 124.927 147.986  0.00  0.00    +0.000 A 
ATOM     17  C   UNL     1     107.838 125.287 147.569  0.00  0.00    +0.000 A 
ATOM     18  C   UNL     1     106.828 124.590 148.673  0.00  0.00    +0.000 A 
ATOM     19  C   UNL     1     108.147 124.950 148.255  0.00  0.00    +0.000 A 
ATOM     20  C   UNL     1     107.642 124.602 148.807  0.00  0.00    +0.000 A 
ENDBRANCH   5  15
BRANCH   4  21
ATOM     21  O   UNL     1     105.793 124.885 143.289  0.00  0.00    +0.000 OA
BRANCH  21  30
ATOM     22  O   UNL     1     106.820 125.559 142.559  0.00  0.00    +0.000 OA
ATOM     23  O   UNL     1     105.661 125.027 140.438  0.00  0.00    +0.000 OA
ATOM     24  O   UNL     1     107.074 125.879 140.415  0.00  0.00    +0.000 OA
ATOM     25  O   UNL     1     105.021 124.530 141.875  0.00  0.00    +0.000 OA
ATOM     26  C   UNL     1     106.048 125.204 141.145  0.00  0.00    +0.000 C 
ATOM     27  C   UNL     1     106.754 125.630 141.134  0.00  0.00    +0.000 C 
ATOM     28  C   UNL     1     105.728 124.956 141.864  0.00  0.00    +0.000 C 
ATOM     29  C   UNL     1     107.140 125.808 141.841  0.00  0.00    +0.000 C 
ATOM     30  C   UNL     1     106.114 125.133 142.571  0.00  0.00    +0.000 C 
ATOM     31  C   UNL     1     107.847 126.234 141.829  0.00  0.00    +0.000 C 
ENDBRANCH  21  30
ENDBRANCH   4  21
TORSDOF 3
ENDMDL
MODEL 4
REMARK VINA RESULT:      -9.4      3.806      5.839
REMARK  Name = 42607834
REMARK  3 active torsions:
REMARK  status: ('A' for Active; 'I' for Inactive)
REMARK    1  A    between atoms: O_2  and  C_15
REMARK    2  A    between atoms: O_2  and  C_17
REMARK    3  A    between atoms: C_18  and  C_25
REMARK                            x       y       z     vdW  Elec       q    Type
REMARK                         _______ _______ _______ _____ _____    ______ ____
ROOT
ATOM      1  O   UNL     1     112.391 126.656 136.271  0.00  0.00    +0.000 OA
ATOM      2  O   UNL     1     112.177 128.311 136.110  0.00  0.00    +0.000 OA
ATOM      3  O   UNL     1     110.614 125.081 135.574  0.00  0.00    +0.000 OA
ATOM      4  C   UNL     1     110.846 128.100 135.548  0.00  0.00    +0.000 A 
ATOM      5  C   UNL     1     112.505 125.843 136.354  0.00  0.00    +0.000 C 
ATOM      6  C   UNL     1     111.913 125.319 136.121  0.00  0.00    +0.000 C 
ATOM      7  C   UNL     1     111.686 126.945 135.956  0.00  0.00    +0.000 A 
ATOM      8  C   UNL     1     111.093 126.420 135.724  0.00  0.00    +0.000 A 
ATOM      9  C   UNL     1     111.579 127.793 135.875  0.00  0.00    +0.000 A 
ATOM     10  C   UNL     1     111.207 125.607 135.807  0.00  0.00    +0.000 C 
ATOM     11  C   UNL     1     110.228 127.552 135.306  0.00  0.00    +0.000 A 
ATOM     12  C   UNL     1     110.353 126.707 135.395  0.00  0.00    +0.000 A 
ENDROOT
BRANCH   5  15
ATOM     13  O   UNL     1     115.225 125.039 136.002  0.00  0.00    +0.000 OA
ATOM     14  O   UNL     1     115.330 124.691 137.612  0.00  0.00    +0.000 OA
ATOM     15  C   UNL     1     113.212 125.555 136.668  0.00  0.00    +0.000 A 
ATOM     16  C   UNL     1     113.865 125.441 136.178  0.00  0.00    +0.000 A 
ATOM     17  C   UNL     1     113.264 125.381 137.473  0.00  0.00    +0.000 A 
ATOM     18  C   UNL     1     114.571 125.153 136.492  0.00  0.00    +0.000 A 
ATOM     19  C   UNL     1     113.970 125.093 137.787  0.00  0.00    +0.000 A 
ATOM     20  C   UNL     1     114.624 124.979 137.297  0.00  0.00    +0.000 A 
ENDBRANCH   5  15
BRANCH   4  21
ATOM     21  O   UNL     1     110.735 128.913 135.467  0.00  0.00    +0.000 OA
BRANCH  21  30
ATOM     22  O   UNL     1     110.016 129.194 136.669  0.00  0.00    +0.000 OA
ATOM     23  O   UNL     1     108.415 130.580 135.387  0.00  0.00    +0.000 OA
ATOM     24  O   UNL     1     108.230 130.400 137.017  0.00  0.00    +0.000 OA
ATOM     25  O   UNL     1     109.668 129.837 134.612  0.00  0.00    +0.000 OA
ATOM     26  C   UNL     1     108.949 130.118 135.814  0.00  0.00    +0.000 C 
ATOM     27  C   UNL     1     108.857 130.028 136.629  0.00  0.00    +0.000 C 
ATOM     28  C   UNL     1     109.575 129.747 135.427  0.00  0.00    +0.000 C 
ATOM     29  C   UNL     1     109.390 129.566 137.056  0.00  0.00    +0.000 C 
ATOM     30  C   UNL     1     110.109 129.285 135.855  0.00  0.00    +0.000 C 
ATOM     31  C   UNL     1     109.297 129.476 137.871  0.00  0.00    +0.000 C 
ENDBRANCH  21  30
ENDBRANCH   4  21
TORSDOF 3
ENDMDL
MODEL 5
REMARK VINA RESULT:      -9.3     10.905     11.733
REMARK  Name = 42607834
REMARK  3 active torsions:
REMARK  status: ('A' for Active; 'I' for Inactive)
REMARK    1  A    between atoms: O_2  and  C_15
REMARK    2  A    between atoms: O_2  and  C_17
REMARK    3  A    between atoms: C_18  and  C_25
REMARK                            x       y       z     vdW  Elec       q    Type
REMARK                         _______ _______ _______ _____ _____    ______ ____
ROOT
ATOM      1  O   UNL     1     102.879 132.889 141.256  0.00  0.00    +0.000 OA
ATOM      2  O   UNL     1     104.066 131.791 140.814  0.00  0.00    +0.000 OA
ATOM      3  O   UNL     1     100.710 132.108 142.156  0.00  0.00    +0.000 OA
ATOM      4  C   UNL     1     103.201 130.678 141.198  0.00  0.00    +0.000 A 
ATOM      5  C   UNL     1     102.301 133.437 141.472  0.00  0.00    +0.000 C 
ATOM      6  C   UNL     1     101.578 133.176 141.771  0.00  0.00    +0.000 C 
ATOM      7  C   UNL     1     102.735 132.082 141.340  0.00  0.00    +0.000 A 
ATOM      8  C   UNL     1     102.012 131.821 141.640  0.00  0.00    +0.000 A 
ATOM      9  C   UNL     1     103.345 131.521 141.113  0.00  0.00    +0.000 A 
ATOM     10  C   UNL     1     101.434 132.368 141.856  0.00  0.00    +0.000 C 
ATOM     11  C   UNL     1     102.447 130.407 141.511  0.00  0.00    +0.000 A 
ATOM     12  C   UNL     1     101.849 130.982 141.733  0.00  0.00    +0.000 A 
ENDROOT
BRANCH   5  15
ATOM     13  O   UNL     1     102.179 135.822 139.902  0.00  0.00    +0.000 OA
ATOM     14  O   UNL     1     102.878 136.668 141.134  0.00  0.00    +0.000 OA
ATOM     15  C   UNL     1     102.445 134.245 141.387  0.00  0.00    +0.000 A 
ATOM     16  C   UNL     1     102.240 134.629 140.686  0.00  0.00    +0.000 A 
ATOM     17  C   UNL     1     102.795 134.668 142.003  0.00  0.00    +0.000 A 
ATOM     18  C   UNL     1     102.384 135.437 140.602  0.00  0.00    +0.000 A 
ATOM     19  C   UNL     1     102.939 135.475 141.918  0.00  0.00    +0.000 A 
ATOM     20  C   UNL     1     102.734 135.860 141.218  0.00  0.00    +0.000 A 
ENDBRANCH   5  15
BRANCH   4  21
ATOM     21  O   UNL     1     103.782 130.133 140.982  0.00  0.00    +0.000 OA
BRANCH  21  30
ATOM     22  O   UNL     1     104.236 129.824 142.301  0.00  0.00    +0.000 OA
ATOM     23  O   UNL     1     104.524 127.455 141.645  0.00  0.00    +0.000 OA
ATOM     24  O   UNL     1     104.882 127.935 143.183  0.00  0.00    +0.000 OA
ATOM     25  O   UNL     1     103.974 128.554 140.545  0.00  0.00    +0.000 OA
ATOM     26  C   UNL     1     104.428 128.244 141.864  0.00  0.00    +0.000 C 
ATOM     27  C   UNL     1     104.607 128.485 142.632  0.00  0.00    +0.000 C 
ATOM     28  C   UNL     1     104.153 128.794 141.314  0.00  0.00    +0.000 C 
ATOM     29  C   UNL     1     104.510 129.275 142.851  0.00  0.00    +0.000 C 
ATOM     30  C   UNL     1     104.057 129.584 141.533  0.00  0.00    +0.000 C 
ATOM     31  C   UNL     1     104.689 129.514 143.620  0.00  0.00    +0.000 C 
ENDBRANCH  21  30
ENDBRANCH   4  21
TORSDOF 3
ENDMDL
MODEL 6
REMARK VINA RESULT:      -9.3      4.188      7.201
REMARK  Name = 42607834
REMARK  3 active torsions:
REMARK  status: ('A' for Active; 'I' for Inactive)
REMARK    1  A    between atoms: O_2  and  C_15
REMARK    2  A    between atoms: O_2  and  C_17
REMARK    3  A    between atoms: C_18  and  C_25
REMARK                            x       y       z     vdW  Elec       q    Type
REMARK                         _______ _______ _______ _____ _____    ______ ____
ROOT
ATOM      1  O   UNL     1     110.290 128.251 135.916  0.00  0.00    +0.000 OA
ATOM      2  O   UNL     1     111.286 129.585 136.106  0.00  0.00    +0.000 OA
ATOM      3  O   UNL     1     107.836 128.523 135.751  0.00  0.00    +0.000 OA
ATOM      4  C   UNL     1     110.127 130.473 136.093  0.00  0.00    +0.000 A 
ATOM      5  C   UNL     1     109.807 127.588 135.822  0.00  0.00    +0.000 C 
ATOM      6  C   UNL     1     108.989 127.679 135.767  0.00  0.00    +0.000 C 
ATOM      7  C   UNL     1     109.956 129.003 135.954  0.00  0.00    +0.000 A 
ATOM      8  C   UNL     1     109.138 129.095 135.900  0.00  0.00    +0.000 A 
ATOM      9  C   UNL     1     110.469 129.686 136.052  0.00  0.00    +0.000 A 
ATOM     10  C   UNL     1     108.654 128.433 135.806  0.00  0.00    +0.000 C 
ATOM     11  C   UNL     1     109.274 130.567 136.036  0.00  0.00    +0.000 A 
ATOM     12  C   UNL     1     108.776 129.874 135.938  0.00  0.00    +0.000 A 
ENDROOT
BRANCH   5  15
ATOM     13  O   UNL     1     110.888 125.290 137.134  0.00  0.00    +0.000 OA
ATOM     14  O   UNL     1     111.146 124.576 135.669  0.00  0.00    +0.000 OA
ATOM     15  C   UNL     1     110.142 126.835 135.784  0.00  0.00    +0.000 A 
ATOM     16  C   UNL     1     110.347 126.439 136.478  0.00  0.00    +0.000 A 
ATOM     17  C   UNL     1     110.271 126.478 135.051  0.00  0.00    +0.000 A 
ATOM     18  C   UNL     1     110.682 125.686 136.440  0.00  0.00    +0.000 A 
ATOM     19  C   UNL     1     110.606 125.726 135.013  0.00  0.00    +0.000 A 
ATOM     20  C   UNL     1     110.811 125.329 135.707  0.00  0.00    +0.000 A 
ENDBRANCH   5  15
BRANCH   4  21
ATOM     21  O   UNL     1     110.613 131.133 136.186  0.00  0.00    +0.000 OA
BRANCH  21  30
ATOM     22  O   UNL     1     110.378 131.335 137.581  0.00  0.00    +0.000 OA
ATOM     23  O   UNL     1     110.393 133.785 137.229  0.00  0.00    +0.000 OA
ATOM     24  O   UNL     1     110.153 133.170 138.742  0.00  0.00    +0.000 OA
ATOM     25  O   UNL     1     110.623 132.766 135.952  0.00  0.00    +0.000 OA
ATOM     26  C   UNL     1     110.388 132.968 137.347  0.00  0.00    +0.000 C 
ATOM     27  C   UNL     1     110.268 132.660 138.102  0.00  0.00    +0.000 C 
ATOM     28  C   UNL     1     110.503 132.458 136.708  0.00  0.00    +0.000 C 
ATOM     29  C   UNL     1     110.263 131.843 138.220  0.00  0.00    +0.000 C 
ATOM     30  C   UNL     1     110.497 131.642 136.826  0.00  0.00    +0.000 C 
ATOM     31  C   UNL     1     110.143 131.537 138.976  0.00  0.00    +0.000 C 
ENDBRANCH  21  30
ENDBRANCH   4  21
TORSDOF 3
ENDMDL
MODEL 7
REMARK VINA RESULT:      -9.3      8.817     10.576
REMARK  Name = 42607834
REMARK  3 active torsions:
REMARK  status: ('A' for Active; 'I' for Inactive)
REMARK    1  A    between atoms: O_2  and  C_15
REMARK    2  A    between atoms: O_2  and  C_17
REMARK    3  A    between atoms: C_18  and  C_25
REMARK                            x       y       z     vdW  Elec       q    Type
REMARK                         _______ _______ _______ _____ _____    ______ ____
ROOT
ATOM      1  O   UNL     1     106.145 127.621 144.377  0.00  0.00    +0.000 OA
ATOM      2  O   UNL     1     106.812 126.136 144.777  0.00  0.00    +0.000 OA
ATOM      3  O   UNL     1     105.943 129.410 146.075  0.00  0.00    +0.000 OA
ATOM      4  C   UNL     1     107.024 126.583 146.151  0.00  0.00    +0.000 A 
ATOM      5  C   UNL     1     105.816 128.349 144.172  0.00  0.00    +0.000 C 
ATOM      6  C   UNL     1     105.748 128.945 144.738  0.00  0.00    +0.000 C 
ATOM      7  C   UNL     1     106.407 127.489 145.148  0.00  0.00    +0.000 A 
ATOM      8  C   UNL     1     106.340 128.085 145.714  0.00  0.00    +0.000 A 
ATOM      9  C   UNL     1     106.749 126.727 145.350  0.00  0.00    +0.000 A 
ATOM     10  C   UNL     1     106.010 128.813 145.509  0.00  0.00    +0.000 C 
ATOM     11  C   UNL     1     106.953 127.205 146.741  0.00  0.00    +0.000 A 
ATOM     12  C   UNL     1     106.609 127.961 146.521  0.00  0.00    +0.000 A 
ENDROOT
BRANCH   5  15
ATOM     13  O   UNL     1     106.374 129.007 141.447  0.00  0.00    +0.000 OA
ATOM     14  O   UNL     1     104.768 128.877 141.087  0.00  0.00    +0.000 OA
ATOM     15  C   UNL     1     105.554 128.481 143.400  0.00  0.00    +0.000 A 
ATOM     16  C   UNL     1     106.095 128.678 142.809  0.00  0.00    +0.000 A 
ATOM     17  C   UNL     1     104.751 128.416 143.221  0.00  0.00    +0.000 A 
ATOM     18  C   UNL     1     105.833 128.810 142.038  0.00  0.00    +0.000 A 
ATOM     19  C   UNL     1     104.490 128.548 142.450  0.00  0.00    +0.000 A 
ATOM     20  C   UNL     1     105.031 128.745 141.858  0.00  0.00    +0.000 A 
ENDBRANCH   5  15
BRANCH   4  21
ATOM     21  O   UNL     1     107.353 125.854 146.353  0.00  0.00    +0.000 OA
BRANCH  21  30
ATOM     22  O   UNL     1     106.290 125.311 147.139  0.00  0.00    +0.000 OA
ATOM     23  O   UNL     1     107.928 124.566 148.838  0.00  0.00    +0.000 OA
ATOM     24  O   UNL     1     106.319 124.272 149.058  0.00  0.00    +0.000 OA
ATOM     25  O   UNL     1     108.445 125.357 147.486  0.00  0.00    +0.000 OA
ATOM     26  C   UNL     1     107.382 124.814 148.272  0.00  0.00    +0.000 C 
ATOM     27  C   UNL     1     106.578 124.667 148.381  0.00  0.00    +0.000 C 
ATOM     28  C   UNL     1     107.640 125.210 147.596  0.00  0.00    +0.000 C 
ATOM     29  C   UNL     1     106.032 124.916 147.815  0.00  0.00    +0.000 C 
ATOM     30  C   UNL     1     107.094 125.458 147.029  0.00  0.00    +0.000 C 
ATOM     31  C   UNL     1     105.227 124.768 147.926  0.00  0.00    +0.000 C 
ENDBRANCH  21  30
ENDBRANCH   4  21
TORSDOF 3
ENDMDL
MODEL 8
REMARK VINA RESULT:      -9.3      0.977      5.806
REMARK  Name = 42607834
REMARK  3 active torsions:
REMARK  status: ('A' for Active; 'I' for Inactive)
REMARK    1  A    between atoms: O_2  and  C_15
REMARK    2  A    between atoms: O_2  and  C_17
REMARK    3  A    between atoms: C_18  and  C_25
REMARK                            x       y       z     vdW  Elec       q    Type
REMARK                         _______ _______ _______ _____ _____    ______ ____
ROOT
ATOM      1  O   UNL     1     113.152 127.025 138.443  0.00  0.00    +0.000 OA
ATOM      2  O   UNL     1     113.215 127.447 140.064  0.00  0.00    +0.000 OA
ATOM      3  O   UNL     1     112.829 128.754 136.702  0.00  0.00    +0.000 OA
ATOM      4  C   UNL     1     113.028 128.854 139.722  0.00  0.00    +0.000 A 
ATOM      5  C   UNL     1     113.121 126.808 137.648  0.00  0.00    +0.000 C 
ATOM      6  C   UNL     1     113.014 127.385 137.068  0.00  0.00    +0.000 C 
ATOM      7  C   UNL     1     113.074 127.817 138.659  0.00  0.00    +0.000 A 
ATOM      8  C   UNL     1     112.967 128.394 138.079  0.00  0.00    +0.000 A 
ATOM      9  C   UNL     1     113.107 128.030 139.491  0.00  0.00    +0.000 A 
ATOM     10  C   UNL     1     112.937 128.177 137.283  0.00  0.00    +0.000 C 
ATOM     11  C   UNL     1     112.915 129.455 139.117  0.00  0.00    +0.000 A 
ATOM     12  C   UNL     1     112.885 129.223 138.290  0.00  0.00    +0.000 A 
ENDROOT
BRANCH   5  15
ATOM     13  O   UNL     1     111.944 124.250 137.160  0.00  0.00    +0.000 OA
ATOM     14  O   UNL     1     113.430 123.638 136.786  0.00  0.00    +0.000 OA
ATOM     15  C   UNL     1     113.199 126.016 137.432  0.00  0.00    +0.000 A 
ATOM     16  C   UNL     1     112.532 125.529 137.404  0.00  0.00    +0.000 A 
ATOM     17  C   UNL     1     113.942 125.709 137.245  0.00  0.00    +0.000 A 
ATOM     18  C   UNL     1     112.610 124.737 137.189  0.00  0.00    +0.000 A 
ATOM     19  C   UNL     1     114.018 124.917 137.030  0.00  0.00    +0.000 A 
ATOM     20  C   UNL     1     113.352 124.431 137.002  0.00  0.00    +0.000 A 
ENDBRANCH   5  15
BRANCH   4  21
ATOM     21  O   UNL     1     113.058 129.067 140.518  0.00  0.00    +0.000 OA
BRANCH  21  30
ATOM     22  O   UNL     1     114.310 129.756 140.493  0.00  0.00    +0.000 OA
ATOM     23  O   UNL     1     113.388 131.485 142.006  0.00  0.00    +0.000 OA
ATOM     24  O   UNL     1     114.947 131.597 141.477  0.00  0.00    +0.000 OA
ATOM     25  O   UNL     1     112.444 130.219 141.527  0.00  0.00    +0.000 OA
ATOM     26  C   UNL     1     113.696 130.908 141.502  0.00  0.00    +0.000 C 
ATOM     27  C   UNL     1     114.475 130.964 141.237  0.00  0.00    +0.000 C 
ATOM     28  C   UNL     1     113.224 130.276 141.262  0.00  0.00    +0.000 C 
ATOM     29  C   UNL     1     114.782 130.388 140.733  0.00  0.00    +0.000 C 
ATOM     30  C   UNL     1     113.531 129.699 140.758  0.00  0.00    +0.000 C 
ATOM     31  C   UNL     1     115.562 130.445 140.469  0.00  0.00    +0.000 C 
ENDBRANCH  21  30
ENDBRANCH   4  21
TORSDOF 3
ENDMDL
MODEL 9
REMARK VINA RESULT:      -9.2      8.685     10.760
REMARK  Name = 42607834
REMARK  3 active torsions:
REMARK  status: ('A' for Active; 'I' for Inactive)
REMARK    1  A    between atoms: O_2  and  C_15
REMARK    2  A    between atoms: O_2  and  C_17
REMARK    3  A    between atoms: C_18  and  C_25
REMARK                            x       y       z     vdW  Elec       q    Type
REMARK                         _______ _______ _______ _____ _____    ______ ____
ROOT
ATOM      1  O   UNL     1     106.150 125.446 143.748  0.00  0.00    +0.000 OA
ATOM      2  O   UNL     1     106.133 124.225 144.895  0.00  0.00    +0.000 OA
ATOM      3  O   UNL     1     105.510 127.758 144.356  0.00  0.00    +0.000 OA
ATOM      4  C   UNL     1     105.685 125.169 145.916  0.00  0.00    +0.000 A 
ATOM      5  C   UNL     1     106.162 126.041 143.176  0.00  0.00    +0.000 C 
ATOM      6  C   UNL     1     105.948 126.811 143.379  0.00  0.00    +0.000 C 
ATOM      7  C   UNL     1     105.926 125.621 144.521  0.00  0.00    +0.000 A 
ATOM      8  C   UNL     1     105.713 126.391 144.724  0.00  0.00    +0.000 A 
ATOM      9  C   UNL     1     105.918 124.993 145.108  0.00  0.00    +0.000 A 
ATOM     10  C   UNL     1     105.724 126.987 144.153  0.00  0.00    +0.000 C 
ATOM     11  C   UNL     1     105.463 125.972 146.127  0.00  0.00    +0.000 A 
ATOM     12  C   UNL     1     105.477 126.587 145.528  0.00  0.00    +0.000 A 
ENDROOT
BRANCH   5  15
ATOM     13  O   UNL     1     105.521 125.021 140.584  0.00  0.00    +0.000 OA
ATOM     14  O   UNL     1     107.059 125.339 140.079  0.00  0.00    +0.000 OA
ATOM     15  C   UNL     1     106.386 125.865 142.401  0.00  0.00    +0.000 A 
ATOM     16  C   UNL     1     105.841 125.531 141.880  0.00  0.00    +0.000 A 
ATOM     17  C   UNL     1     107.155 126.024 142.149  0.00  0.00    +0.000 A 
ATOM     18  C   UNL     1     106.065 125.356 141.106  0.00  0.00    +0.000 A 
ATOM     19  C   UNL     1     107.379 125.849 141.375  0.00  0.00    +0.000 A 
ATOM     20  C   UNL     1     106.834 125.514 140.853  0.00  0.00    +0.000 A 
ENDBRANCH   5  15
BRANCH   4  21
ATOM     21  O   UNL     1     105.675 124.572 146.485  0.00  0.00    +0.000 OA
BRANCH  21  30
ATOM     22  O   UNL     1     106.897 124.874 147.161  0.00  0.00    +0.000 OA
ATOM     23  O   UNL     1     105.778 124.517 149.340  0.00  0.00    +0.000 OA
ATOM     24  O   UNL     1     107.373 124.938 149.291  0.00  0.00    +0.000 OA
ATOM     25  O   UNL     1     104.929 124.334 147.937  0.00  0.00    +0.000 OA
ATOM     26  C   UNL     1     106.151 124.636 148.614  0.00  0.00    +0.000 C 
ATOM     27  C   UNL     1     106.948 124.846 148.589  0.00  0.00    +0.000 C 
ATOM     28  C   UNL     1     105.727 124.545 147.912  0.00  0.00    +0.000 C 
ATOM     29  C   UNL     1     107.321 124.965 147.862  0.00  0.00    +0.000 C 
ATOM     30  C   UNL     1     106.100 124.663 147.186  0.00  0.00    +0.000 C 
ATOM     31  C   UNL     1     108.119 125.176 147.838  0.00  0.00    +0.000 C 
ENDBRANCH  21  30
ENDBRANCH   4  21
TORSDOF 3
ENDMDL
MODEL 10
REMARK VINA RESULT:      -9.2      2.847      5.963
REMARK  Name = 42607834
REMARK  3 active torsions:
REMARK  status: ('A' for Active; 'I' for Inactive)
REMARK    1  A    between atoms: O_2  and  C_15
REMARK    2  A    between atoms: O_2  and  C_17
REMARK    3  A    between atoms: C_18  and  C_25
REMARK                            x       y       z     vdW  Elec       q    Type
REMARK                         _______ _______ _______ _____ _____    ______ ____
ROOT
ATOM      1  O   UNL     1     112.758 127.237 137.145  0.00  0.00    +0.000 OA
ATOM      2  O   UNL     1     111.741 128.179 138.087  0.00  0.00    +0.000 OA
ATOM      3  O   UNL     1     114.375 128.288 135.595  0.00  0.00    +0.000 OA
ATOM      4  C   UNL     1     112.316 129.395 137.519  0.00  0.00    +0.000 A 
ATOM      5  C   UNL     1     113.254 126.765 136.685  0.00  0.00    +0.000 C 
ATOM      6  C   UNL     1     113.793 127.115 136.169  0.00  0.00    +0.000 C 
ATOM      7  C   UNL     1     112.799 128.058 137.089  0.00  0.00    +0.000 A 
ATOM      8  C   UNL     1     113.338 128.409 136.572  0.00  0.00    +0.000 A 
ATOM      9  C   UNL     1     112.277 128.538 137.573  0.00  0.00    +0.000 A 
ATOM     10  C   UNL     1     113.835 127.937 136.112  0.00  0.00    +0.000 C 
ATOM     11  C   UNL     1     112.878 129.760 136.980  0.00  0.00    +0.000 A 
ATOM     12  C   UNL     1     113.392 129.264 136.503  0.00  0.00    +0.000 A 
ENDROOT
BRANCH   5  15
ATOM     13  O   UNL     1     111.870 124.316 136.176  0.00  0.00    +0.000 OA
ATOM     14  O   UNL     1     113.085 123.477 136.912  0.00  0.00    +0.000 OA
ATOM     15  C   UNL     1     113.212 125.942 136.742  0.00  0.00    +0.000 A 
ATOM     16  C   UNL     1     112.562 125.541 136.430  0.00  0.00    +0.000 A 
ATOM     17  C   UNL     1     113.819 125.523 137.110  0.00  0.00    +0.000 A 
ATOM     18  C   UNL     1     112.520 124.719 136.487  0.00  0.00    +0.000 A 
ATOM     19  C   UNL     1     113.777 124.701 137.166  0.00  0.00    +0.000 A 
ATOM     20  C   UNL     1     113.127 124.299 136.855  0.00  0.00    +0.000 A 
ENDBRANCH   5  15
BRANCH   4  21
ATOM     21  O   UNL     1     111.817 129.864 137.980  0.00  0.00    +0.000 OA
BRANCH  21  30
ATOM     22  O   UNL     1     110.946 130.290 136.931  0.00  0.00    +0.000 OA
ATOM     23  O   UNL     1     110.818 132.541 137.953  0.00  0.00    +0.000 OA
ATOM     24  O   UNL     1     109.989 132.218 136.563  0.00  0.00    +0.000 OA
ATOM     25  O   UNL     1     111.732 131.364 138.661  0.00  0.00    +0.000 OA
ATOM     26  C   UNL     1     110.861 131.791 137.612  0.00  0.00    +0.000 C 
ATOM     27  C   UNL     1     110.447 131.629 136.917  0.00  0.00    +0.000 C 
ATOM     28  C   UNL     1     111.317 131.202 137.966  0.00  0.00    +0.000 C 
ATOM     29  C   UNL     1     110.489 130.878 136.577  0.00  0.00    +0.000 C 
ATOM     30  C   UNL     1     111.360 130.452 137.625  0.00  0.00    +0.000 C 
ATOM     31  C   UNL     1     110.074 130.717 135.882  0.00  0.00    +0.000 C 
ENDBRANCH  21  30
ENDBRANCH   4  21
TORSDOF 3
ENDMDL
