MODEL 1
REMARK VINA RESULT:      -9.2      0.000      0.000
REMARK  Name = 42608110
REMARK  5 active torsions:
REMARK  status: ('A' for Active; 'I' for Inactive)
REMARK    1  A    between atoms: O_2  and  C_15
REMARK    2  A    between atoms: O_2  and  C_17
REMARK    3  A    between atoms: O_8  and  C_20
REMARK    4  A    between atoms: C_14  and  C_16
REMARK    5  A    between atoms: C_18  and  C_26
REMARK                            x       y       z     vdW  Elec       q    Type
REMARK                         _______ _______ _______ _____ _____    ______ ____
ROOT
ATOM      1  O   UNL     1     112.612 126.607 136.361  0.00  0.00    +0.000 OA
ATOM      2  O   UNL     1     109.928 126.106 135.398  0.00  0.00    +0.000 OA
ATOM      3  O   UNL     1     110.751 124.987 135.789  0.00  0.00    +0.000 OA
ATOM      4  C   UNL     1     111.020 127.977 135.664  0.00  0.00    +0.000 A 
ATOM      5  C   UNL     1     112.738 125.765 136.471  0.00  0.00    +0.000 C 
ATOM      6  C   UNL     1     111.857 126.886 136.058  0.00  0.00    +0.000 A 
ATOM      7  C   UNL     1     111.741 127.697 135.954  0.00  0.00    +0.000 A 
ATOM      8  C   UNL     1     111.252 126.356 135.873  0.00  0.00    +0.000 A 
ATOM      9  C   UNL     1     112.109 125.212 136.278  0.00  0.00    +0.000 C 
ATOM     10  C   UNL     1     110.417 127.446 135.479  0.00  0.00    +0.000 A 
ATOM     11  C   UNL     1     111.361 125.511 135.977  0.00  0.00    +0.000 C 
ATOM     12  C   UNL     1     110.533 126.636 135.583  0.00  0.00    +0.000 A 
ENDROOT
BRANCH   5  13
ATOM     13  C   UNL     1     113.459 125.488 136.761  0.00  0.00    +0.000 A 
ATOM     14  C   UNL     1     114.038 125.220 136.238  0.00  0.00    +0.000 A 
ATOM     15  C   UNL     1     113.601 125.479 137.573  0.00  0.00    +0.000 A 
ATOM     16  C   UNL     1     114.759 124.943 136.528  0.00  0.00    +0.000 A 
ATOM     17  C   UNL     1     114.321 125.202 137.864  0.00  0.00    +0.000 A 
ATOM     18  C   UNL     1     114.900 124.934 137.341  0.00  0.00    +0.000 A 
ENDBRANCH   5  13
BRANCH   7  19
ATOM     19  O   UNL     1     112.345 128.227 136.139  0.00  0.00    +0.000 OA
ATOM     20  C   UNL     1     112.849 128.502 135.547  0.00  0.00    +0.000 C 
ENDBRANCH   7  19
BRANCH   4  21
ATOM     21  O   UNL     1     110.905 128.787 135.560  0.00  0.00    +0.000 OA
BRANCH  21  30
ATOM     22  O   UNL     1     110.120 129.103 136.712  0.00  0.00    +0.000 OA
ATOM     23  O   UNL     1     108.544 130.375 135.291  0.00  0.00    +0.000 OA
ATOM     24  O   UNL     1     108.286 130.266 136.916  0.00  0.00    +0.000 OA
ATOM     25  O   UNL     1     109.854 129.635 134.613  0.00  0.00    +0.000 OA
ATOM     26  C   UNL     1     109.069 129.951 135.765  0.00  0.00    +0.000 C 
ATOM     27  C   UNL     1     108.940 129.896 136.577  0.00  0.00    +0.000 C 
ATOM     28  C   UNL     1     109.725 129.581 135.425  0.00  0.00    +0.000 C 
ATOM     29  C   UNL     1     109.466 129.472 137.051  0.00  0.00    +0.000 C 
ATOM     30  C   UNL     1     110.250 129.156 135.899  0.00  0.00    +0.000 C 
BRANCH  29  32
ATOM     31  O   UNL     1     109.971 129.471 138.388  0.00  0.00    +0.000 OA
ATOM     32  C   UNL     1     109.336 129.418 137.864  0.00  0.00    +0.000 C 
ENDBRANCH  29  32
ENDBRANCH  21  30
ENDBRANCH   4  21
TORSDOF 5
ENDMDL
MODEL 2
REMARK VINA RESULT:      -9.2      0.845      1.804
REMARK  Name = 42608110
REMARK  5 active torsions:
REMARK  status: ('A' for Active; 'I' for Inactive)
REMARK    1  A    between atoms: O_2  and  C_15
REMARK    2  A    between atoms: O_2  and  C_17
REMARK    3  A    between atoms: O_8  and  C_20
REMARK    4  A    between atoms: C_14  and  C_16
REMARK    5  A    between atoms: C_18  and  C_26
REMARK                            x       y       z     vdW  Elec       q    Type
REMARK                         _______ _______ _______ _____ _____    ______ ____
ROOT
ATOM      1  O   UNL     1     112.595 126.862 136.471  0.00  0.00    +0.000 OA
ATOM      2  O   UNL     1     112.645 129.605 135.549  0.00  0.00    +0.000 OA
ATOM      3  O   UNL     1     113.890 128.959 135.888  0.00  0.00    +0.000 OA
ATOM      4  C   UNL     1     110.975 128.233 135.851  0.00  0.00    +0.000 A 
ATOM      5  C   UNL     1     113.450 126.865 136.553  0.00  0.00    +0.000 C 
ATOM      6  C   UNL     1     112.193 127.569 136.193  0.00  0.00    +0.000 A 
ATOM      7  C   UNL     1     111.372 127.560 136.117  0.00  0.00    +0.000 A 
ATOM      8  C   UNL     1     112.617 128.251 136.004  0.00  0.00    +0.000 A 
ATOM      9  C   UNL     1     113.893 127.575 136.356  0.00  0.00    +0.000 C 
ATOM     10  C   UNL     1     111.399 128.914 135.662  0.00  0.00    +0.000 A 
ATOM     11  C   UNL     1     113.473 128.273 136.079  0.00  0.00    +0.000 C 
ATOM     12  C   UNL     1     112.221 128.923 135.738  0.00  0.00    +0.000 A 
ENDROOT
BRANCH   5  13
ATOM     13  C   UNL     1     113.845 126.191 136.819  0.00  0.00    +0.000 A 
ATOM     14  C   UNL     1     114.214 125.689 136.278  0.00  0.00    +0.000 A 
ATOM     15  C   UNL     1     113.870 126.020 137.625  0.00  0.00    +0.000 A 
ATOM     16  C   UNL     1     114.608 125.015 136.544  0.00  0.00    +0.000 A 
ATOM     17  C   UNL     1     114.264 125.346 137.892  0.00  0.00    +0.000 A 
ATOM     18  C   UNL     1     114.633 124.844 137.351  0.00  0.00    +0.000 A 
ENDBRANCH   5  13
BRANCH   7  19
ATOM     19  O   UNL     1     110.947 126.879 136.306  0.00  0.00    +0.000 OA
ATOM     20  C   UNL     1     110.749 126.338 135.715  0.00  0.00    +0.000 C 
ENDBRANCH   7  19
BRANCH   4  21
ATOM     21  O   UNL     1     110.153 128.224 135.775  0.00  0.00    +0.000 OA
BRANCH  21  30
ATOM     22  O   UNL     1     109.773 129.015 136.902  0.00  0.00    +0.000 OA
ATOM     23  O   UNL     1     108.206 130.295 135.476  0.00  0.00    +0.000 OA
ATOM     24  O   UNL     1     108.349 130.659 137.078  0.00  0.00    +0.000 OA
ATOM     25  O   UNL     1     109.109 129.077 134.824  0.00  0.00    +0.000 OA
ATOM     26  C   UNL     1     108.728 129.868 135.951  0.00  0.00    +0.000 C 
ATOM     27  C   UNL     1     108.800 130.050 136.753  0.00  0.00    +0.000 C 
ATOM     28  C   UNL     1     109.180 129.259 135.625  0.00  0.00    +0.000 C 
ATOM     29  C   UNL     1     109.322 129.624 137.228  0.00  0.00    +0.000 C 
ATOM     30  C   UNL     1     109.702 128.832 136.101  0.00  0.00    +0.000 C 
BRANCH  29  32
ATOM     31  O   UNL     1     109.358 129.206 138.594  0.00  0.00    +0.000 OA
ATOM     32  C   UNL     1     109.393 129.806 138.029  0.00  0.00    +0.000 C 
ENDBRANCH  29  32
ENDBRANCH  21  30
ENDBRANCH   4  21
TORSDOF 5
ENDMDL
MODEL 3
REMARK VINA RESULT:      -8.9      1.435      2.252
REMARK  Name = 42608110
REMARK  5 active torsions:
REMARK  status: ('A' for Active; 'I' for Inactive)
REMARK    1  A    between atoms: O_2  and  C_15
REMARK    2  A    between atoms: O_2  and  C_17
REMARK    3  A    between atoms: O_8  and  C_20
REMARK    4  A    between atoms: C_14  and  C_16
REMARK    5  A    between atoms: C_18  and  C_26
REMARK                            x       y       z     vdW  Elec       q    Type
REMARK                         _______ _______ _______ _____ _____    ______ ____
ROOT
ATOM      1  O   UNL     1     112.596 126.955 137.245  0.00  0.00    +0.000 OA
ATOM      2  O   UNL     1     112.647 129.501 135.867  0.00  0.00    +0.000 OA
ATOM      3  O   UNL     1     113.679 128.532 135.585  0.00  0.00    +0.000 OA
ATOM      4  C   UNL     1     111.255 128.711 137.351  0.00  0.00    +0.000 A 
ATOM      5  C   UNL     1     113.306 126.708 136.830  0.00  0.00    +0.000 C 
ATOM      6  C   UNL     1     112.265 127.733 137.090  0.00  0.00    +0.000 A 
ATOM      7  C   UNL     1     111.583 127.966 137.491  0.00  0.00    +0.000 A 
ATOM      8  C   UNL     1     112.619 128.245 136.549  0.00  0.00    +0.000 A 
ATOM      9  C   UNL     1     113.676 127.240 136.266  0.00  0.00    +0.000 C 
ATOM     10  C   UNL     1     111.610 129.221 136.810  0.00  0.00    +0.000 A 
ATOM     11  C   UNL     1     113.330 128.014 136.125  0.00  0.00    +0.000 C 
ATOM     12  C   UNL     1     112.292 128.989 136.409  0.00  0.00    +0.000 A 
ENDROOT
BRANCH   5  13
ATOM     13  C   UNL     1     113.632 125.963 136.972  0.00  0.00    +0.000 A 
ATOM     14  C   UNL     1     113.368 125.309 136.544  0.00  0.00    +0.000 A 
ATOM     15  C   UNL     1     114.221 125.872 137.542  0.00  0.00    +0.000 A 
ATOM     16  C   UNL     1     113.693 124.564 136.686  0.00  0.00    +0.000 A 
ATOM     17  C   UNL     1     114.547 125.128 137.685  0.00  0.00    +0.000 A 
ATOM     18  C   UNL     1     114.283 124.474 137.257  0.00  0.00    +0.000 A 
ENDBRANCH   5  13
BRANCH   7  19
ATOM     19  O   UNL     1     111.227 127.455 138.033  0.00  0.00    +0.000 OA
ATOM     20  C   UNL     1     111.405 127.516 138.836  0.00  0.00    +0.000 C 
ENDBRANCH   7  19
BRANCH   4  21
ATOM     21  O   UNL     1     110.573 128.943 137.753  0.00  0.00    +0.000 OA
BRANCH  21  30
ATOM     22  O   UNL     1     109.601 128.748 136.723  0.00  0.00    +0.000 OA
ATOM     23  O   UNL     1     108.577 130.932 137.275  0.00  0.00    +0.000 OA
ATOM     24  O   UNL     1     107.947 130.009 136.062  0.00  0.00    +0.000 OA
ATOM     25  O   UNL     1     109.890 130.400 138.120  0.00  0.00    +0.000 OA
ATOM     26  C   UNL     1     108.918 130.204 137.091  0.00  0.00    +0.000 C 
ATOM     27  C   UNL     1     108.604 129.742 136.485  0.00  0.00    +0.000 C 
ATOM     28  C   UNL     1     109.575 129.937 137.514  0.00  0.00    +0.000 C 
ATOM     29  C   UNL     1     108.945 129.014 136.301  0.00  0.00    +0.000 C 
ATOM     30  C   UNL     1     109.917 129.209 137.330  0.00  0.00    +0.000 C 
BRANCH  29  32
ATOM     31  O   UNL     1     108.443 127.761 135.832  0.00  0.00    +0.000 OA
ATOM     32  C   UNL     1     108.630 128.552 135.694  0.00  0.00    +0.000 C 
ENDBRANCH  29  32
ENDBRANCH  21  30
ENDBRANCH   4  21
TORSDOF 5
ENDMDL
MODEL 4
REMARK VINA RESULT:      -8.8      1.435      1.568
REMARK  Name = 42608110
REMARK  5 active torsions:
REMARK  status: ('A' for Active; 'I' for Inactive)
REMARK    1  A    between atoms: O_2  and  C_15
REMARK    2  A    between atoms: O_2  and  C_17
REMARK    3  A    between atoms: O_8  and  C_20
REMARK    4  A    between atoms: C_14  and  C_16
REMARK    5  A    between atoms: C_18  and  C_26
REMARK                            x       y       z     vdW  Elec       q    Type
REMARK                         _______ _______ _______ _____ _____    ______ ____
ROOT
ATOM      1  O   UNL     1     111.986 126.151 136.966  0.00  0.00    +0.000 OA
ATOM      2  O   UNL     1     109.462 126.278 138.379  0.00  0.00    +0.000 OA
ATOM      3  O   UNL     1     110.495 125.397 138.869  0.00  0.00    +0.000 OA
ATOM      4  C   UNL     1     110.152 127.329 136.594  0.00  0.00    +0.000 A 
ATOM      5  C   UNL     1     112.280 125.571 137.528  0.00  0.00    +0.000 C 
ATOM      6  C   UNL     1     111.191 126.464 137.059  0.00  0.00    +0.000 A 
ATOM      7  C   UNL     1     110.914 127.021 136.516  0.00  0.00    +0.000 A 
ATOM      8  C   UNL     1     110.707 126.217 137.680  0.00  0.00    +0.000 A 
ATOM      9  C   UNL     1     111.777 125.313 138.175  0.00  0.00    +0.000 C 
ATOM     10  C   UNL     1     109.669 127.082 137.215  0.00  0.00    +0.000 A 
ATOM     11  C   UNL     1     110.985 125.639 138.251  0.00  0.00    +0.000 C 
ATOM     12  C   UNL     1     109.946 126.526 137.758  0.00  0.00    +0.000 A 
ENDROOT
BRANCH   5  13
ATOM     13  C   UNL     1     113.042 125.264 137.447  0.00  0.00    +0.000 A 
ATOM     14  C   UNL     1     113.680 125.645 137.806  0.00  0.00    +0.000 A 
ATOM     15  C   UNL     1     113.165 124.577 137.008  0.00  0.00    +0.000 A 
ATOM     16  C   UNL     1     114.442 125.338 137.725  0.00  0.00    +0.000 A 
ATOM     17  C   UNL     1     113.926 124.269 136.927  0.00  0.00    +0.000 A 
ATOM     18  C   UNL     1     114.564 124.650 137.286  0.00  0.00    +0.000 A 
ENDBRANCH   5  13
BRANCH   7  19
ATOM     19  O   UNL     1     111.397 127.268 135.895  0.00  0.00    +0.000 OA
ATOM     20  C   UNL     1     111.324 126.920 135.151  0.00  0.00    +0.000 C 
ENDBRANCH   7  19
BRANCH   4  21
ATOM     21  O   UNL     1     109.875 127.886 136.052  0.00  0.00    +0.000 OA
BRANCH  21  30
ATOM     22  O   UNL     1     109.955 129.056 136.868  0.00  0.00    +0.000 OA
ATOM     23  O   UNL     1     107.751 129.798 136.020  0.00  0.00    +0.000 OA
ATOM     24  O   UNL     1     108.566 130.720 137.118  0.00  0.00    +0.000 OA
ATOM     25  O   UNL     1     108.406 128.381 135.487  0.00  0.00    +0.000 OA
ATOM     26  C   UNL     1     108.486 129.551 136.303  0.00  0.00    +0.000 C 
ATOM     27  C   UNL     1     108.894 130.012 136.852  0.00  0.00    +0.000 C 
ATOM     28  C   UNL     1     108.813 128.841 136.036  0.00  0.00    +0.000 C 
ATOM     29  C   UNL     1     109.628 129.764 137.134  0.00  0.00    +0.000 C 
ATOM     30  C   UNL     1     109.548 128.594 136.318  0.00  0.00    +0.000 C 
BRANCH  29  32
ATOM     31  O   UNL     1     110.847 130.345 137.601  0.00  0.00    +0.000 OA
ATOM     32  C   UNL     1     110.035 130.225 137.683  0.00  0.00    +0.000 C 
ENDBRANCH  29  32
ENDBRANCH  21  30
ENDBRANCH   4  21
TORSDOF 5
ENDMDL
MODEL 5
REMARK VINA RESULT:      -8.7      2.143      3.447
REMARK  Name = 42608110
REMARK  5 active torsions:
REMARK  status: ('A' for Active; 'I' for Inactive)
REMARK    1  A    between atoms: O_2  and  C_15
REMARK    2  A    between atoms: O_2  and  C_17
REMARK    3  A    between atoms: O_8  and  C_20
REMARK    4  A    between atoms: C_14  and  C_16
REMARK    5  A    between atoms: C_18  and  C_26
REMARK                            x       y       z     vdW  Elec       q    Type
REMARK                         _______ _______ _______ _____ _____    ______ ____
ROOT
ATOM      1  O   UNL     1     110.298 128.187 135.846  0.00  0.00    +0.000 OA
ATOM      2  O   UNL     1     108.005 129.947 136.014  0.00  0.00    +0.000 OA
ATOM      3  O   UNL     1     107.791 128.539 135.784  0.00  0.00    +0.000 OA
ATOM      4  C   UNL     1     110.141 130.368 136.180  0.00  0.00    +0.000 A 
ATOM      5  C   UNL     1     109.781 127.513 135.717  0.00  0.00    +0.000 C 
ATOM      6  C   UNL     1     109.956 128.968 135.952  0.00  0.00    +0.000 A 
ATOM      7  C   UNL     1     110.457 129.612 136.077  0.00  0.00    +0.000 A 
ATOM      8  C   UNL     1     109.139 129.081 135.932  0.00  0.00    +0.000 A 
ATOM      9  C   UNL     1     108.930 127.629 135.695  0.00  0.00    +0.000 C 
ATOM     10  C   UNL     1     109.324 130.479 136.159  0.00  0.00    +0.000 A 
ATOM     11  C   UNL     1     108.607 128.418 135.803  0.00  0.00    +0.000 C 
ATOM     12  C   UNL     1     108.823 129.835 136.035  0.00  0.00    +0.000 A 
ENDROOT
BRANCH   5  13
ATOM     13  C   UNL     1     110.100 126.759 135.614  0.00  0.00    +0.000 A 
ATOM     14  C   UNL     1     110.357 126.327 136.268  0.00  0.00    +0.000 A 
ATOM     15  C   UNL     1     110.161 126.437 134.856  0.00  0.00    +0.000 A 
ATOM     16  C   UNL     1     110.676 125.573 136.165  0.00  0.00    +0.000 A 
ATOM     17  C   UNL     1     110.480 125.684 134.753  0.00  0.00    +0.000 A 
ATOM     18  C   UNL     1     110.737 125.252 135.407  0.00  0.00    +0.000 A 
ENDBRANCH   5  13
BRANCH   7  19
ATOM     19  O   UNL     1     111.274 129.501 136.098  0.00  0.00    +0.000 OA
ATOM     20  C   UNL     1     111.721 129.593 135.410  0.00  0.00    +0.000 C 
ENDBRANCH   7  19
BRANCH   4  21
ATOM     21  O   UNL     1     110.642 131.011 136.304  0.00  0.00    +0.000 OA
BRANCH  21  30
ATOM     22  O   UNL     1     110.424 131.216 137.702  0.00  0.00    +0.000 OA
ATOM     23  O   UNL     1     110.283 133.658 137.322  0.00  0.00    +0.000 OA
ATOM     24  O   UNL     1     110.112 133.048 138.845  0.00  0.00    +0.000 OA
ATOM     25  O   UNL     1     110.548 132.639 136.051  0.00  0.00    +0.000 OA
ATOM     26  C   UNL     1     110.330 132.844 137.448  0.00  0.00    +0.000 C 
ATOM     27  C   UNL     1     110.245 132.539 138.210  0.00  0.00    +0.000 C 
ATOM     28  C   UNL     1     110.463 132.334 136.813  0.00  0.00    +0.000 C 
ATOM     29  C   UNL     1     110.292 131.725 138.337  0.00  0.00    +0.000 C 
ATOM     30  C   UNL     1     110.510 131.520 136.939  0.00  0.00    +0.000 C 
BRANCH  29  32
ATOM     31  O   UNL     1     110.751 130.872 139.387  0.00  0.00    +0.000 OA
ATOM     32  C   UNL     1     110.206 131.420 139.098  0.00  0.00    +0.000 C 
ENDBRANCH  29  32
ENDBRANCH  21  30
ENDBRANCH   4  21
TORSDOF 5
ENDMDL
MODEL 6
REMARK VINA RESULT:      -8.7      7.046     10.405
REMARK  Name = 42608110
REMARK  5 active torsions:
REMARK  status: ('A' for Active; 'I' for Inactive)
REMARK    1  A    between atoms: O_2  and  C_15
REMARK    2  A    between atoms: O_2  and  C_17
REMARK    3  A    between atoms: O_8  and  C_20
REMARK    4  A    between atoms: C_14  and  C_16
REMARK    5  A    between atoms: C_18  and  C_26
REMARK                            x       y       z     vdW  Elec       q    Type
REMARK                         _______ _______ _______ _____ _____    ______ ____
ROOT
ATOM      1  O   UNL     1     103.292 130.348 142.108  0.00  0.00    +0.000 OA
ATOM      2  O   UNL     1     103.915 127.969 140.582  0.00  0.00    +0.000 OA
ATOM      3  O   UNL     1     102.905 128.873 140.087  0.00  0.00    +0.000 OA
ATOM      4  C   UNL     1     104.734 128.710 142.464  0.00  0.00    +0.000 A 
ATOM      5  C   UNL     1     102.706 130.579 141.525  0.00  0.00    +0.000 C 
ATOM      6  C   UNL     1     103.738 129.622 141.997  0.00  0.00    +0.000 A 
ATOM      7  C   UNL     1     104.300 129.405 142.560  0.00  0.00    +0.000 A 
ATOM      8  C   UNL     1     103.610 129.143 141.337  0.00  0.00    +0.000 A 
ATOM      9  C   UNL     1     102.571 130.080 140.838  0.00  0.00    +0.000 C 
ATOM     10  C   UNL     1     104.605 128.231 141.805  0.00  0.00    +0.000 A 
ATOM     11  C   UNL     1     103.027 129.357 140.744  0.00  0.00    +0.000 C 
ATOM     12  C   UNL     1     104.043 128.448 141.241  0.00  0.00    +0.000 A 
ENDROOT
BRANCH   5  13
ATOM     13  C   UNL     1     102.273 131.274 141.623  0.00  0.00    +0.000 A 
ATOM     14  C   UNL     1     102.604 132.000 141.410  0.00  0.00    +0.000 A 
ATOM     15  C   UNL     1     101.510 131.245 141.935  0.00  0.00    +0.000 A 
ATOM     16  C   UNL     1     102.172 132.695 141.508  0.00  0.00    +0.000 A 
ATOM     17  C   UNL     1     101.077 131.940 142.034  0.00  0.00    +0.000 A 
ATOM     18  C   UNL     1     101.408 132.665 141.820  0.00  0.00    +0.000 A 
ENDBRANCH   5  13
BRANCH   7  19
ATOM     19  O   UNL     1     104.429 129.883 143.220  0.00  0.00    +0.000 OA
ATOM     20  C   UNL     1     104.044 129.719 143.931  0.00  0.00    +0.000 C 
ENDBRANCH   7  19
BRANCH   4  21
ATOM     21  O   UNL     1     105.296 128.493 143.028  0.00  0.00    +0.000 OA
BRANCH  21  30
ATOM     22  O   UNL     1     106.504 128.800 142.328  0.00  0.00    +0.000 OA
ATOM     23  O   UNL     1     107.453 126.618 143.006  0.00  0.00    +0.000 OA
ATOM     24  O   UNL     1     108.343 127.653 142.081  0.00  0.00    +0.000 OA
ATOM     25  O   UNL     1     105.929 127.038 143.480  0.00  0.00    +0.000 OA
ATOM     26  C   UNL     1     107.136 127.345 142.780  0.00  0.00    +0.000 C 
ATOM     27  C   UNL     1     107.581 127.863 142.317  0.00  0.00    +0.000 C 
ATOM     28  C   UNL     1     106.374 127.556 143.017  0.00  0.00    +0.000 C 
ATOM     29  C   UNL     1     107.265 128.591 142.091  0.00  0.00    +0.000 C 
ATOM     30  C   UNL     1     106.058 128.283 142.791  0.00  0.00    +0.000 C 
BRANCH  29  32
ATOM     31  O   UNL     1     107.394 129.413 140.930  0.00  0.00    +0.000 OA
ATOM     32  C   UNL     1     107.710 129.108 141.628  0.00  0.00    +0.000 C 
ENDBRANCH  29  32
ENDBRANCH  21  30
ENDBRANCH   4  21
TORSDOF 5
ENDMDL
MODEL 7
REMARK VINA RESULT:      -8.7      2.158      2.995
REMARK  Name = 42608110
REMARK  5 active torsions:
REMARK  status: ('A' for Active; 'I' for Inactive)
REMARK    1  A    between atoms: O_2  and  C_15
REMARK    2  A    between atoms: O_2  and  C_17
REMARK    3  A    between atoms: O_8  and  C_20
REMARK    4  A    between atoms: C_14  and  C_16
REMARK    5  A    between atoms: C_18  and  C_26
REMARK                            x       y       z     vdW  Elec       q    Type
REMARK                         _______ _______ _______ _____ _____    ______ ____
ROOT
ATOM      1  O   UNL     1     113.146 127.025 137.760  0.00  0.00    +0.000 OA
ATOM      2  O   UNL     1     112.819 128.461 140.253  0.00  0.00    +0.000 OA
ATOM      3  O   UNL     1     113.302 127.101 140.287  0.00  0.00    +0.000 OA
ATOM      4  C   UNL     1     112.450 129.080 138.192  0.00  0.00    +0.000 A 
ATOM      5  C   UNL     1     113.422 126.333 138.186  0.00  0.00    +0.000 C 
ATOM      6  C   UNL     1     112.928 127.732 138.198  0.00  0.00    +0.000 A 
ATOM      7  C   UNL     1     112.663 128.395 137.783  0.00  0.00    +0.000 A 
ATOM      8  C   UNL     1     112.979 127.755 139.021  0.00  0.00    +0.000 A 
ATOM      9  C   UNL     1     113.476 126.355 139.043  0.00  0.00    +0.000 C 
ATOM     10  C   UNL     1     112.503 129.101 139.015  0.00  0.00    +0.000 A 
ATOM     11  C   UNL     1     113.253 127.071 139.463  0.00  0.00    +0.000 C 
ATOM     12  C   UNL     1     112.767 128.438 139.430  0.00  0.00    +0.000 A 
ENDROOT
BRANCH   5  13
ATOM     13  C   UNL     1     113.634 125.649 137.775  0.00  0.00    +0.000 A 
ATOM     14  C   UNL     1     114.430 125.472 137.651  0.00  0.00    +0.000 A 
ATOM     15  C   UNL     1     113.049 125.143 137.487  0.00  0.00    +0.000 A 
ATOM     16  C   UNL     1     114.642 124.789 137.240  0.00  0.00    +0.000 A 
ATOM     17  C   UNL     1     113.260 124.461 137.075  0.00  0.00    +0.000 A 
ATOM     18  C   UNL     1     114.057 124.284 136.952  0.00  0.00    +0.000 A 
ENDBRANCH   5  13
BRANCH   7  19
ATOM     19  O   UNL     1     112.611 128.374 136.960  0.00  0.00    +0.000 OA
ATOM     20  C   UNL     1     113.235 128.655 136.500  0.00  0.00    +0.000 C 
ENDBRANCH   7  19
BRANCH   4  21
ATOM     21  O   UNL     1     112.186 129.743 137.778  0.00  0.00    +0.000 OA
BRANCH  21  30
ATOM     22  O   UNL     1     110.792 129.689 138.089  0.00  0.00    +0.000 OA
ATOM     23  O   UNL     1     110.799 132.124 138.533  0.00  0.00    +0.000 OA
ATOM     24  O   UNL     1     109.404 131.260 138.696  0.00  0.00    +0.000 OA
ATOM     25  O   UNL     1     112.190 131.366 138.074  0.00  0.00    +0.000 OA
ATOM     26  C   UNL     1     110.796 131.313 138.385  0.00  0.00    +0.000 C 
ATOM     27  C   UNL     1     110.099 130.880 138.467  0.00  0.00    +0.000 C 
ATOM     28  C   UNL     1     111.493 130.933 138.155  0.00  0.00    +0.000 C 
ATOM     29  C   UNL     1     110.097 130.068 138.319  0.00  0.00    +0.000 C 
ATOM     30  C   UNL     1     111.491 130.121 138.008  0.00  0.00    +0.000 C 
BRANCH  29  32
ATOM     31  O   UNL     1     109.201 129.062 137.842  0.00  0.00    +0.000 OA
ATOM     32  C   UNL     1     109.399 129.636 138.400  0.00  0.00    +0.000 C 
ENDBRANCH  29  32
ENDBRANCH  21  30
ENDBRANCH   4  21
TORSDOF 5
ENDMDL
MODEL 8
REMARK VINA RESULT:      -8.6      8.526     10.483
REMARK  Name = 42608110
REMARK  5 active torsions:
REMARK  status: ('A' for Active; 'I' for Inactive)
REMARK    1  A    between atoms: O_2  and  C_15
REMARK    2  A    between atoms: O_2  and  C_17
REMARK    3  A    between atoms: O_8  and  C_20
REMARK    4  A    between atoms: C_14  and  C_16
REMARK    5  A    between atoms: C_18  and  C_26
REMARK                            x       y       z     vdW  Elec       q    Type
REMARK                         _______ _______ _______ _____ _____    ______ ____
ROOT
ATOM      1  O   UNL     1     106.693 125.900 146.353  0.00  0.00    +0.000 OA
ATOM      2  O   UNL     1     105.616 128.533 145.814  0.00  0.00    +0.000 OA
ATOM      3  O   UNL     1     105.972 128.187 147.170  0.00  0.00    +0.000 OA
ATOM      4  C   UNL     1     106.021 126.857 144.476  0.00  0.00    +0.000 A 
ATOM      5  C   UNL     1     106.761 126.091 147.188  0.00  0.00    +0.000 C 
ATOM      6  C   UNL     1     106.382 126.488 145.809  0.00  0.00    +0.000 A 
ATOM      7  C   UNL     1     106.318 126.300 145.008  0.00  0.00    +0.000 A 
ATOM      8  C   UNL     1     106.148 127.233 146.077  0.00  0.00    +0.000 A 
ATOM      9  C   UNL     1     106.518 126.866 147.469  0.00  0.00    +0.000 C 
ATOM     10  C   UNL     1     105.787 127.601 144.745  0.00  0.00    +0.000 A 
ATOM     11  C   UNL     1     106.209 127.440 146.909  0.00  0.00    +0.000 C 
ATOM     12  C   UNL     1     105.850 127.789 145.546  0.00  0.00    +0.000 A 
ENDROOT
BRANCH   5  13
ATOM     13  C   UNL     1     107.059 125.533 147.718  0.00  0.00    +0.000 A 
ATOM     14  C   UNL     1     107.872 125.401 147.765  0.00  0.00    +0.000 A 
ATOM     15  C   UNL     1     106.544 125.107 148.201  0.00  0.00    +0.000 A 
ATOM     16  C   UNL     1     108.170 124.843 148.295  0.00  0.00    +0.000 A 
ATOM     17  C   UNL     1     106.840 124.549 148.731  0.00  0.00    +0.000 A 
ATOM     18  C   UNL     1     107.653 124.417 148.778  0.00  0.00    +0.000 A 
ENDBRANCH   5  13
BRANCH   7  19
ATOM     19  O   UNL     1     106.552 125.557 144.739  0.00  0.00    +0.000 OA
ATOM     20  C   UNL     1     105.995 124.954 144.655  0.00  0.00    +0.000 C 
ENDBRANCH   7  19
BRANCH   4  21
ATOM     21  O   UNL     1     105.957 126.669 143.675  0.00  0.00    +0.000 OA
BRANCH  21  30
ATOM     22  O   UNL     1     107.032 127.436 143.128  0.00  0.00    +0.000 OA
ATOM     23  O   UNL     1     105.530 128.271 141.347  0.00  0.00    +0.000 OA
ATOM     24  O   UNL     1     107.105 128.758 141.394  0.00  0.00    +0.000 OA
ATOM     25  O   UNL     1     104.956 127.226 142.488  0.00  0.00    +0.000 OA
ATOM     26  C   UNL     1     106.031 127.992 141.941  0.00  0.00    +0.000 C 
ATOM     27  C   UNL     1     106.819 128.236 141.965  0.00  0.00    +0.000 C 
ATOM     28  C   UNL     1     105.744 127.469 142.512  0.00  0.00    +0.000 C 
ATOM     29  C   UNL     1     107.319 127.958 142.559  0.00  0.00    +0.000 C 
ATOM     30  C   UNL     1     106.244 127.191 143.105  0.00  0.00    +0.000 C 
BRANCH  29  32
ATOM     31  O   UNL     1     108.701 127.662 142.773  0.00  0.00    +0.000 OA
ATOM     32  C   UNL     1     108.106 128.202 142.582  0.00  0.00    +0.000 C 
ENDBRANCH  29  32
ENDBRANCH  21  30
ENDBRANCH   4  21
TORSDOF 5
ENDMDL
MODEL 9
REMARK VINA RESULT:      -8.6      3.468      4.394
REMARK  Name = 42608110
REMARK  5 active torsions:
REMARK  status: ('A' for Active; 'I' for Inactive)
REMARK    1  A    between atoms: O_2  and  C_15
REMARK    2  A    between atoms: O_2  and  C_17
REMARK    3  A    between atoms: O_8  and  C_20
REMARK    4  A    between atoms: C_14  and  C_16
REMARK    5  A    between atoms: C_18  and  C_26
REMARK                            x       y       z     vdW  Elec       q    Type
REMARK                         _______ _______ _______ _____ _____    ______ ____
ROOT
ATOM      1  O   UNL     1     111.864 125.679 138.209  0.00  0.00    +0.000 OA
ATOM      2  O   UNL     1     109.128 126.451 137.661  0.00  0.00    +0.000 OA
ATOM      3  O   UNL     1     109.968 126.025 136.567  0.00  0.00    +0.000 OA
ATOM      4  C   UNL     1     110.242 126.384 139.537  0.00  0.00    +0.000 A 
ATOM      5  C   UNL     1     111.993 125.514 137.376  0.00  0.00    +0.000 C 
ATOM      6  C   UNL     1     111.095 125.958 138.472  0.00  0.00    +0.000 A 
ATOM      7  C   UNL     1     110.977 126.115 139.273  0.00  0.00    +0.000 A 
ATOM      8  C   UNL     1     110.478 126.070 137.935  0.00  0.00    +0.000 A 
ATOM      9  C   UNL     1     111.352 125.631 136.816  0.00  0.00    +0.000 C 
ATOM     10  C   UNL     1     109.627 126.495 139.000  0.00  0.00    +0.000 A 
ATOM     11  C   UNL     1     110.589 125.911 137.098  0.00  0.00    +0.000 C 
ATOM     12  C   UNL     1     109.745 126.339 138.198  0.00  0.00    +0.000 A 
ENDROOT
BRANCH   5  13
ATOM     13  C   UNL     1     112.728 125.246 137.115  0.00  0.00    +0.000 A 
ATOM     14  C   UNL     1     113.299 125.786 136.864  0.00  0.00    +0.000 A 
ATOM     15  C   UNL     1     112.892 124.437 137.103  0.00  0.00    +0.000 A 
ATOM     16  C   UNL     1     114.034 125.518 136.603  0.00  0.00    +0.000 A 
ATOM     17  C   UNL     1     113.626 124.168 136.842  0.00  0.00    +0.000 A 
ATOM     18  C   UNL     1     114.198 124.708 136.592  0.00  0.00    +0.000 A 
ENDBRANCH   5  13
BRANCH   7  19
ATOM     19  O   UNL     1     111.592 126.003 139.811  0.00  0.00    +0.000 OA
ATOM     20  C   UNL     1     112.077 126.637 140.022  0.00  0.00    +0.000 C 
ENDBRANCH   7  19
BRANCH   4  21
ATOM     21  O   UNL     1     110.124 126.540 140.339  0.00  0.00    +0.000 OA
BRANCH  21  30
ATOM     22  O   UNL     1     109.243 125.468 140.678  0.00  0.00    +0.000 OA
ATOM     23  O   UNL     1     107.803 127.045 141.928  0.00  0.00    +0.000 OA
ATOM     24  O   UNL     1     107.403 125.447 141.850  0.00  0.00    +0.000 OA
ATOM     25  O   UNL     1     109.164 127.592 141.172  0.00  0.00    +0.000 OA
ATOM     26  C   UNL     1     108.283 126.519 141.511  0.00  0.00    +0.000 C 
ATOM     27  C   UNL     1     108.083 125.720 141.472  0.00  0.00    +0.000 C 
ATOM     28  C   UNL     1     108.964 126.793 141.133  0.00  0.00    +0.000 C 
ATOM     29  C   UNL     1     108.563 125.194 141.055  0.00  0.00    +0.000 C 
ATOM     30  C   UNL     1     109.444 126.267 140.716  0.00  0.00    +0.000 C 
BRANCH  29  32
ATOM     31  O   UNL     1     108.918 123.820 141.217  0.00  0.00    +0.000 OA
ATOM     32  C   UNL     1     108.363 124.396 141.016  0.00  0.00    +0.000 C 
ENDBRANCH  29  32
ENDBRANCH  21  30
ENDBRANCH   4  21
TORSDOF 5
ENDMDL
MODEL 10
REMARK VINA RESULT:      -8.6      1.859      5.078
REMARK  Name = 42608110
REMARK  5 active torsions:
REMARK  status: ('A' for Active; 'I' for Inactive)
REMARK    1  A    between atoms: O_2  and  C_15
REMARK    2  A    between atoms: O_2  and  C_17
REMARK    3  A    between atoms: O_8  and  C_20
REMARK    4  A    between atoms: C_14  and  C_16
REMARK    5  A    between atoms: C_18  and  C_26
REMARK                            x       y       z     vdW  Elec       q    Type
REMARK                         _______ _______ _______ _____ _____    ______ ____
ROOT
ATOM      1  O   UNL     1     110.230 130.447 136.199  0.00  0.00    +0.000 OA
ATOM      2  O   UNL     1     108.102 128.529 135.780  0.00  0.00    +0.000 OA
ATOM      3  O   UNL     1     107.763 129.877 136.167  0.00  0.00    +0.000 OA
ATOM      4  C   UNL     1     110.268 128.315 135.612  0.00  0.00    +0.000 A 
ATOM      5  C   UNL     1     109.655 131.054 136.394  0.00  0.00    +0.000 C 
ATOM      6  C   UNL     1     109.959 129.657 135.996  0.00  0.00    +0.000 A 
ATOM      7  C   UNL     1     110.516 129.077 135.809  0.00  0.00    +0.000 A 
ATOM      8  C   UNL     1     109.155 129.473 135.986  0.00  0.00    +0.000 A 
ATOM      9  C   UNL     1     108.817 130.864 136.384  0.00  0.00    +0.000 C 
ATOM     10  C   UNL     1     109.463 128.133 135.603  0.00  0.00    +0.000 A 
ATOM     11  C   UNL     1     108.565 130.068 136.179  0.00  0.00    +0.000 C 
ATOM     12  C   UNL     1     108.907 128.712 135.790  0.00  0.00    +0.000 A 
ENDROOT
BRANCH   5  13
ATOM     13  C   UNL     1     109.906 131.815 136.590  0.00  0.00    +0.000 A 
ATOM     14  C   UNL     1     109.897 132.412 136.020  0.00  0.00    +0.000 A 
ATOM     15  C   UNL     1     110.164 131.980 137.356  0.00  0.00    +0.000 A 
ATOM     16  C   UNL     1     110.148 133.173 136.216  0.00  0.00    +0.000 A 
ATOM     17  C   UNL     1     110.415 132.740 137.553  0.00  0.00    +0.000 A 
ATOM     18  C   UNL     1     110.407 133.337 136.983  0.00  0.00    +0.000 A 
ENDBRANCH   5  13
BRANCH   7  19
ATOM     19  O   UNL     1     111.320 129.259 135.818  0.00  0.00    +0.000 OA
ATOM     20  C   UNL     1     111.706 129.463 135.118  0.00  0.00    +0.000 C 
ENDBRANCH   7  19
BRANCH   4  21
ATOM     21  O   UNL     1     110.825 127.735 135.425  0.00  0.00    +0.000 OA
BRANCH  21  30
ATOM     22  O   UNL     1     110.873 127.030 136.667  0.00  0.00    +0.000 OA
ATOM     23  O   UNL     1     110.794 124.877 135.448  0.00  0.00    +0.000 OA
ATOM     24  O   UNL     1     110.868 124.890 137.095  0.00  0.00    +0.000 OA
ATOM     25  O   UNL     1     110.772 126.300 134.612  0.00  0.00    +0.000 OA
ATOM     26  C   UNL     1     110.820 125.595 135.854  0.00  0.00    +0.000 C 
ATOM     27  C   UNL     1     110.857 125.601 136.678  0.00  0.00    +0.000 C 
ATOM     28  C   UNL     1     110.809 126.307 135.436  0.00  0.00    +0.000 C 
ATOM     29  C   UNL     1     110.883 126.319 137.085  0.00  0.00    +0.000 C 
ATOM     30  C   UNL     1     110.835 127.024 135.843  0.00  0.00    +0.000 C 
BRANCH  29  32
ATOM     31  O   UNL     1     111.429 126.846 138.295  0.00  0.00    +0.000 OA
ATOM     32  C   UNL     1     110.920 126.325 137.908  0.00  0.00    +0.000 C 
ENDBRANCH  29  32
ENDBRANCH  21  30
ENDBRANCH   4  21
TORSDOF 5
ENDMDL
