MODEL 1
REMARK VINA RESULT:      -8.9      0.000      0.000
REMARK  Name = 21722026
REMARK  7 active torsions:
REMARK  status: ('A' for Active; 'I' for Inactive)
REMARK    1  A    between atoms: O_2  and  C_19
REMARK    2  A    between atoms: O_2  and  C_21
REMARK    3  A    between atoms: O_8  and  C_22
REMARK    4  A    between atoms: O_10  and  C_28
REMARK    5  A    between atoms: O_13  and  C_34
REMARK    6  A    between atoms: C_18  and  C_20
REMARK    7  A    between atoms: C_24  and  C_27
REMARK                            x       y       z     vdW  Elec       q    Type
REMARK                         _______ _______ _______ _____ _____    ______ ____
ROOT
ATOM      1  C   UNL     1     112.249 127.673 137.083  0.00  0.00    +0.000 A 
ATOM      2  C   UNL     1     111.831 128.072 137.671  0.00  0.00    +0.000 A 
ATOM      3  C   UNL     1     112.022 127.746 136.293  0.00  0.00    +0.000 A 
ATOM      4  C   UNL     1     110.957 128.617 136.680  0.00  0.00    +0.000 A 
ATOM      5  C   UNL     1     111.185 128.544 137.469  0.00  0.00    +0.000 A 
ATOM      6  C   UNL     1     111.376 128.218 136.091  0.00  0.00    +0.000 A 
ENDROOT
BRANCH   4  11
ATOM      7  O   UNL     1     110.405 129.906 136.403  0.00  0.00    +0.000 OA
ATOM      8  O   UNL     1     108.187 128.873 136.026  0.00  0.00    +0.000 OA
ATOM      9  O   UNL     1     107.604 130.162 135.742  0.00  0.00    +0.000 OA
ATOM     10  O   UNL     1     109.296 132.540 135.840  0.00  0.00    +0.000 OA
ATOM     11  C   UNL     1     110.311 129.090 136.479  0.00  0.00    +0.000 A 
ATOM     12  C   UNL     1     109.573 128.746 136.353  0.00  0.00    +0.000 A 
ATOM     13  C   UNL     1     109.020 130.034 136.076  0.00  0.00    +0.000 A 
ATOM     14  C   UNL     1     109.760 130.378 136.201  0.00  0.00    +0.000 A 
ATOM     15  C   UNL     1     108.927 129.218 136.152  0.00  0.00    +0.000 A 
ATOM     16  C   UNL     1     108.339 130.515 135.866  0.00  0.00    +0.000 A 
ATOM     17  C   UNL     1     109.869 131.227 136.125  0.00  0.00    +0.000 A 
ATOM     18  C   UNL     1     108.430 131.366 135.785  0.00  0.00    +0.000 A 
ATOM     19  C   UNL     1     109.200 131.724 135.915  0.00  0.00    +0.000 A 
BRANCH  12  20
ATOM     20  O   UNL     1     109.479 127.929 136.429  0.00  0.00    +0.000 OA
ATOM     21  C   UNL     1     108.851 127.549 136.053  0.00  0.00    +0.000 C 
ENDBRANCH  12  20
BRANCH  18  22
ATOM     22  O   UNL     1     107.782 131.835 135.583  0.00  0.00    +0.000 OA
ATOM     23  C   UNL     1     107.718 132.145 134.821  0.00  0.00    +0.000 C 
ENDBRANCH  18  22
ENDBRANCH   4  11
BRANCH   2  24
ATOM     24  O   UNL     1     112.058 128.000 138.461  0.00  0.00    +0.000 OA
ATOM     25  C   UNL     1     111.917 128.617 138.989  0.00  0.00    +0.000 C 
ENDBRANCH   2  24
BRANCH   1  26
ATOM     26  O   UNL     1     112.895 127.201 137.284  0.00  0.00    +0.000 OA
BRANCH  26  35
ATOM     27  O   UNL     1     112.248 125.931 137.181  0.00  0.00    +0.000 OA
ATOM     28  O   UNL     1     114.287 124.976 136.153  0.00  0.00    +0.000 OA
ATOM     29  O   UNL     1     112.961 124.026 136.392  0.00  0.00    +0.000 OA
ATOM     30  O   UNL     1     114.254 126.564 136.599  0.00  0.00    +0.000 OA
ATOM     31  C   UNL     1     113.607 125.295 136.496  0.00  0.00    +0.000 C 
ATOM     32  C   UNL     1     112.945 124.819 136.615  0.00  0.00    +0.000 C 
ATOM     33  C   UNL     1     113.592 126.089 136.719  0.00  0.00    +0.000 C 
ATOM     34  C   UNL     1     112.265 125.138 136.958  0.00  0.00    +0.000 C 
ATOM     35  C   UNL     1     112.912 126.407 137.061  0.00  0.00    +0.000 C 
BRANCH  34  38
ATOM     36  O   UNL     1     111.470 124.316 137.815  0.00  0.00    +0.000 OA
ATOM     37  O   UNL     1     111.069 124.533 136.460  0.00  0.00    +0.000 OA
ATOM     38  C   UNL     1     111.601 124.663 137.077  0.00  0.00    +0.000 C 
ENDBRANCH  34  38
ENDBRANCH  26  35
ENDBRANCH   1  26
TORSDOF 7
ENDMDL
MODEL 2
REMARK VINA RESULT:      -8.7      1.425      5.905
REMARK  Name = 21722026
REMARK  7 active torsions:
REMARK  status: ('A' for Active; 'I' for Inactive)
REMARK    1  A    between atoms: O_2  and  C_19
REMARK    2  A    between atoms: O_2  and  C_21
REMARK    3  A    between atoms: O_8  and  C_22
REMARK    4  A    between atoms: O_10  and  C_28
REMARK    5  A    between atoms: O_13  and  C_34
REMARK    6  A    between atoms: C_18  and  C_20
REMARK    7  A    between atoms: C_24  and  C_27
REMARK                            x       y       z     vdW  Elec       q    Type
REMARK                         _______ _______ _______ _____ _____    ______ ____
ROOT
ATOM      1  C   UNL     1     112.043 129.751 136.504  0.00  0.00    +0.000 A 
ATOM      2  C   UNL     1     112.418 129.351 135.888  0.00  0.00    +0.000 A 
ATOM      3  C   UNL     1     111.623 129.329 137.075  0.00  0.00    +0.000 A 
ATOM      4  C   UNL     1     111.954 128.106 136.413  0.00  0.00    +0.000 A 
ATOM      5  C   UNL     1     112.374 128.529 135.843  0.00  0.00    +0.000 A 
ATOM      6  C   UNL     1     111.578 128.506 137.030  0.00  0.00    +0.000 A 
ENDROOT
BRANCH   4  11
ATOM      7  O   UNL     1     112.517 126.820 136.677  0.00  0.00    +0.000 OA
ATOM      8  O   UNL     1     110.559 125.744 135.612  0.00  0.00    +0.000 OA
ATOM      9  O   UNL     1     111.105 124.433 135.866  0.00  0.00    +0.000 OA
ATOM     10  O   UNL     1     113.681 124.206 137.224  0.00  0.00    +0.000 OA
ATOM     11  C   UNL     1     111.909 127.283 136.367  0.00  0.00    +0.000 A 
ATOM     12  C   UNL     1     111.257 126.925 136.013  0.00  0.00    +0.000 A 
ATOM     13  C   UNL     1     111.820 125.638 136.276  0.00  0.00    +0.000 A 
ATOM     14  C   UNL     1     112.473 125.997 136.632  0.00  0.00    +0.000 A 
ATOM     15  C   UNL     1     111.212 126.103 135.967  0.00  0.00    +0.000 A 
ATOM     16  C   UNL     1     111.761 124.783 136.223  0.00  0.00    +0.000 A 
ATOM     17  C   UNL     1     113.113 125.524 136.958  0.00  0.00    +0.000 A 
ATOM     18  C   UNL     1     112.392 124.294 136.544  0.00  0.00    +0.000 A 
ATOM     19  C   UNL     1     113.071 124.668 136.913  0.00  0.00    +0.000 A 
BRANCH  12  20
ATOM     20  O   UNL     1     110.648 127.389 135.703  0.00  0.00    +0.000 OA
ATOM     21  C   UNL     1     110.175 127.096 135.094  0.00  0.00    +0.000 C 
ENDBRANCH  12  20
BRANCH  18  22
ATOM     22  O   UNL     1     112.344 123.471 136.497  0.00  0.00    +0.000 OA
ATOM     23  C   UNL     1     112.071 123.036 137.142  0.00  0.00    +0.000 C 
ENDBRANCH  18  22
ENDBRANCH   4  11
BRANCH   2  24
ATOM     24  O   UNL     1     112.839 129.773 135.317  0.00  0.00    +0.000 OA
ATOM     25  C   UNL     1     113.487 129.429 134.943  0.00  0.00    +0.000 C 
ENDBRANCH   2  24
BRANCH   1  26
ATOM     26  O   UNL     1     112.088 130.574 136.549  0.00  0.00    +0.000 OA
BRANCH  26  35
ATOM     27  O   UNL     1     110.740 130.898 136.202  0.00  0.00    +0.000 OA
ATOM     28  O   UNL     1     110.681 132.588 138.009  0.00  0.00    +0.000 OA
ATOM     29  O   UNL     1     109.354 132.350 137.059  0.00  0.00    +0.000 OA
ATOM     30  O   UNL     1     112.048 131.700 137.754  0.00  0.00    +0.000 OA
ATOM     31  C   UNL     1     110.701 132.025 137.407  0.00  0.00    +0.000 C 
ATOM     32  C   UNL     1     110.038 131.906 136.932  0.00  0.00    +0.000 C 
ATOM     33  C   UNL     1     111.385 131.581 137.280  0.00  0.00    +0.000 C 
ATOM     34  C   UNL     1     110.057 131.343 136.330  0.00  0.00    +0.000 C 
ATOM     35  C   UNL     1     111.405 131.018 136.677  0.00  0.00    +0.000 C 
BRANCH  34  38
ATOM     36  O   UNL     1     108.786 130.727 136.112  0.00  0.00    +0.000 OA
ATOM     37  O   UNL     1     109.337 131.598 135.122  0.00  0.00    +0.000 OA
ATOM     38  C   UNL     1     109.394 131.223 135.854  0.00  0.00    +0.000 C 
ENDBRANCH  34  38
ENDBRANCH  26  35
ENDBRANCH   1  26
TORSDOF 7
ENDMDL
MODEL 3
REMARK VINA RESULT:      -8.7      2.119      2.949
REMARK  Name = 21722026
REMARK  7 active torsions:
REMARK  status: ('A' for Active; 'I' for Inactive)
REMARK    1  A    between atoms: O_2  and  C_19
REMARK    2  A    between atoms: O_2  and  C_21
REMARK    3  A    between atoms: O_8  and  C_22
REMARK    4  A    between atoms: O_10  and  C_28
REMARK    5  A    between atoms: O_13  and  C_34
REMARK    6  A    between atoms: C_18  and  C_20
REMARK    7  A    between atoms: C_24  and  C_27
REMARK                            x       y       z     vdW  Elec       q    Type
REMARK                         _______ _______ _______ _____ _____    ______ ____
ROOT
ATOM      1  C   UNL     1     113.184 126.801 138.809  0.00  0.00    +0.000 A 
ATOM      2  C   UNL     1     112.784 127.042 139.488  0.00  0.00    +0.000 A 
ATOM      3  C   UNL     1     113.159 127.267 138.128  0.00  0.00    +0.000 A 
ATOM      4  C   UNL     1     112.333 128.215 138.808  0.00  0.00    +0.000 A 
ATOM      5  C   UNL     1     112.358 127.748 139.488  0.00  0.00    +0.000 A 
ATOM      6  C   UNL     1     112.734 127.974 138.128  0.00  0.00    +0.000 A 
ENDROOT
BRANCH   4  11
ATOM      7  O   UNL     1     111.086 128.908 138.727  0.00  0.00    +0.000 OA
ATOM      8  O   UNL     1     112.273 131.068 138.967  0.00  0.00    +0.000 OA
ATOM      9  O   UNL     1     111.028 131.793 138.889  0.00  0.00    +0.000 OA
ATOM     10  O   UNL     1     108.536 130.306 138.561  0.00  0.00    +0.000 OA
ATOM     11  C   UNL     1     111.907 128.922 138.808  0.00  0.00    +0.000 A 
ATOM     12  C   UNL     1     112.303 129.641 138.888  0.00  0.00    +0.000 A 
ATOM     13  C   UNL     1     111.056 130.335 138.807  0.00  0.00    +0.000 A 
ATOM     14  C   UNL     1     110.661 129.615 138.727  0.00  0.00    +0.000 A 
ATOM     15  C   UNL     1     111.877 130.347 138.887  0.00  0.00    +0.000 A 
ATOM     16  C   UNL     1     110.624 131.078 138.808  0.00  0.00    +0.000 A 
ATOM     17  C   UNL     1     109.805 129.589 138.643  0.00  0.00    +0.000 A 
ATOM     18  C   UNL     1     109.769 131.072 138.725  0.00  0.00    +0.000 A 
ATOM     19  C   UNL     1     109.357 130.322 138.642  0.00  0.00    +0.000 A 
BRANCH  12  20
ATOM     20  O   UNL     1     113.124 129.654 138.968  0.00  0.00    +0.000 OA
ATOM     21  C   UNL     1     113.495 130.311 139.299  0.00  0.00    +0.000 C 
ENDBRANCH  12  20
BRANCH  18  22
ATOM     22  O   UNL     1     109.346 131.780 138.725  0.00  0.00    +0.000 OA
ATOM     23  C   UNL     1     109.087 132.106 138.012  0.00  0.00    +0.000 C 
ENDBRANCH  18  22
ENDBRANCH   4  11
BRANCH   2  24
ATOM     24  O   UNL     1     112.808 126.576 140.169  0.00  0.00    +0.000 OA
ATOM     25  C   UNL     1     112.579 126.893 140.895  0.00  0.00    +0.000 C 
ENDBRANCH   2  24
BRANCH   1  26
ATOM     26  O   UNL     1     113.609 126.095 138.809  0.00  0.00    +0.000 OA
BRANCH  26  35
ATOM     27  O   UNL     1     112.793 125.328 137.922  0.00  0.00    +0.000 OA
ATOM     28  O   UNL     1     114.822 124.483 136.785  0.00  0.00    +0.000 OA
ATOM     29  O   UNL     1     113.330 123.998 136.277  0.00  0.00    +0.000 OA
ATOM     30  O   UNL     1     114.962 125.531 138.051  0.00  0.00    +0.000 OA
ATOM     31  C   UNL     1     114.146 124.764 137.164  0.00  0.00    +0.000 C 
ATOM     32  C   UNL     1     113.400 124.522 136.910  0.00  0.00    +0.000 C 
ATOM     33  C   UNL     1     114.216 125.289 137.797  0.00  0.00    +0.000 C 
ATOM     34  C   UNL     1     112.723 124.804 137.289  0.00  0.00    +0.000 C 
ATOM     35  C   UNL     1     113.540 125.570 138.176  0.00  0.00    +0.000 C 
BRANCH  34  38
ATOM     36  O   UNL     1     111.620 124.933 136.390  0.00  0.00    +0.000 OA
ATOM     37  O   UNL     1     111.586 123.949 137.426  0.00  0.00    +0.000 OA
ATOM     38  C   UNL     1     111.977 124.562 137.035  0.00  0.00    +0.000 C 
ENDBRANCH  34  38
ENDBRANCH  26  35
ENDBRANCH   1  26
TORSDOF 7
ENDMDL
MODEL 4
REMARK VINA RESULT:      -8.6      1.519      6.130
REMARK  Name = 21722026
REMARK  7 active torsions:
REMARK  status: ('A' for Active; 'I' for Inactive)
REMARK    1  A    between atoms: O_2  and  C_19
REMARK    2  A    between atoms: O_2  and  C_21
REMARK    3  A    between atoms: O_8  and  C_22
REMARK    4  A    between atoms: O_10  and  C_28
REMARK    5  A    between atoms: O_13  and  C_34
REMARK    6  A    between atoms: C_18  and  C_20
REMARK    7  A    between atoms: C_24  and  C_27
REMARK                            x       y       z     vdW  Elec       q    Type
REMARK                         _______ _______ _______ _____ _____    ______ ____
ROOT
ATOM      1  C   UNL     1     110.025 129.571 135.938  0.00  0.00    +0.000 A 
ATOM      2  C   UNL     1     110.819 129.386 136.063  0.00  0.00    +0.000 A 
ATOM      3  C   UNL     1     109.440 129.010 136.094  0.00  0.00    +0.000 A 
ATOM      4  C   UNL     1     110.445 128.078 136.502  0.00  0.00    +0.000 A 
ATOM      5  C   UNL     1     111.028 128.639 136.345  0.00  0.00    +0.000 A 
ATOM      6  C   UNL     1     109.650 128.263 136.376  0.00  0.00    +0.000 A 
ENDROOT
BRANCH   4  11
ATOM      7  O   UNL     1     110.849 126.730 136.253  0.00  0.00    +0.000 OA
ATOM      8  O   UNL     1     110.894 126.295 138.690  0.00  0.00    +0.000 OA
ATOM      9  O   UNL     1     111.303 124.930 138.467  0.00  0.00    +0.000 OA
ATOM     10  O   UNL     1     111.674 123.986 135.729  0.00  0.00    +0.000 OA
ATOM     11  C   UNL     1     110.654 127.331 136.784  0.00  0.00    +0.000 A 
ATOM     12  C   UNL     1     110.669 127.187 137.595  0.00  0.00    +0.000 A 
ATOM     13  C   UNL     1     111.074 125.839 137.348  0.00  0.00    +0.000 A 
ATOM     14  C   UNL     1     111.059 125.984 136.535  0.00  0.00    +0.000 A 
ATOM     15  C   UNL     1     110.879 126.440 137.877  0.00  0.00    +0.000 A 
ATOM     16  C   UNL     1     111.291 125.066 137.654  0.00  0.00    +0.000 A 
ATOM     17  C   UNL     1     111.260 125.365 135.973  0.00  0.00    +0.000 A 
ATOM     18  C   UNL     1     111.495 124.435 137.107  0.00  0.00    +0.000 A 
ATOM     19  C   UNL     1     111.480 124.586 136.261  0.00  0.00    +0.000 A 
BRANCH  12  20
ATOM     20  O   UNL     1     110.474 127.788 138.126  0.00  0.00    +0.000 OA
ATOM     21  C   UNL     1     110.649 127.704 138.927  0.00  0.00    +0.000 C 
ENDBRANCH  12  20
BRANCH  18  22
ATOM     22  O   UNL     1     111.705 123.689 137.392  0.00  0.00    +0.000 OA
ATOM     23  C   UNL     1     112.463 123.394 137.257  0.00  0.00    +0.000 C 
ENDBRANCH  18  22
ENDBRANCH   4  11
BRANCH   2  24
ATOM     24  O   UNL     1     111.403 129.946 135.907  0.00  0.00    +0.000 OA
ATOM     25  C   UNL     1     112.160 129.704 135.689  0.00  0.00    +0.000 C 
ENDBRANCH   2  24
BRANCH   1  26
ATOM     26  O   UNL     1     109.815 130.317 135.656  0.00  0.00    +0.000 OA
BRANCH  26  35
ATOM     27  O   UNL     1     109.258 130.905 136.833  0.00  0.00    +0.000 OA
ATOM     28  O   UNL     1     107.318 131.700 135.517  0.00  0.00    +0.000 OA
ATOM     29  O   UNL     1     107.408 132.023 137.132  0.00  0.00    +0.000 OA
ATOM     30  O   UNL     1     108.522 130.847 134.779  0.00  0.00    +0.000 OA
ATOM     31  C   UNL     1     107.965 131.435 135.956  0.00  0.00    +0.000 C 
ATOM     32  C   UNL     1     108.009 131.597 136.763  0.00  0.00    +0.000 C 
ATOM     33  C   UNL     1     108.566 131.008 135.586  0.00  0.00    +0.000 C 
ATOM     34  C   UNL     1     108.656 131.332 137.202  0.00  0.00    +0.000 C 
ATOM     35  C   UNL     1     109.213 130.743 136.024  0.00  0.00    +0.000 C 
BRANCH  34  38
ATOM     36  O   UNL     1     108.369 130.968 138.553  0.00  0.00    +0.000 OA
ATOM     37  O   UNL     1     109.078 132.177 138.273  0.00  0.00    +0.000 OA
ATOM     38  C   UNL     1     108.701 131.493 138.009  0.00  0.00    +0.000 C 
ENDBRANCH  34  38
ENDBRANCH  26  35
ENDBRANCH   1  26
TORSDOF 7
ENDMDL
MODEL 5
REMARK VINA RESULT:      -8.6      4.020      6.346
REMARK  Name = 21722026
REMARK  7 active torsions:
REMARK  status: ('A' for Active; 'I' for Inactive)
REMARK    1  A    between atoms: O_2  and  C_19
REMARK    2  A    between atoms: O_2  and  C_21
REMARK    3  A    between atoms: O_8  and  C_22
REMARK    4  A    between atoms: O_10  and  C_28
REMARK    5  A    between atoms: O_13  and  C_34
REMARK    6  A    between atoms: C_18  and  C_20
REMARK    7  A    between atoms: C_24  and  C_27
REMARK                            x       y       z     vdW  Elec       q    Type
REMARK                         _______ _______ _______ _____ _____    ______ ____
ROOT
ATOM      1  C   UNL     1     113.579 128.618 140.482  0.00  0.00    +0.000 A 
ATOM      2  C   UNL     1     113.885 127.856 140.550  0.00  0.00    +0.000 A 
ATOM      3  C   UNL     1     112.982 128.777 139.934  0.00  0.00    +0.000 A 
ATOM      4  C   UNL     1     112.998 127.408 139.523  0.00  0.00    +0.000 A 
ATOM      5  C   UNL     1     113.594 127.250 140.071  0.00  0.00    +0.000 A 
ATOM      6  C   UNL     1     112.692 128.171 139.455  0.00  0.00    +0.000 A 
ENDROOT
BRANCH   4  11
ATOM      7  O   UNL     1     113.155 126.532 138.405  0.00  0.00    +0.000 OA
ATOM      8  O   UNL     1     110.942 125.528 138.882  0.00  0.00    +0.000 OA
ATOM      9  O   UNL     1     111.075 124.633 137.759  0.00  0.00    +0.000 OA
ATOM     10  O   UNL     1     113.490 124.754 136.122  0.00  0.00    +0.000 OA
ATOM     11  C   UNL     1     112.707 126.802 139.043  0.00  0.00    +0.000 A 
ATOM     12  C   UNL     1     111.971 126.468 139.202  0.00  0.00    +0.000 A 
ATOM     13  C   UNL     1     112.126 125.592 138.084  0.00  0.00    +0.000 A 
ATOM     14  C   UNL     1     112.864 125.927 137.925  0.00  0.00    +0.000 A 
ATOM     15  C   UNL     1     111.680 125.863 138.723  0.00  0.00    +0.000 A 
ATOM     16  C   UNL     1     111.813 124.961 137.592  0.00  0.00    +0.000 A 
ATOM     17  C   UNL     1     113.339 125.653 137.263  0.00  0.00    +0.000 A 
ATOM     18  C   UNL     1     112.274 124.674 136.925  0.00  0.00    +0.000 A 
ATOM     19  C   UNL     1     113.041 125.023 136.760  0.00  0.00    +0.000 A 
BRANCH  12  20
ATOM     20  O   UNL     1     111.523 126.739 139.841  0.00  0.00    +0.000 OA
ATOM     21  C   UNL     1     110.920 126.270 140.150  0.00  0.00    +0.000 C 
ENDBRANCH  12  20
BRANCH  18  22
ATOM     22  O   UNL     1     111.981 124.069 136.448  0.00  0.00    +0.000 OA
ATOM     23  C   UNL     1     112.182 123.285 136.605  0.00  0.00    +0.000 C 
ENDBRANCH  18  22
ENDBRANCH   4  11
BRANCH   2  24
ATOM     24  O   UNL     1     114.481 127.697 141.098  0.00  0.00    +0.000 OA
ATOM     25  C   UNL     1     114.906 126.992 141.053  0.00  0.00    +0.000 C 
ENDBRANCH   2  24
BRANCH   1  26
ATOM     26  O   UNL     1     113.869 129.223 140.961  0.00  0.00    +0.000 OA
BRANCH  26  35
ATOM     27  O   UNL     1     112.779 129.246 141.885  0.00  0.00    +0.000 OA
ATOM     28  O   UNL     1     112.968 131.708 142.048  0.00  0.00    +0.000 OA
ATOM     29  O   UNL     1     111.816 130.910 142.917  0.00  0.00    +0.000 OA
ATOM     30  O   UNL     1     113.995 130.865 141.070  0.00  0.00    +0.000 OA
ATOM     31  C   UNL     1     112.905 130.887 141.994  0.00  0.00    +0.000 C 
ATOM     32  C   UNL     1     112.329 130.488 142.428  0.00  0.00    +0.000 C 
ATOM     33  C   UNL     1     113.419 130.466 141.504  0.00  0.00    +0.000 C 
ATOM     34  C   UNL     1     112.266 129.668 142.374  0.00  0.00    +0.000 C 
ATOM     35  C   UNL     1     113.356 129.645 141.450  0.00  0.00    +0.000 C 
BRANCH  34  38
ATOM     36  O   UNL     1     110.920 129.209 142.516  0.00  0.00    +0.000 OA
ATOM     37  O   UNL     1     111.883 128.928 143.535  0.00  0.00    +0.000 OA
ATOM     38  C   UNL     1     111.690 129.268 142.808  0.00  0.00    +0.000 C 
ENDBRANCH  34  38
ENDBRANCH  26  35
ENDBRANCH   1  26
TORSDOF 7
ENDMDL
MODEL 6
REMARK VINA RESULT:      -8.6      1.917      6.085
REMARK  Name = 21722026
REMARK  7 active torsions:
REMARK  status: ('A' for Active; 'I' for Inactive)
REMARK    1  A    between atoms: O_2  and  C_19
REMARK    2  A    between atoms: O_2  and  C_21
REMARK    3  A    between atoms: O_8  and  C_22
REMARK    4  A    between atoms: O_10  and  C_28
REMARK    5  A    between atoms: O_13  and  C_34
REMARK    6  A    between atoms: C_18  and  C_20
REMARK    7  A    between atoms: C_24  and  C_27
REMARK                            x       y       z     vdW  Elec       q    Type
REMARK                         _______ _______ _______ _____ _____    ______ ____
ROOT
ATOM      1  C   UNL     1     111.892 130.545 137.871  0.00  0.00    +0.000 A 
ATOM      2  C   UNL     1     112.398 130.136 138.377  0.00  0.00    +0.000 A 
ATOM      3  C   UNL     1     111.560 130.162 137.219  0.00  0.00    +0.000 A 
ATOM      4  C   UNL     1     112.242 128.959 137.582  0.00  0.00    +0.000 A 
ATOM      5  C   UNL     1     112.572 129.342 138.233  0.00  0.00    +0.000 A 
ATOM      6  C   UNL     1     111.735 129.369 137.075  0.00  0.00    +0.000 A 
ENDROOT
BRANCH   4  11
ATOM      7  O   UNL     1     111.977 127.573 137.807  0.00  0.00    +0.000 OA
ATOM      8  O   UNL     1     113.817 126.972 136.263  0.00  0.00    +0.000 OA
ATOM      9  O   UNL     1     113.572 125.566 136.473  0.00  0.00    +0.000 OA
ATOM     10  O   UNL     1     111.426 124.752 138.279  0.00  0.00    +0.000 OA
ATOM     11  C   UNL     1     112.416 128.165 137.437  0.00  0.00    +0.000 A 
ATOM     12  C   UNL     1     113.029 127.966 136.923  0.00  0.00    +0.000 A 
ATOM     13  C   UNL     1     112.766 126.579 137.148  0.00  0.00    +0.000 A 
ATOM     14  C   UNL     1     112.152 126.780 137.663  0.00  0.00    +0.000 A 
ATOM     15  C   UNL     1     113.204 127.172 136.778  0.00  0.00    +0.000 A 
ATOM     16  C   UNL     1     112.957 125.757 136.989  0.00  0.00    +0.000 A 
ATOM     17  C   UNL     1     111.688 126.170 138.054  0.00  0.00    +0.000 A 
ATOM     18  C   UNL     1     112.504 125.134 137.371  0.00  0.00    +0.000 A 
ATOM     19  C   UNL     1     111.866 125.343 137.907  0.00  0.00    +0.000 A 
BRANCH  12  20
ATOM     20  O   UNL     1     113.468 128.558 136.553  0.00  0.00    +0.000 OA
ATOM     21  C   UNL     1     113.952 128.374 135.912  0.00  0.00    +0.000 C 
ENDBRANCH  12  20
BRANCH  18  22
ATOM     22  O   UNL     1     112.681 124.341 137.225  0.00  0.00    +0.000 OA
ATOM     23  C   UNL     1     112.207 123.901 136.714  0.00  0.00    +0.000 C 
ENDBRANCH  18  22
ENDBRANCH   4  11
BRANCH   2  24
ATOM     24  O   UNL     1     112.729 130.518 139.029  0.00  0.00    +0.000 OA
ATOM     25  C   UNL     1     113.410 130.217 139.382  0.00  0.00    +0.000 C 
ENDBRANCH   2  24
BRANCH   1  26
ATOM     26  O   UNL     1     111.717 131.338 138.016  0.00  0.00    +0.000 OA
BRANCH  26  35
ATOM     27  O   UNL     1     110.370 131.227 138.480  0.00  0.00    +0.000 OA
ATOM     28  O   UNL     1     109.712 133.114 137.019  0.00  0.00    +0.000 OA
ATOM     29  O   UNL     1     108.585 132.374 137.969  0.00  0.00    +0.000 OA
ATOM     30  O   UNL     1     111.278 132.596 137.042  0.00  0.00    +0.000 OA
ATOM     31  C   UNL     1     109.931 132.485 137.506  0.00  0.00    +0.000 C 
ATOM     32  C   UNL     1     109.368 132.115 137.981  0.00  0.00    +0.000 C 
ATOM     33  C   UNL     1     110.715 132.226 137.517  0.00  0.00    +0.000 C 
ATOM     34  C   UNL     1     109.587 131.486 138.468  0.00  0.00    +0.000 C 
ATOM     35  C   UNL     1     110.934 131.598 138.004  0.00  0.00    +0.000 C 
BRANCH  34  38
ATOM     36  O   UNL     1     108.938 131.343 139.733  0.00  0.00    +0.000 OA
ATOM     37  O   UNL     1     108.547 130.520 138.631  0.00  0.00    +0.000 OA
ATOM     38  C   UNL     1     109.024 131.116 138.943  0.00  0.00    +0.000 C 
ENDBRANCH  34  38
ENDBRANCH  26  35
ENDBRANCH   1  26
TORSDOF 7
ENDMDL
MODEL 7
REMARK VINA RESULT:      -8.6      1.657      2.645
REMARK  Name = 21722026
REMARK  7 active torsions:
REMARK  status: ('A' for Active; 'I' for Inactive)
REMARK    1  A    between atoms: O_2  and  C_19
REMARK    2  A    between atoms: O_2  and  C_21
REMARK    3  A    between atoms: O_8  and  C_22
REMARK    4  A    between atoms: O_10  and  C_28
REMARK    5  A    between atoms: O_13  and  C_34
REMARK    6  A    between atoms: C_18  and  C_20
REMARK    7  A    between atoms: C_24  and  C_27
REMARK                            x       y       z     vdW  Elec       q    Type
REMARK                         _______ _______ _______ _____ _____    ______ ____
ROOT
ATOM      1  C   UNL     1     113.309 127.281 136.792  0.00  0.00    +0.000 A 
ATOM      2  C   UNL     1     113.499 127.927 136.316  0.00  0.00    +0.000 A 
ATOM      3  C   UNL     1     112.756 127.364 137.399  0.00  0.00    +0.000 A 
ATOM      4  C   UNL     1     112.582 128.740 137.052  0.00  0.00    +0.000 A 
ATOM      5  C   UNL     1     113.135 128.656 136.446  0.00  0.00    +0.000 A 
ATOM      6  C   UNL     1     112.393 128.093 137.529  0.00  0.00    +0.000 A 
ENDROOT
BRANCH   4  11
ATOM      7  O   UNL     1     111.618 129.725 136.678  0.00  0.00    +0.000 OA
ATOM      8  O   UNL     1     112.331 131.142 138.579  0.00  0.00    +0.000 OA
ATOM      9  O   UNL     1     111.365 132.154 138.224  0.00  0.00    +0.000 OA
ATOM     10  O   UNL     1     109.646 131.724 135.903  0.00  0.00    +0.000 OA
ATOM     11  C   UNL     1     112.219 129.469 137.182  0.00  0.00    +0.000 A 
ATOM     12  C   UNL     1     112.457 129.941 137.815  0.00  0.00    +0.000 A 
ATOM     13  C   UNL     1     111.492 130.927 137.442  0.00  0.00    +0.000 A 
ATOM     14  C   UNL     1     111.254 130.454 136.808  0.00  0.00    +0.000 A 
ATOM     15  C   UNL     1     112.093 130.670 137.945  0.00  0.00    +0.000 A 
ATOM     16  C   UNL     1     111.121 131.688 137.588  0.00  0.00    +0.000 A 
ATOM     17  C   UNL     1     110.629 130.711 136.277  0.00  0.00    +0.000 A 
ATOM     18  C   UNL     1     110.494 131.962 137.067  0.00  0.00    +0.000 A 
ATOM     19  C   UNL     1     110.247 131.469 136.408  0.00  0.00    +0.000 A 
BRANCH  12  20
ATOM     20  O   UNL     1     113.058 129.684 138.319  0.00  0.00    +0.000 OA
ATOM     21  C   UNL     1     113.531 130.234 138.710  0.00  0.00    +0.000 C 
ENDBRANCH  12  20
BRANCH  18  22
ATOM     22  O   UNL     1     110.132 132.691 137.200  0.00  0.00    +0.000 OA
ATOM     23  C   UNL     1     110.383 133.357 136.783  0.00  0.00    +0.000 C 
ENDBRANCH  18  22
ENDBRANCH   4  11
BRANCH   2  24
ATOM     24  O   UNL     1     114.052 127.845 135.709  0.00  0.00    +0.000 OA
ATOM     25  C   UNL     1     114.438 128.509 135.409  0.00  0.00    +0.000 C 
ENDBRANCH   2  24
BRANCH   1  26
ATOM     26  O   UNL     1     113.673 126.552 136.662  0.00  0.00    +0.000 OA
BRANCH  26  35
ATOM     27  O   UNL     1     112.463 125.881 136.306  0.00  0.00    +0.000 OA
ATOM     28  O   UNL     1     113.370 123.765 137.214  0.00  0.00    +0.000 OA
ATOM     29  O   UNL     1     111.858 123.799 136.556  0.00  0.00    +0.000 OA
ATOM     30  O   UNL     1     114.278 125.142 137.267  0.00  0.00    +0.000 OA
ATOM     31  C   UNL     1     113.068 124.470 136.912  0.00  0.00    +0.000 C 
ATOM     32  C   UNL     1     112.312 124.487 136.583  0.00  0.00    +0.000 C 
ATOM     33  C   UNL     1     113.522 125.158 136.938  0.00  0.00    +0.000 C 
ATOM     34  C   UNL     1     112.009 125.192 136.280  0.00  0.00    +0.000 C 
ATOM     35  C   UNL     1     113.220 125.864 136.636  0.00  0.00    +0.000 C 
BRANCH  34  38
ATOM     36  O   UNL     1     110.591 125.253 136.442  0.00  0.00    +0.000 OA
ATOM     37  O   UNL     1     111.159 125.184 135.132  0.00  0.00    +0.000 OA
ATOM     38  C   UNL     1     111.253 125.210 135.951  0.00  0.00    +0.000 C 
ENDBRANCH  34  38
ENDBRANCH  26  35
ENDBRANCH   1  26
TORSDOF 7
ENDMDL
MODEL 8
REMARK VINA RESULT:      -8.5      1.566      6.236
REMARK  Name = 21722026
REMARK  7 active torsions:
REMARK  status: ('A' for Active; 'I' for Inactive)
REMARK    1  A    between atoms: O_2  and  C_19
REMARK    2  A    between atoms: O_2  and  C_21
REMARK    3  A    between atoms: O_8  and  C_22
REMARK    4  A    between atoms: O_10  and  C_28
REMARK    5  A    between atoms: O_13  and  C_34
REMARK    6  A    between atoms: C_18  and  C_20
REMARK    7  A    between atoms: C_24  and  C_27
REMARK                            x       y       z     vdW  Elec       q    Type
REMARK                         _______ _______ _______ _____ _____    ______ ____
ROOT
ATOM      1  C   UNL     1     111.022 130.674 137.719  0.00  0.00    +0.000 A 
ATOM      2  C   UNL     1     111.785 130.590 137.418  0.00  0.00    +0.000 A 
ATOM      3  C   UNL     1     110.661 130.044 138.111  0.00  0.00    +0.000 A 
ATOM      4  C   UNL     1     111.827 129.245 137.900  0.00  0.00    +0.000 A 
ATOM      5  C   UNL     1     112.188 129.875 137.508  0.00  0.00    +0.000 A 
ATOM      6  C   UNL     1     111.063 129.330 138.201  0.00  0.00    +0.000 A 
ENDROOT
BRANCH   4  11
ATOM      7  O   UNL     1     112.243 127.984 137.373  0.00  0.00    +0.000 OA
ATOM      8  O   UNL     1     113.410 127.481 139.498  0.00  0.00    +0.000 OA
ATOM      9  O   UNL     1     113.843 126.202 138.990  0.00  0.00    +0.000 OA
ATOM     10  O   UNL     1     113.082 125.416 136.283  0.00  0.00    +0.000 OA
ATOM     11  C   UNL     1     112.230 128.530 137.991  0.00  0.00    +0.000 A 
ATOM     12  C   UNL     1     112.618 128.363 138.698  0.00  0.00    +0.000 A 
ATOM     13  C   UNL     1     113.034 127.102 138.172  0.00  0.00    +0.000 A 
ATOM     14  C   UNL     1     112.645 127.269 137.464  0.00  0.00    +0.000 A 
ATOM     15  C   UNL     1     113.021 127.649 138.789  0.00  0.00    +0.000 A 
ATOM     16  C   UNL     1     113.457 126.361 138.279  0.00  0.00    +0.000 A 
ATOM     17  C   UNL     1     112.652 126.707 136.813  0.00  0.00    +0.000 A 
ATOM     18  C   UNL     1     113.475 125.787 137.639  0.00  0.00    +0.000 A 
ATOM     19  C   UNL     1     113.070 125.961 136.902  0.00  0.00    +0.000 A 
BRANCH  12  20
ATOM     20  O   UNL     1     112.605 128.910 139.316  0.00  0.00    +0.000 OA
ATOM     21  C   UNL     1     113.201 128.904 139.886  0.00  0.00    +0.000 C 
ENDBRANCH  12  20
BRANCH  18  22
ATOM     22  O   UNL     1     113.878 125.073 137.733  0.00  0.00    +0.000 OA
ATOM     23  C   UNL     1     114.620 124.970 137.386  0.00  0.00    +0.000 C 
ENDBRANCH  18  22
ENDBRANCH   4  11
BRANCH   2  24
ATOM     24  O   UNL     1     112.147 131.219 137.026  0.00  0.00    +0.000 OA
ATOM     25  C   UNL     1     112.964 131.222 136.914  0.00  0.00    +0.000 C 
ENDBRANCH   2  24
BRANCH   1  26
ATOM     26  O   UNL     1     110.620 131.388 137.628  0.00  0.00    +0.000 OA
BRANCH  26  35
ATOM     27  O   UNL     1     109.625 130.986 136.684  0.00  0.00    +0.000 OA
ATOM     28  O   UNL     1     107.904 132.206 137.979  0.00  0.00    +0.000 OA
ATOM     29  O   UNL     1     107.484 131.398 136.604  0.00  0.00    +0.000 OA
ATOM     30  O   UNL     1     109.473 132.201 138.491  0.00  0.00    +0.000 OA
ATOM     31  C   UNL     1     108.478 131.799 137.547  0.00  0.00    +0.000 C 
ATOM     32  C   UNL     1     108.267 131.396 136.860  0.00  0.00    +0.000 C 
ATOM     33  C   UNL     1     109.262 131.798 137.804  0.00  0.00    +0.000 C 
ATOM     34  C   UNL     1     108.841 130.989 136.429  0.00  0.00    +0.000 C 
ATOM     35  C   UNL     1     109.836 131.391 137.372  0.00  0.00    +0.000 C 
BRANCH  34  38
ATOM     36  O   UNL     1     108.748 130.937 135.004  0.00  0.00    +0.000 OA
ATOM     37  O   UNL     1     108.304 129.829 135.790  0.00  0.00    +0.000 OA
ATOM     38  C   UNL     1     108.631 130.585 135.741  0.00  0.00    +0.000 C 
ENDBRANCH  34  38
ENDBRANCH  26  35
ENDBRANCH   1  26
TORSDOF 7
ENDMDL
MODEL 9
REMARK VINA RESULT:      -8.5      1.482      6.275
REMARK  Name = 21722026
REMARK  7 active torsions:
REMARK  status: ('A' for Active; 'I' for Inactive)
REMARK    1  A    between atoms: O_2  and  C_19
REMARK    2  A    between atoms: O_2  and  C_21
REMARK    3  A    between atoms: O_8  and  C_22
REMARK    4  A    between atoms: O_10  and  C_28
REMARK    5  A    between atoms: O_13  and  C_34
REMARK    6  A    between atoms: C_18  and  C_20
REMARK    7  A    between atoms: C_24  and  C_27
REMARK                            x       y       z     vdW  Elec       q    Type
REMARK                         _______ _______ _______ _____ _____    ______ ____
ROOT
ATOM      1  C   UNL     1     109.843 129.525 136.724  0.00  0.00    +0.000 A 
ATOM      2  C   UNL     1     110.040 129.201 135.992  0.00  0.00    +0.000 A 
ATOM      3  C   UNL     1     110.194 129.235 137.412  0.00  0.00    +0.000 A 
ATOM      4  C   UNL     1     110.938 128.294 136.635  0.00  0.00    +0.000 A 
ATOM      5  C   UNL     1     110.587 128.585 135.948  0.00  0.00    +0.000 A 
ATOM      6  C   UNL     1     110.741 128.620 137.368  0.00  0.00    +0.000 A 
ENDROOT
BRANCH   4  11
ATOM      7  O   UNL     1     111.225 126.897 136.563  0.00  0.00    +0.000 OA
ATOM      8  O   UNL     1     113.649 127.398 136.511  0.00  0.00    +0.000 OA
ATOM      9  O   UNL     1     113.967 125.992 136.439  0.00  0.00    +0.000 OA
ATOM     10  O   UNL     1     111.793 124.043 136.418  0.00  0.00    +0.000 OA
ATOM     11  C   UNL     1     111.486 127.679 136.590  0.00  0.00    +0.000 A 
ATOM     12  C   UNL     1     112.293 127.846 136.573  0.00  0.00    +0.000 A 
ATOM     13  C   UNL     1     112.581 126.448 136.502  0.00  0.00    +0.000 A 
ATOM     14  C   UNL     1     111.773 126.281 136.519  0.00  0.00    +0.000 A 
ATOM     15  C   UNL     1     112.841 127.231 136.529  0.00  0.00    +0.000 A 
ATOM     16  C   UNL     1     113.161 125.816 136.455  0.00  0.00    +0.000 A 
ATOM     17  C   UNL     1     111.490 125.470 136.491  0.00  0.00    +0.000 A 
ATOM     18  C   UNL     1     112.897 124.998 136.427  0.00  0.00    +0.000 A 
ATOM     19  C   UNL     1     112.056 124.825 136.445  0.00  0.00    +0.000 A 
BRANCH  12  20
ATOM     20  O   UNL     1     112.554 128.629 136.600  0.00  0.00    +0.000 OA
ATOM     21  C   UNL     1     113.318 128.818 136.356  0.00  0.00    +0.000 C 
ENDBRANCH  12  20
BRANCH  18  22
ATOM     22  O   UNL     1     113.447 124.385 136.382  0.00  0.00    +0.000 OA
ATOM     23  C   UNL     1     113.686 123.995 137.069  0.00  0.00    +0.000 C 
ENDBRANCH  18  22
ENDBRANCH   4  11
BRANCH   2  24
ATOM     24  O   UNL     1     109.689 129.491 135.304  0.00  0.00    +0.000 OA
ATOM     25  C   UNL     1     109.702 129.041 134.613  0.00  0.00    +0.000 C 
ENDBRANCH   2  24
BRANCH   1  26
ATOM     26  O   UNL     1     109.295 130.141 136.768  0.00  0.00    +0.000 OA
BRANCH  26  35
ATOM     27  O   UNL     1     110.182 131.231 137.028  0.00  0.00    +0.000 OA
ATOM     28  O   UNL     1     108.628 132.083 138.755  0.00  0.00    +0.000 OA
ATOM     29  O   UNL     1     110.032 132.889 138.439  0.00  0.00    +0.000 OA
ATOM     30  O   UNL     1     108.260 130.709 137.920  0.00  0.00    +0.000 OA
ATOM     31  C   UNL     1     109.146 131.799 138.179  0.00  0.00    +0.000 C 
ATOM     32  C   UNL     1     109.848 132.202 138.021  0.00  0.00    +0.000 C 
ATOM     33  C   UNL     1     108.961 131.112 137.762  0.00  0.00    +0.000 C 
ATOM     34  C   UNL     1     110.366 131.918 137.446  0.00  0.00    +0.000 C 
ATOM     35  C   UNL     1     109.479 130.828 137.186  0.00  0.00    +0.000 C 
BRANCH  34  38
ATOM     36  O   UNL     1     111.070 132.952 136.755  0.00  0.00    +0.000 OA
ATOM     37  O   UNL     1     111.768 132.092 137.659  0.00  0.00    +0.000 OA
ATOM     38  C   UNL     1     111.068 132.320 137.287  0.00  0.00    +0.000 C 
ENDBRANCH  34  38
ENDBRANCH  26  35
ENDBRANCH   1  26
TORSDOF 7
ENDMDL
