MODEL 1
REMARK VINA RESULT:     -10.6      0.000      0.000
REMARK  Name = 74978019
REMARK  10 active torsions:
REMARK  status: ('A' for Active; 'I' for Inactive)
REMARK    1  A    between atoms: O_1  and  C_23
REMARK    2  A    between atoms: O_1  and  C_26
REMARK    3  A    between atoms: O_4  and  C_28
REMARK    4  A    between atoms: O_4  and  C_38
REMARK    5  A    between atoms: O_13  and  C_39
REMARK    6  A    between atoms: O_13  and  C_46
REMARK    7  A    between atoms: C_29  and  C_33
REMARK    8  A    between atoms: C_32  and  C_34
REMARK    9  A    between atoms: C_40  and  C_45
REMARK   10  A    between atoms: C_41  and  C_48
REMARK                            x       y       z     vdW  Elec       q    Type
REMARK                         _______ _______ _______ _____ _____    ______ ____
ROOT
ATOM      1  O   UNL     1     111.710 129.873 136.766  0.00  0.00    +0.000 OA
ATOM      2  O   UNL     1     110.744 128.386 138.494  0.00  0.00    +0.000 OA
ATOM      3  O   UNL     1     109.698 129.340 138.770  0.00  0.00    +0.000 OA
ATOM      4  C   UNL     1     111.740 128.648 137.503  0.00  0.00    +0.000 A 
ATOM      5  C   UNL     1     112.062 129.144 136.927  0.00  0.00    +0.000 A 
ATOM      6  C   UNL     1     111.067 128.882 137.917  0.00  0.00    +0.000 A 
ATOM      7  C   UNL     1     110.714 129.610 137.756  0.00  0.00    +0.000 A 
ATOM      8  C   UNL     1     111.036 130.105 137.181  0.00  0.00    +0.000 A 
ATOM      9  C   UNL     1     109.977 131.115 137.432  0.00  0.00    +0.000 A 
ATOM     10  C   UNL     1     110.679 130.866 137.004  0.00  0.00    +0.000 A 
ATOM     11  C   UNL     1     110.013 129.842 138.195  0.00  0.00    +0.000 A 
ATOM     12  C   UNL     1     109.641 130.599 138.033  0.00  0.00    +0.000 A 
ENDROOT
BRANCH   5  14
ATOM     13  O   UNL     1     114.756 128.209 135.268  0.00  0.00    +0.000 OA
ATOM     14  C   UNL     1     112.736 128.911 136.512  0.00  0.00    +0.000 A 
ATOM     15  C   UNL     1     113.479 129.183 136.745  0.00  0.00    +0.000 A 
ATOM     16  C   UNL     1     112.666 128.404 135.864  0.00  0.00    +0.000 A 
ATOM     17  C   UNL     1     114.153 128.948 136.330  0.00  0.00    +0.000 A 
ATOM     18  C   UNL     1     113.340 128.170 135.450  0.00  0.00    +0.000 A 
ATOM     19  C   UNL     1     114.083 128.443 135.682  0.00  0.00    +0.000 A 
ENDBRANCH   5  14
BRANCH   4  20
ATOM     20  O   UNL     1     112.092 127.920 137.664  0.00  0.00    +0.000 OA
BRANCH  20  27
ATOM     21  O   UNL     1     112.686 128.297 138.908  0.00  0.00    +0.000 OA
ATOM     22  O   UNL     1     112.245 126.033 139.805  0.00  0.00    +0.000 OA
ATOM     23  O   UNL     1     112.986 127.165 140.750  0.00  0.00    +0.000 OA
ATOM     24  C   UNL     1     112.169 126.977 138.734  0.00  0.00    +0.000 C 
ATOM     25  C   UNL     1     112.392 126.788 139.506  0.00  0.00    +0.000 C 
ATOM     26  C   UNL     1     112.763 127.354 139.978  0.00  0.00    +0.000 C 
ATOM     27  C   UNL     1     112.316 127.731 138.435  0.00  0.00    +0.000 C 
ATOM     28  C   UNL     1     112.909 128.109 139.679  0.00  0.00    +0.000 C 
BRANCH  28  30
ATOM     29  O   UNL     1     113.987 129.020 139.905  0.00  0.00    +0.000 OA
ATOM     30  C   UNL     1     113.280 128.675 140.151  0.00  0.00    +0.000 C 
ENDBRANCH  28  30
BRANCH  24  31
ATOM     31  O   UNL     1     111.799 126.410 138.262  0.00  0.00    +0.000 OA
BRANCH  31  36
ATOM     32  O   UNL     1     113.065 125.876 137.873  0.00  0.00    +0.000 OA
ATOM     33  O   UNL     1     111.045 125.087 137.628  0.00  0.00    +0.000 OA
ATOM     34  O   UNL     1     111.935 123.890 136.921  0.00  0.00    +0.000 OA
ATOM     35  O   UNL     1     113.578 124.017 136.849  0.00  0.00    +0.000 OA
ATOM     36  C   UNL     1     112.244 125.812 137.909  0.00  0.00    +0.000 C 
ATOM     37  C   UNL     1     111.866 125.150 137.592  0.00  0.00    +0.000 C 
ATOM     38  C   UNL     1     112.311 124.552 137.238  0.00  0.00    +0.000 C 
ATOM     39  C   UNL     1     113.133 124.616 137.202  0.00  0.00    +0.000 C 
ATOM     40  C   UNL     1     113.510 125.278 137.520  0.00  0.00    +0.000 C 
BRANCH  40  42
ATOM     41  O   UNL     1     114.783 125.245 138.168  0.00  0.00    +0.000 OA
ATOM     42  C   UNL     1     114.332 125.341 137.484  0.00  0.00    +0.000 C 
ENDBRANCH  40  42
ENDBRANCH  31  36
ENDBRANCH  24  31
ENDBRANCH  20  27
ENDBRANCH   4  20
BRANCH   9  43
ATOM     43  O   UNL     1     109.627 131.845 137.269  0.00  0.00    +0.000 OA
BRANCH  43  51
ATOM     44  O   UNL     1     108.444 131.489 136.551  0.00  0.00    +0.000 OA
ATOM     45  O   UNL     1     109.065 133.065 134.747  0.00  0.00    +0.000 OA
ATOM     46  O   UNL     1     110.041 132.895 136.066  0.00  0.00    +0.000 OA
ATOM     47  O   UNL     1     107.675 132.184 134.630  0.00  0.00    +0.000 OA
ATOM     48  C   UNL     1     108.858 132.540 135.348  0.00  0.00    +0.000 C 
ATOM     49  C   UNL     1     109.346 132.455 136.008  0.00  0.00    +0.000 C 
ATOM     50  C   UNL     1     108.163 132.100 135.290  0.00  0.00    +0.000 C 
ATOM     51  C   UNL     1     109.139 131.929 136.610  0.00  0.00    +0.000 C 
ATOM     52  C   UNL     1     107.956 131.574 135.891  0.00  0.00    +0.000 C 
BRANCH  52  55
ATOM     53  O   UNL     1     107.295 130.332 135.642  0.00  0.00    +0.000 OA
ATOM     54  O   UNL     1     106.531 131.495 135.966  0.00  0.00    +0.000 OA
ATOM     55  C   UNL     1     107.260 131.134 135.833  0.00  0.00    +0.000 C 
ENDBRANCH  52  55
ENDBRANCH  43  51
ENDBRANCH   9  43
TORSDOF 10
ENDMDL
MODEL 2
REMARK VINA RESULT:     -10.5      2.409      5.269
REMARK  Name = 74978019
REMARK  10 active torsions:
REMARK  status: ('A' for Active; 'I' for Inactive)
REMARK    1  A    between atoms: O_1  and  C_23
REMARK    2  A    between atoms: O_1  and  C_26
REMARK    3  A    between atoms: O_4  and  C_28
REMARK    4  A    between atoms: O_4  and  C_38
REMARK    5  A    between atoms: O_13  and  C_39
REMARK    6  A    between atoms: O_13  and  C_46
REMARK    7  A    between atoms: C_29  and  C_33
REMARK    8  A    between atoms: C_32  and  C_34
REMARK    9  A    between atoms: C_40  and  C_45
REMARK   10  A    between atoms: C_41  and  C_48
REMARK                            x       y       z     vdW  Elec       q    Type
REMARK                         _______ _______ _______ _____ _____    ______ ____
ROOT
ATOM      1  O   UNL     1     112.446 127.954 139.423  0.00  0.00    +0.000 OA
ATOM      2  O   UNL     1     111.646 129.684 137.843  0.00  0.00    +0.000 OA
ATOM      3  O   UNL     1     112.060 130.735 138.741  0.00  0.00    +0.000 OA
ATOM      4  C   UNL     1     111.837 128.309 138.179  0.00  0.00    +0.000 A 
ATOM      5  C   UNL     1     112.103 127.731 138.706  0.00  0.00    +0.000 A 
ATOM      6  C   UNL     1     111.913 129.107 138.370  0.00  0.00    +0.000 A 
ATOM      7  C   UNL     1     112.256 129.330 139.087  0.00  0.00    +0.000 A 
ATOM      8  C   UNL     1     112.522 128.753 139.613  0.00  0.00    +0.000 A 
ATOM      9  C   UNL     1     112.963 129.802 140.567  0.00  0.00    +0.000 A 
ATOM     10  C   UNL     1     112.881 128.972 140.362  0.00  0.00    +0.000 A 
ATOM     11  C   UNL     1     112.329 130.165 139.274  0.00  0.00    +0.000 A 
ATOM     12  C   UNL     1     112.685 130.403 140.018  0.00  0.00    +0.000 A 
ENDROOT
BRANCH   5  14
ATOM     13  O   UNL     1     111.800 124.536 137.940  0.00  0.00    +0.000 OA
ATOM     14  C   UNL     1     112.027 126.933 138.515  0.00  0.00    +0.000 A 
ATOM     15  C   UNL     1     111.314 126.542 138.651  0.00  0.00    +0.000 A 
ATOM     16  C   UNL     1     112.665 126.525 138.186  0.00  0.00    +0.000 A 
ATOM     17  C   UNL     1     111.239 125.742 138.460  0.00  0.00    +0.000 A 
ATOM     18  C   UNL     1     112.589 125.726 137.995  0.00  0.00    +0.000 A 
ATOM     19  C   UNL     1     111.876 125.335 138.132  0.00  0.00    +0.000 A 
ENDBRANCH   5  14
BRANCH   4  20
ATOM     20  O   UNL     1     111.494 128.086 137.462  0.00  0.00    +0.000 OA
BRANCH  20  27
ATOM     21  O   UNL     1     112.608 128.442 136.640  0.00  0.00    +0.000 OA
ATOM     22  O   UNL     1     111.057 129.158 134.849  0.00  0.00    +0.000 OA
ATOM     23  O   UNL     1     112.687 129.274 134.624  0.00  0.00    +0.000 OA
ATOM     24  C   UNL     1     111.275 128.622 136.156  0.00  0.00    +0.000 C 
ATOM     25  C   UNL     1     111.574 128.919 135.446  0.00  0.00    +0.000 C 
ATOM     26  C   UNL     1     112.389 128.977 135.334  0.00  0.00    +0.000 C 
ATOM     27  C   UNL     1     111.792 128.383 136.753  0.00  0.00    +0.000 C 
ATOM     28  C   UNL     1     112.906 128.738 135.931  0.00  0.00    +0.000 C 
BRANCH  28  30
ATOM     29  O   UNL     1     114.182 128.115 135.776  0.00  0.00    +0.000 OA
ATOM     30  C   UNL     1     113.721 128.797 135.818  0.00  0.00    +0.000 C 
ENDBRANCH  28  30
BRANCH  24  31
ATOM     31  O   UNL     1     110.460 128.564 136.268  0.00  0.00    +0.000 OA
BRANCH  31  36
ATOM     32  O   UNL     1     110.431 127.381 135.468  0.00  0.00    +0.000 OA
ATOM     33  O   UNL     1     108.853 128.383 136.594  0.00  0.00    +0.000 OA
ATOM     34  O   UNL     1     108.020 127.109 135.956  0.00  0.00    +0.000 OA
ATOM     35  O   UNL     1     108.795 126.016 134.993  0.00  0.00    +0.000 OA
ATOM     36  C   UNL     1     110.044 127.927 135.949  0.00  0.00    +0.000 C 
ATOM     37  C   UNL     1     109.240 127.837 136.113  0.00  0.00    +0.000 C 
ATOM     38  C   UNL     1     108.824 127.200 135.794  0.00  0.00    +0.000 C 
ATOM     39  C   UNL     1     109.211 126.653 135.311  0.00  0.00    +0.000 C 
ATOM     40  C   UNL     1     110.015 126.744 135.149  0.00  0.00    +0.000 C 
BRANCH  40  42
ATOM     41  O   UNL     1     110.880 125.616 135.005  0.00  0.00    +0.000 OA
ATOM     42  C   UNL     1     110.402 126.197 134.667  0.00  0.00    +0.000 C 
ENDBRANCH  40  42
ENDBRANCH  31  36
ENDBRANCH  24  31
ENDBRANCH  20  27
ENDBRANCH   4  20
BRANCH   9  43
ATOM     43  O   UNL     1     113.306 130.021 141.284  0.00  0.00    +0.000 OA
BRANCH  43  51
ATOM     44  O   UNL     1     112.302 129.610 142.215  0.00  0.00    +0.000 OA
ATOM     45  O   UNL     1     112.449 131.808 143.344  0.00  0.00    +0.000 OA
ATOM     46  O   UNL     1     113.404 131.486 142.037  0.00  0.00    +0.000 OA
ATOM     47  O   UNL     1     111.397 130.665 143.898  0.00  0.00    +0.000 OA
ATOM     48  C   UNL     1     112.400 131.075 142.968  0.00  0.00    +0.000 C 
ATOM     49  C   UNL     1     112.878 130.915 142.314  0.00  0.00    +0.000 C 
ATOM     50  C   UNL     1     111.874 130.504 143.245  0.00  0.00    +0.000 C 
ATOM     51  C   UNL     1     112.829 130.182 141.938  0.00  0.00    +0.000 C 
ATOM     52  C   UNL     1     111.825 129.772 142.869  0.00  0.00    +0.000 C 
BRANCH  52  55
ATOM     53  O   UNL     1     111.556 128.628 143.682  0.00  0.00    +0.000 OA
ATOM     54  O   UNL     1     110.516 129.199 142.886  0.00  0.00    +0.000 OA
ATOM     55  C   UNL     1     111.299 129.200 143.146  0.00  0.00    +0.000 C 
ENDBRANCH  52  55
ENDBRANCH  43  51
ENDBRANCH   9  43
TORSDOF 10
ENDMDL
MODEL 3
REMARK VINA RESULT:     -10.5      1.390      6.182
REMARK  Name = 74978019
REMARK  10 active torsions:
REMARK  status: ('A' for Active; 'I' for Inactive)
REMARK    1  A    between atoms: O_1  and  C_23
REMARK    2  A    between atoms: O_1  and  C_26
REMARK    3  A    between atoms: O_4  and  C_28
REMARK    4  A    between atoms: O_4  and  C_38
REMARK    5  A    between atoms: O_13  and  C_39
REMARK    6  A    between atoms: O_13  and  C_46
REMARK    7  A    between atoms: C_29  and  C_33
REMARK    8  A    between atoms: C_32  and  C_34
REMARK    9  A    between atoms: C_40  and  C_45
REMARK   10  A    between atoms: C_41  and  C_48
REMARK                            x       y       z     vdW  Elec       q    Type
REMARK                         _______ _______ _______ _____ _____    ______ ____
ROOT
ATOM      1  O   UNL     1     112.819 128.612 137.944  0.00  0.00    +0.000 OA
ATOM      2  O   UNL     1     110.462 128.686 138.698  0.00  0.00    +0.000 OA
ATOM      3  O   UNL     1     110.529 127.313 139.137  0.00  0.00    +0.000 OA
ATOM      4  C   UNL     1     111.593 129.330 138.108  0.00  0.00    +0.000 A 
ATOM      5  C   UNL     1     112.379 129.305 137.856  0.00  0.00    +0.000 A 
ATOM      6  C   UNL     1     111.248 128.661 138.447  0.00  0.00    +0.000 A 
ATOM      7  C   UNL     1     111.688 127.969 138.534  0.00  0.00    +0.000 A 
ATOM      8  C   UNL     1     112.472 127.944 138.283  0.00  0.00    +0.000 A 
ATOM      9  C   UNL     1     112.587 126.530 138.720  0.00  0.00    +0.000 A 
ATOM     10  C   UNL     1     112.940 127.229 138.369  0.00  0.00    +0.000 A 
ATOM     11  C   UNL     1     111.316 127.280 138.889  0.00  0.00    +0.000 A 
ATOM     12  C   UNL     1     111.768 126.555 138.983  0.00  0.00    +0.000 A 
ENDROOT
BRANCH   5  14
ATOM     13  O   UNL     1     113.758 131.977 136.500  0.00  0.00    +0.000 OA
ATOM     14  C   UNL     1     112.724 129.973 137.518  0.00  0.00    +0.000 A 
ATOM     15  C   UNL     1     113.171 130.488 137.982  0.00  0.00    +0.000 A 
ATOM     16  C   UNL     1     112.622 130.127 136.713  0.00  0.00    +0.000 A 
ATOM     17  C   UNL     1     113.516 131.156 137.642  0.00  0.00    +0.000 A 
ATOM     18  C   UNL     1     112.967 130.795 136.374  0.00  0.00    +0.000 A 
ATOM     19  C   UNL     1     113.414 131.310 136.839  0.00  0.00    +0.000 A 
ENDBRANCH   5  14
BRANCH   4  20
ATOM     20  O   UNL     1     111.153 130.022 138.020  0.00  0.00    +0.000 OA
BRANCH  20  27
ATOM     21  O   UNL     1     111.153 130.382 139.403  0.00  0.00    +0.000 OA
ATOM     22  O   UNL     1     108.863 131.290 139.167  0.00  0.00    +0.000 OA
ATOM     23  O   UNL     1     109.627 131.348 140.629  0.00  0.00    +0.000 OA
ATOM     24  C   UNL     1     110.009 130.656 138.593  0.00  0.00    +0.000 C 
ATOM     25  C   UNL     1     109.626 130.987 139.246  0.00  0.00    +0.000 C 
ATOM     26  C   UNL     1     110.009 131.016 139.976  0.00  0.00    +0.000 C 
ATOM     27  C   UNL     1     110.772 130.353 138.672  0.00  0.00    +0.000 C 
ATOM     28  C   UNL     1     110.772 130.714 140.055  0.00  0.00    +0.000 C 
BRANCH  28  30
ATOM     29  O   UNL     1     111.899 131.090 140.850  0.00  0.00    +0.000 OA
ATOM     30  C   UNL     1     111.154 130.743 140.786  0.00  0.00    +0.000 C 
ENDBRANCH  28  30
BRANCH  24  31
ATOM     31  O   UNL     1     109.626 130.627 137.863  0.00  0.00    +0.000 OA
BRANCH  31  36
ATOM     32  O   UNL     1     110.051 131.962 137.586  0.00  0.00    +0.000 OA
ATOM     33  O   UNL     1     108.791 130.597 136.440  0.00  0.00    +0.000 OA
ATOM     34  O   UNL     1     108.799 131.918 135.451  0.00  0.00    +0.000 OA
ATOM     35  O   UNL     1     109.642 133.268 135.885  0.00  0.00    +0.000 OA
ATOM     36  C   UNL     1     109.630 131.287 137.369  0.00  0.00    +0.000 C 
ATOM     37  C   UNL     1     109.212 131.272 136.657  0.00  0.00    +0.000 C 
ATOM     38  C   UNL     1     109.216 131.932 136.163  0.00  0.00    +0.000 C 
ATOM     39  C   UNL     1     109.638 132.608 136.380  0.00  0.00    +0.000 C 
ATOM     40  C   UNL     1     110.055 132.622 137.091  0.00  0.00    +0.000 C 
BRANCH  40  42
ATOM     41  O   UNL     1     110.279 133.702 138.000  0.00  0.00    +0.000 OA
ATOM     42  C   UNL     1     110.477 133.298 137.308  0.00  0.00    +0.000 C 
ENDBRANCH  40  42
ENDBRANCH  31  36
ENDBRANCH  24  31
ENDBRANCH  20  27
ENDBRANCH   4  20
BRANCH   9  43
ATOM     43  O   UNL     1     113.029 125.839 138.807  0.00  0.00    +0.000 OA
BRANCH  43  51
ATOM     44  O   UNL     1     112.554 125.043 137.718  0.00  0.00    +0.000 OA
ATOM     45  O   UNL     1     114.889 124.567 137.048  0.00  0.00    +0.000 OA
ATOM     46  O   UNL     1     114.585 125.521 138.360  0.00  0.00    +0.000 OA
ATOM     47  O   UNL     1     113.637 123.930 136.183  0.00  0.00    +0.000 OA
ATOM     48  C   UNL     1     114.110 124.726 137.272  0.00  0.00    +0.000 C 
ATOM     49  C   UNL     1     113.959 125.203 137.928  0.00  0.00    +0.000 C 
ATOM     50  C   UNL     1     113.485 124.407 136.839  0.00  0.00    +0.000 C 
ATOM     51  C   UNL     1     113.181 125.362 138.151  0.00  0.00    +0.000 C 
ATOM     52  C   UNL     1     112.707 124.566 137.062  0.00  0.00    +0.000 C 
BRANCH  52  55
ATOM     53  O   UNL     1     111.743 124.680 136.014  0.00  0.00    +0.000 OA
ATOM     54  O   UNL     1     111.791 123.497 136.814  0.00  0.00    +0.000 OA
ATOM     55  C   UNL     1     112.080 124.248 136.630  0.00  0.00    +0.000 C 
ENDBRANCH  52  55
ENDBRANCH  43  51
ENDBRANCH   9  43
TORSDOF 10
ENDMDL
MODEL 4
REMARK VINA RESULT:     -10.5      2.702      5.135
REMARK  Name = 74978019
REMARK  10 active torsions:
REMARK  status: ('A' for Active; 'I' for Inactive)
REMARK    1  A    between atoms: O_1  and  C_23
REMARK    2  A    between atoms: O_1  and  C_26
REMARK    3  A    between atoms: O_4  and  C_28
REMARK    4  A    between atoms: O_4  and  C_38
REMARK    5  A    between atoms: O_13  and  C_39
REMARK    6  A    between atoms: O_13  and  C_46
REMARK    7  A    between atoms: C_29  and  C_33
REMARK    8  A    between atoms: C_32  and  C_34
REMARK    9  A    between atoms: C_40  and  C_45
REMARK   10  A    between atoms: C_41  and  C_48
REMARK                            x       y       z     vdW  Elec       q    Type
REMARK                         _______ _______ _______ _____ _____    ______ ____
ROOT
ATOM      1  O   UNL     1     111.320 130.165 139.357  0.00  0.00    +0.000 OA
ATOM      2  O   UNL     1     109.048 129.420 138.715  0.00  0.00    +0.000 OA
ATOM      3  O   UNL     1     108.486 130.020 139.901  0.00  0.00    +0.000 OA
ATOM      4  C   UNL     1     110.450 129.491 138.445  0.00  0.00    +0.000 A 
ATOM      5  C   UNL     1     111.207 129.740 138.659  0.00  0.00    +0.000 A 
ATOM      6  C   UNL     1     109.806 129.669 138.929  0.00  0.00    +0.000 A 
ATOM      7  C   UNL     1     109.919 130.094 139.627  0.00  0.00    +0.000 A 
ATOM      8  C   UNL     1     110.676 130.342 139.841  0.00  0.00    +0.000 A 
ATOM      9  C   UNL     1     110.140 130.973 141.073  0.00  0.00    +0.000 A 
ATOM     10  C   UNL     1     110.806 130.785 140.565  0.00  0.00    +0.000 A 
ATOM     11  C   UNL     1     109.240 130.272 140.123  0.00  0.00    +0.000 A 
ATOM     12  C   UNL     1     109.350 130.715 140.850  0.00  0.00    +0.000 A 
ENDROOT
BRANCH   5  14
ATOM     13  O   UNL     1     113.782 129.028 136.723  0.00  0.00    +0.000 OA
ATOM     14  C   UNL     1     111.851 129.562 138.175  0.00  0.00    +0.000 A 
ATOM     15  C   UNL     1     112.129 130.121 137.636  0.00  0.00    +0.000 A 
ATOM     16  C   UNL     1     112.217 128.824 138.230  0.00  0.00    +0.000 A 
ATOM     17  C   UNL     1     112.773 129.943 137.152  0.00  0.00    +0.000 A 
ATOM     18  C   UNL     1     112.861 128.646 137.745  0.00  0.00    +0.000 A 
ATOM     19  C   UNL     1     113.139 129.206 137.207  0.00  0.00    +0.000 A 
ENDBRANCH   5  14
BRANCH   4  20
ATOM     20  O   UNL     1     110.337 129.066 137.747  0.00  0.00    +0.000 OA
BRANCH  20  27
ATOM     21  O   UNL     1     109.752 130.133 136.998  0.00  0.00    +0.000 OA
ATOM     22  O   UNL     1     108.244 128.521 135.879  0.00  0.00    +0.000 OA
ATOM     23  O   UNL     1     108.162 130.126 135.503  0.00  0.00    +0.000 OA
ATOM     24  C   UNL     1     109.291 128.793 136.813  0.00  0.00    +0.000 C 
ATOM     25  C   UNL     1     108.747 129.058 136.252  0.00  0.00    +0.000 C 
ATOM     26  C   UNL     1     108.706 129.861 136.064  0.00  0.00    +0.000 C 
ATOM     27  C   UNL     1     109.793 129.331 137.187  0.00  0.00    +0.000 C 
ATOM     28  C   UNL     1     109.208 130.398 136.438  0.00  0.00    +0.000 C 
BRANCH  28  30
ATOM     29  O   UNL     1     109.816 131.580 135.912  0.00  0.00    +0.000 OA
ATOM     30  C   UNL     1     109.167 131.200 136.249  0.00  0.00    +0.000 C 
ENDBRANCH  28  30
BRANCH  24  31
ATOM     31  O   UNL     1     109.331 127.991 137.001  0.00  0.00    +0.000 OA
BRANCH  31  36
ATOM     32  O   UNL     1     110.078 127.748 135.807  0.00  0.00    +0.000 OA
ATOM     33  O   UNL     1     109.480 126.401 137.417  0.00  0.00    +0.000 OA
ATOM     34  O   UNL     1     110.300 125.363 136.432  0.00  0.00    +0.000 OA
ATOM     35  O   UNL     1     110.973 125.915 135.029  0.00  0.00    +0.000 OA
ATOM     36  C   UNL     1     109.742 127.472 136.508  0.00  0.00    +0.000 C 
ATOM     37  C   UNL     1     109.816 126.677 136.717  0.00  0.00    +0.000 C 
ATOM     38  C   UNL     1     110.226 126.158 136.224  0.00  0.00    +0.000 C 
ATOM     39  C   UNL     1     110.562 126.434 135.522  0.00  0.00    +0.000 C 
ATOM     40  C   UNL     1     110.488 127.229 135.315  0.00  0.00    +0.000 C 
BRANCH  40  42
ATOM     41  O   UNL     1     111.484 127.999 134.639  0.00  0.00    +0.000 OA
ATOM     42  C   UNL     1     110.824 127.505 134.613  0.00  0.00    +0.000 C 
ENDBRANCH  40  42
ENDBRANCH  31  36
ENDBRANCH  24  31
ENDBRANCH  20  27
ENDBRANCH   4  20
BRANCH   9  43
ATOM     43  O   UNL     1     110.256 131.399 141.771  0.00  0.00    +0.000 OA
BRANCH  43  51
ATOM     44  O   UNL     1     110.426 130.295 142.662  0.00  0.00    +0.000 OA
ATOM     45  O   UNL     1     112.255 131.504 143.810  0.00  0.00    +0.000 OA
ATOM     46  O   UNL     1     111.475 132.205 142.536  0.00  0.00    +0.000 OA
ATOM     47  O   UNL     1     111.817 129.998 144.319  0.00  0.00    +0.000 OA
ATOM     48  C   UNL     1     111.645 131.101 143.427  0.00  0.00    +0.000 C 
ATOM     49  C   UNL     1     111.255 131.452 142.790  0.00  0.00    +0.000 C 
ATOM     50  C   UNL     1     111.427 130.348 143.682  0.00  0.00    +0.000 C 
ATOM     51  C   UNL     1     110.646 131.048 142.408  0.00  0.00    +0.000 C 
ATOM     52  C   UNL     1     110.817 129.945 143.299  0.00  0.00    +0.000 C 
BRANCH  52  55
ATOM     53  O   UNL     1     111.002 128.528 143.275  0.00  0.00    +0.000 OA
ATOM     54  O   UNL     1     109.974 129.101 144.086  0.00  0.00    +0.000 OA
ATOM     55  C   UNL     1     110.598 129.191 143.553  0.00  0.00    +0.000 C 
ENDBRANCH  52  55
ENDBRANCH  43  51
ENDBRANCH   9  43
TORSDOF 10
ENDMDL
MODEL 5
REMARK VINA RESULT:     -10.3      3.344      5.466
REMARK  Name = 74978019
REMARK  10 active torsions:
REMARK  status: ('A' for Active; 'I' for Inactive)
REMARK    1  A    between atoms: O_1  and  C_23
REMARK    2  A    between atoms: O_1  and  C_26
REMARK    3  A    between atoms: O_4  and  C_28
REMARK    4  A    between atoms: O_4  and  C_38
REMARK    5  A    between atoms: O_13  and  C_39
REMARK    6  A    between atoms: O_13  and  C_46
REMARK    7  A    between atoms: C_29  and  C_33
REMARK    8  A    between atoms: C_32  and  C_34
REMARK    9  A    between atoms: C_40  and  C_45
REMARK   10  A    between atoms: C_41  and  C_48
REMARK                            x       y       z     vdW  Elec       q    Type
REMARK                         _______ _______ _______ _____ _____    ______ ____
ROOT
ATOM      1  O   UNL     1     109.956 125.622 139.183  0.00  0.00    +0.000 OA
ATOM      2  O   UNL     1     110.142 128.061 139.562  0.00  0.00    +0.000 OA
ATOM      3  O   UNL     1     109.269 127.979 140.708  0.00  0.00    +0.000 OA
ATOM      4  C   UNL     1     110.482 126.897 138.807  0.00  0.00    +0.000 A 
ATOM      5  C   UNL     1     110.420 126.083 138.681  0.00  0.00    +0.000 A 
ATOM      6  C   UNL     1     110.080 127.248 139.436  0.00  0.00    +0.000 A 
ATOM      7  C   UNL     1     109.615 126.787 139.938  0.00  0.00    +0.000 A 
ATOM      8  C   UNL     1     109.554 125.974 139.812  0.00  0.00    +0.000 A 
ATOM      9  C   UNL     1     108.652 125.843 140.984  0.00  0.00    +0.000 A 
ATOM     10  C   UNL     1     109.073 125.484 140.328  0.00  0.00    +0.000 A 
ATOM     11  C   UNL     1     109.201 127.165 140.589  0.00  0.00    +0.000 A 
ATOM     12  C   UNL     1     108.716 126.691 141.116  0.00  0.00    +0.000 A 
ENDROOT
BRANCH   5  14
ATOM     13  O   UNL     1     112.028 124.679 136.165  0.00  0.00    +0.000 OA
ATOM     14  C   UNL     1     110.822 125.732 138.052  0.00  0.00    +0.000 A 
ATOM     15  C   UNL     1     111.539 125.346 138.185  0.00  0.00    +0.000 A 
ATOM     16  C   UNL     1     110.507 125.767 137.290  0.00  0.00    +0.000 A 
ATOM     17  C   UNL     1     111.941 124.995 137.555  0.00  0.00    +0.000 A 
ATOM     18  C   UNL     1     110.910 125.416 136.661  0.00  0.00    +0.000 A 
ATOM     19  C   UNL     1     111.626 125.030 136.794  0.00  0.00    +0.000 A 
ENDBRANCH   5  14
BRANCH   4  20
ATOM     20  O   UNL     1     110.946 127.358 138.305  0.00  0.00    +0.000 OA
BRANCH  20  27
ATOM     21  O   UNL     1     112.016 127.556 139.231  0.00  0.00    +0.000 OA
ATOM     22  O   UNL     1     112.379 129.830 138.324  0.00  0.00    +0.000 OA
ATOM     23  O   UNL     1     113.328 129.271 139.553  0.00  0.00    +0.000 OA
ATOM     24  C   UNL     1     111.662 128.594 138.314  0.00  0.00    +0.000 C 
ATOM     25  C   UNL     1     112.258 129.072 138.626  0.00  0.00    +0.000 C 
ATOM     26  C   UNL     1     112.732 128.792 139.240  0.00  0.00    +0.000 C 
ATOM     27  C   UNL     1     111.541 127.836 138.617  0.00  0.00    +0.000 C 
ATOM     28  C   UNL     1     112.612 128.034 139.543  0.00  0.00    +0.000 C 
BRANCH  28  30
ATOM     29  O   UNL     1     113.532 127.069 140.055  0.00  0.00    +0.000 OA
ATOM     30  C   UNL     1     113.086 127.755 140.157  0.00  0.00    +0.000 C 
ENDBRANCH  28  30
BRANCH  24  31
ATOM     31  O   UNL     1     111.188 128.874 137.700  0.00  0.00    +0.000 OA
BRANCH  31  36
ATOM     32  O   UNL     1     112.247 128.634 136.772  0.00  0.00    +0.000 OA
ATOM     33  O   UNL     1     110.231 129.415 136.470  0.00  0.00    +0.000 OA
ATOM     34  O   UNL     1     110.812 129.446 134.926  0.00  0.00    +0.000 OA
ATOM     35  O   UNL     1     112.350 128.935 134.612  0.00  0.00    +0.000 OA
ATOM     36  C   UNL     1     111.479 128.889 136.928  0.00  0.00    +0.000 C 
ATOM     37  C   UNL     1     111.000 129.160 136.313  0.00  0.00    +0.000 C 
ATOM     38  C   UNL     1     111.290 129.175 135.541  0.00  0.00    +0.000 C 
ATOM     39  C   UNL     1     112.059 128.920 135.384  0.00  0.00    +0.000 C 
ATOM     40  C   UNL     1     112.537 128.650 136.000  0.00  0.00    +0.000 C 
BRANCH  40  42
ATOM     41  O   UNL     1     113.529 127.621 136.024  0.00  0.00    +0.000 OA
ATOM     42  C   UNL     1     113.306 128.394 135.843  0.00  0.00    +0.000 C 
ENDBRANCH  40  42
ENDBRANCH  31  36
ENDBRANCH  24  31
ENDBRANCH  20  27
ENDBRANCH   4  20
BRANCH   9  43
ATOM     43  O   UNL     1     108.188 125.380 141.485  0.00  0.00    +0.000 OA
BRANCH  43  51
ATOM     44  O   UNL     1     107.072 125.068 140.648  0.00  0.00    +0.000 OA
ATOM     45  O   UNL     1     105.526 125.739 142.461  0.00  0.00    +0.000 OA
ATOM     46  O   UNL     1     107.157 125.827 142.693  0.00  0.00    +0.000 OA
ATOM     47  O   UNL     1     104.925 125.203 141.020  0.00  0.00    +0.000 OA
ATOM     48  C   UNL     1     106.041 125.515 141.856  0.00  0.00    +0.000 C 
ATOM     49  C   UNL     1     106.857 125.559 141.973  0.00  0.00    +0.000 C 
ATOM     50  C   UNL     1     105.741 125.247 141.137  0.00  0.00    +0.000 C 
ATOM     51  C   UNL     1     107.373 125.335 141.369  0.00  0.00    +0.000 C 
ATOM     52  C   UNL     1     106.256 125.024 140.533  0.00  0.00    +0.000 C 
BRANCH  52  55
ATOM     53  O   UNL     1     105.825 123.950 139.694  0.00  0.00    +0.000 OA
ATOM     54  O   UNL     1     105.788 125.294 139.210  0.00  0.00    +0.000 OA
ATOM     55  C   UNL     1     105.956 124.756 139.812  0.00  0.00    +0.000 C 
ENDBRANCH  52  55
ENDBRANCH  43  51
ENDBRANCH   9  43
TORSDOF 10
ENDMDL
MODEL 6
REMARK VINA RESULT:     -10.3      2.383      5.032
REMARK  Name = 74978019
REMARK  10 active torsions:
REMARK  status: ('A' for Active; 'I' for Inactive)
REMARK    1  A    between atoms: O_1  and  C_23
REMARK    2  A    between atoms: O_1  and  C_26
REMARK    3  A    between atoms: O_4  and  C_28
REMARK    4  A    between atoms: O_4  and  C_38
REMARK    5  A    between atoms: O_13  and  C_39
REMARK    6  A    between atoms: O_13  and  C_46
REMARK    7  A    between atoms: C_29  and  C_33
REMARK    8  A    between atoms: C_32  and  C_34
REMARK    9  A    between atoms: C_40  and  C_45
REMARK   10  A    between atoms: C_41  and  C_48
REMARK                            x       y       z     vdW  Elec       q    Type
REMARK                         _______ _______ _______ _____ _____    ______ ____
ROOT
ATOM      1  O   UNL     1     111.393 129.768 139.409  0.00  0.00    +0.000 OA
ATOM      2  O   UNL     1     113.281 128.228 138.968  0.00  0.00    +0.000 OA
ATOM      3  O   UNL     1     113.984 128.713 140.131  0.00  0.00    +0.000 OA
ATOM      4  C   UNL     1     111.999 128.749 138.610  0.00  0.00    +0.000 A 
ATOM      5  C   UNL     1     111.370 129.262 138.757  0.00  0.00    +0.000 A 
ATOM      6  C   UNL     1     112.651 128.742 139.115  0.00  0.00    +0.000 A 
ATOM      7  C   UNL     1     112.674 129.247 139.767  0.00  0.00    +0.000 A 
ATOM      8  C   UNL     1     112.045 129.759 139.914  0.00  0.00    +0.000 A 
ATOM      9  C   UNL     1     112.733 130.287 141.119  0.00  0.00    +0.000 A 
ATOM     10  C   UNL     1     112.058 130.290 140.589  0.00  0.00    +0.000 A 
ATOM     11  C   UNL     1     113.359 129.229 140.286  0.00  0.00    +0.000 A 
ATOM     12  C   UNL     1     113.389 129.753 140.966  0.00  0.00    +0.000 A 
ENDROOT
BRANCH   5  14
ATOM     13  O   UNL     1     108.763 129.293 136.734  0.00  0.00    +0.000 OA
ATOM     14  C   UNL     1     110.718 129.270 138.252  0.00  0.00    +0.000 A 
ATOM     15  C   UNL     1     110.137 128.687 138.318  0.00  0.00    +0.000 A 
ATOM     16  C   UNL     1     110.647 129.860 137.679  0.00  0.00    +0.000 A 
ATOM     17  C   UNL     1     109.486 128.696 137.812  0.00  0.00    +0.000 A 
ATOM     18  C   UNL     1     109.995 129.868 137.173  0.00  0.00    +0.000 A 
ATOM     19  C   UNL     1     109.414 129.285 137.240  0.00  0.00    +0.000 A 
ENDBRANCH   5  14
BRANCH   4  20
ATOM     20  O   UNL     1     111.976 128.244 137.958  0.00  0.00    +0.000 OA
BRANCH  20  27
ATOM     21  O   UNL     1     112.888 128.984 137.144  0.00  0.00    +0.000 OA
ATOM     22  O   UNL     1     113.803 126.868 136.244  0.00  0.00    +0.000 OA
ATOM     23  O   UNL     1     114.409 128.314 135.730  0.00  0.00    +0.000 OA
ATOM     24  C   UNL     1     112.889 127.556 137.102  0.00  0.00    +0.000 C 
ATOM     25  C   UNL     1     113.498 127.574 136.544  0.00  0.00    +0.000 C 
ATOM     26  C   UNL     1     113.801 128.297 136.287  0.00  0.00    +0.000 C 
ATOM     27  C   UNL     1     112.584 128.261 137.402  0.00  0.00    +0.000 C 
ATOM     28  C   UNL     1     113.496 129.002 136.587  0.00  0.00    +0.000 C 
BRANCH  28  30
ATOM     29  O   UNL     1     113.305 130.272 135.961  0.00  0.00    +0.000 OA
ATOM     30  C   UNL     1     113.799 129.725 136.330  0.00  0.00    +0.000 C 
ENDBRANCH  28  30
BRANCH  24  31
ATOM     31  O   UNL     1     112.587 126.833 137.358  0.00  0.00    +0.000 OA
BRANCH  31  36
ATOM     32  O   UNL     1     111.804 126.727 136.168  0.00  0.00    +0.000 OA
ATOM     33  O   UNL     1     112.171 125.290 137.769  0.00  0.00    +0.000 OA
ATOM     34  O   UNL     1     111.180 124.412 136.784  0.00  0.00    +0.000 OA
ATOM     35  O   UNL     1     110.606 125.078 135.388  0.00  0.00    +0.000 OA
ATOM     36  C   UNL     1     112.092 126.394 136.866  0.00  0.00    +0.000 C 
ATOM     37  C   UNL     1     111.884 125.623 137.072  0.00  0.00    +0.000 C 
ATOM     38  C   UNL     1     111.389 125.184 136.579  0.00  0.00    +0.000 C 
ATOM     39  C   UNL     1     111.101 125.516 135.880  0.00  0.00    +0.000 C 
ATOM     40  C   UNL     1     111.309 126.288 135.676  0.00  0.00    +0.000 C 
BRANCH  40  42
ATOM     41  O   UNL     1     110.415 127.179 135.006  0.00  0.00    +0.000 OA
ATOM     42  C   UNL     1     111.021 126.621 134.977  0.00  0.00    +0.000 C 
ENDBRANCH  40  42
ENDBRANCH  31  36
ENDBRANCH  24  31
ENDBRANCH  20  27
ENDBRANCH   4  20
BRANCH   9  43
ATOM     43  O   UNL     1     112.754 130.794 141.770  0.00  0.00    +0.000 OA
BRANCH  43  51
ATOM     44  O   UNL     1     112.108 129.922 142.700  0.00  0.00    +0.000 OA
ATOM     45  O   UNL     1     110.907 131.853 143.677  0.00  0.00    +0.000 OA
ATOM     46  O   UNL     1     111.953 132.081 142.421  0.00  0.00    +0.000 OA
ATOM     47  O   UNL     1     110.661 130.338 144.281  0.00  0.00    +0.000 OA
ATOM     48  C   UNL     1     111.307 131.209 143.351  0.00  0.00    +0.000 C 
ATOM     49  C   UNL     1     111.830 131.323 142.723  0.00  0.00    +0.000 C 
ATOM     50  C   UNL     1     111.184 130.452 143.654  0.00  0.00    +0.000 C 
ATOM     51  C   UNL     1     112.231 130.679 142.398  0.00  0.00    +0.000 C 
ATOM     52  C   UNL     1     111.585 129.808 143.328  0.00  0.00    +0.000 C 
BRANCH  52  55
ATOM     53  O   UNL     1     111.918 128.780 144.263  0.00  0.00    +0.000 OA
ATOM     54  O   UNL     1     110.884 128.563 143.300  0.00  0.00    +0.000 OA
ATOM     55  C   UNL     1     111.462 129.050 143.630  0.00  0.00    +0.000 C 
ENDBRANCH  52  55
ENDBRANCH  43  51
ENDBRANCH   9  43
TORSDOF 10
ENDMDL
MODEL 7
REMARK VINA RESULT:     -10.3      7.396      9.245
REMARK  Name = 74978019
REMARK  10 active torsions:
REMARK  status: ('A' for Active; 'I' for Inactive)
REMARK    1  A    between atoms: O_1  and  C_23
REMARK    2  A    between atoms: O_1  and  C_26
REMARK    3  A    between atoms: O_4  and  C_28
REMARK    4  A    between atoms: O_4  and  C_38
REMARK    5  A    between atoms: O_13  and  C_39
REMARK    6  A    between atoms: O_13  and  C_46
REMARK    7  A    between atoms: C_29  and  C_33
REMARK    8  A    between atoms: C_32  and  C_34
REMARK    9  A    between atoms: C_40  and  C_45
REMARK   10  A    between atoms: C_41  and  C_48
REMARK                            x       y       z     vdW  Elec       q    Type
REMARK                         _______ _______ _______ _____ _____    ______ ____
ROOT
ATOM      1  O   UNL     1     104.033 130.031 143.757  0.00  0.00    +0.000 OA
ATOM      2  O   UNL     1     104.777 128.007 142.541  0.00  0.00    +0.000 OA
ATOM      3  O   UNL     1     104.013 128.389 141.378  0.00  0.00    +0.000 OA
ATOM      4  C   UNL     1     104.788 128.817 143.718  0.00  0.00    +0.000 A 
ATOM      5  C   UNL     1     104.539 129.492 144.123  0.00  0.00    +0.000 A 
ATOM      6  C   UNL     1     104.529 128.682 142.946  0.00  0.00    +0.000 A 
ATOM      7  C   UNL     1     104.022 129.220 142.580  0.00  0.00    +0.000 A 
ATOM      8  C   UNL     1     103.774 129.894 142.985  0.00  0.00    +0.000 A 
ATOM      9  C   UNL     1     102.973 130.326 141.812  0.00  0.00    +0.000 A 
ATOM     10  C   UNL     1     103.247 130.461 142.615  0.00  0.00    +0.000 A 
ATOM     11  C   UNL     1     103.760 129.067 141.776  0.00  0.00    +0.000 A 
ATOM     12  C   UNL     1     103.232 129.623 141.389  0.00  0.00    +0.000 A 
ENDROOT
BRANCH   5  14
ATOM     13  O   UNL     1     105.574 130.034 147.209  0.00  0.00    +0.000 OA
ATOM     14  C   UNL     1     104.798 129.628 144.894  0.00  0.00    +0.000 A 
ATOM     15  C   UNL     1     105.438 130.131 145.033  0.00  0.00    +0.000 A 
ATOM     16  C   UNL     1     104.417 129.260 145.528  0.00  0.00    +0.000 A 
ATOM     17  C   UNL     1     105.696 130.266 145.805  0.00  0.00    +0.000 A 
ATOM     18  C   UNL     1     104.676 129.396 146.299  0.00  0.00    +0.000 A 
ATOM     19  C   UNL     1     105.316 129.899 146.438  0.00  0.00    +0.000 A 
ENDBRANCH   5  14
BRANCH   4  20
ATOM     20  O   UNL     1     105.295 128.279 144.084  0.00  0.00    +0.000 OA
BRANCH  20  27
ATOM     21  O   UNL     1     106.482 128.655 143.382  0.00  0.00    +0.000 OA
ATOM     22  O   UNL     1     107.194 126.285 143.320  0.00  0.00    +0.000 OA
ATOM     23  O   UNL     1     108.144 127.450 142.639  0.00  0.00    +0.000 OA
ATOM     24  C   UNL     1     106.244 127.283 143.702  0.00  0.00    +0.000 C 
ATOM     25  C   UNL     1     106.957 127.075 143.341  0.00  0.00    +0.000 C 
ATOM     26  C   UNL     1     107.431 127.658 143.001  0.00  0.00    +0.000 C 
ATOM     27  C   UNL     1     106.006 128.072 143.723  0.00  0.00    +0.000 C 
ATOM     28  C   UNL     1     107.194 128.448 143.021  0.00  0.00    +0.000 C 
BRANCH  28  30
ATOM     29  O   UNL     1     107.960 129.648 143.143  0.00  0.00    +0.000 OA
ATOM     30  C   UNL     1     107.669 129.030 142.681  0.00  0.00    +0.000 C 
ENDBRANCH  28  30
BRANCH  24  31
ATOM     31  O   UNL     1     105.770 126.700 144.042  0.00  0.00    +0.000 OA
BRANCH  31  36
ATOM     32  O   UNL     1     106.425 126.764 145.309  0.00  0.00    +0.000 OA
ATOM     33  O   UNL     1     105.387 125.119 144.320  0.00  0.00    +0.000 OA
ATOM     34  O   UNL     1     105.851 124.393 145.727  0.00  0.00    +0.000 OA
ATOM     35  O   UNL     1     106.698 125.247 146.856  0.00  0.00    +0.000 OA
ATOM     36  C   UNL     1     106.002 126.337 144.745  0.00  0.00    +0.000 C 
ATOM     37  C   UNL     1     105.810 125.546 144.884  0.00  0.00    +0.000 C 
ATOM     38  C   UNL     1     106.042 125.183 145.587  0.00  0.00    +0.000 C 
ATOM     39  C   UNL     1     106.466 125.610 146.152  0.00  0.00    +0.000 C 
ATOM     40  C   UNL     1     106.657 126.400 146.013  0.00  0.00    +0.000 C 
BRANCH  40  42
ATOM     41  O   UNL     1     107.792 127.193 146.370  0.00  0.00    +0.000 OA
ATOM     42  C   UNL     1     107.082 126.828 146.578  0.00  0.00    +0.000 C 
ENDBRANCH  40  42
ENDBRANCH  31  36
ENDBRANCH  24  31
ENDBRANCH  20  27
ENDBRANCH   4  20
BRANCH   9  43
ATOM     43  O   UNL     1     102.466 130.866 141.448  0.00  0.00    +0.000 OA
BRANCH  43  51
ATOM     44  O   UNL     1     103.435 131.691 140.797  0.00  0.00    +0.000 OA
ATOM     45  O   UNL     1     102.186 133.710 141.497  0.00  0.00    +0.000 OA
ATOM     46  O   UNL     1     101.634 132.212 141.914  0.00  0.00    +0.000 OA
ATOM     47  O   UNL     1     103.570 133.862 140.613  0.00  0.00    +0.000 OA
ATOM     48  C   UNL     1     102.602 133.037 141.264  0.00  0.00    +0.000 C 
ATOM     49  C   UNL     1     102.326 132.288 141.472  0.00  0.00    +0.000 C 
ATOM     50  C   UNL     1     103.294 133.113 140.822  0.00  0.00    +0.000 C 
ATOM     51  C   UNL     1     102.743 131.615 141.239  0.00  0.00    +0.000 C 
ATOM     52  C   UNL     1     103.711 132.440 140.589  0.00  0.00    +0.000 C 
BRANCH  52  55
ATOM     53  O   UNL     1     104.364 132.573 139.325  0.00  0.00    +0.000 OA
ATOM     54  O   UNL     1     105.135 132.536 140.527  0.00  0.00    +0.000 OA
ATOM     55  C   UNL     1     104.403 132.516 140.147  0.00  0.00    +0.000 C 
ENDBRANCH  52  55
ENDBRANCH  43  51
ENDBRANCH   9  43
TORSDOF 10
ENDMDL
MODEL 8
REMARK VINA RESULT:     -10.3      2.496      6.180
REMARK  Name = 74978019
REMARK  10 active torsions:
REMARK  status: ('A' for Active; 'I' for Inactive)
REMARK    1  A    between atoms: O_1  and  C_23
REMARK    2  A    between atoms: O_1  and  C_26
REMARK    3  A    between atoms: O_4  and  C_28
REMARK    4  A    between atoms: O_4  and  C_38
REMARK    5  A    between atoms: O_13  and  C_39
REMARK    6  A    between atoms: O_13  and  C_46
REMARK    7  A    between atoms: C_29  and  C_33
REMARK    8  A    between atoms: C_32  and  C_34
REMARK    9  A    between atoms: C_40  and  C_45
REMARK   10  A    between atoms: C_41  and  C_48
REMARK                            x       y       z     vdW  Elec       q    Type
REMARK                         _______ _______ _______ _____ _____    ______ ____
ROOT
ATOM      1  O   UNL     1     112.899 128.565 138.622  0.00  0.00    +0.000 OA
ATOM      2  O   UNL     1     110.638 128.451 139.625  0.00  0.00    +0.000 OA
ATOM      3  O   UNL     1     110.182 127.582 138.568  0.00  0.00    +0.000 OA
ATOM      4  C   UNL     1     111.981 128.938 139.653  0.00  0.00    +0.000 A 
ATOM      5  C   UNL     1     112.735 128.976 139.319  0.00  0.00    +0.000 A 
ATOM      6  C   UNL     1     111.392 128.489 139.291  0.00  0.00    +0.000 A 
ATOM      7  C   UNL     1     111.555 128.078 138.594  0.00  0.00    +0.000 A 
ATOM      8  C   UNL     1     112.308 128.117 138.260  0.00  0.00    +0.000 A 
ATOM      9  C   UNL     1     111.881 127.225 137.152  0.00  0.00    +0.000 A 
ATOM     10  C   UNL     1     112.491 127.694 137.535  0.00  0.00    +0.000 A 
ATOM     11  C   UNL     1     110.932 127.615 138.226  0.00  0.00    +0.000 A 
ATOM     12  C   UNL     1     111.096 127.185 137.500  0.00  0.00    +0.000 A 
ENDROOT
BRANCH   5  14
ATOM     13  O   UNL     1     115.093 130.769 140.771  0.00  0.00    +0.000 OA
ATOM     14  C   UNL     1     113.325 129.424 139.682  0.00  0.00    +0.000 A 
ATOM     15  C   UNL     1     113.507 130.176 139.395  0.00  0.00    +0.000 A 
ATOM     16  C   UNL     1     113.733 129.120 140.332  0.00  0.00    +0.000 A 
ATOM     17  C   UNL     1     114.096 130.624 139.759  0.00  0.00    +0.000 A 
ATOM     18  C   UNL     1     114.322 129.569 140.695  0.00  0.00    +0.000 A 
ATOM     19  C   UNL     1     114.504 130.321 140.408  0.00  0.00    +0.000 A 
ENDBRANCH   5  14
BRANCH   4  20
ATOM     20  O   UNL     1     111.818 129.348 140.350  0.00  0.00    +0.000 OA
BRANCH  20  27
ATOM     21  O   UNL     1     111.031 130.384 139.759  0.00  0.00    +0.000 OA
ATOM     22  O   UNL     1     109.538 130.377 141.733  0.00  0.00    +0.000 OA
ATOM     23  O   UNL     1     109.249 131.415 140.483  0.00  0.00    +0.000 OA
ATOM     24  C   UNL     1     110.679 129.862 141.041  0.00  0.00    +0.000 C 
ATOM     25  C   UNL     1     110.036 130.379 141.075  0.00  0.00    +0.000 C 
ATOM     26  C   UNL     1     109.892 130.898 140.450  0.00  0.00    +0.000 C 
ATOM     27  C   UNL     1     111.176 129.865 140.383  0.00  0.00    +0.000 C 
ATOM     28  C   UNL     1     110.390 130.901 139.792  0.00  0.00    +0.000 C 
BRANCH  28  30
ATOM     29  O   UNL     1     110.821 131.963 138.939  0.00  0.00    +0.000 OA
ATOM     30  C   UNL     1     110.244 131.420 139.167  0.00  0.00    +0.000 C 
ENDBRANCH  28  30
BRANCH  24  31
ATOM     31  O   UNL     1     110.823 129.343 141.666  0.00  0.00    +0.000 OA
BRANCH  31  36
ATOM     32  O   UNL     1     111.405 130.406 142.422  0.00  0.00    +0.000 OA
ATOM     33  O   UNL     1     110.950 128.344 142.973  0.00  0.00    +0.000 OA
ATOM     34  O   UNL     1     111.596 128.908 144.383  0.00  0.00    +0.000 OA
ATOM     35  O   UNL     1     112.115 130.471 144.485  0.00  0.00    +0.000 OA
ATOM     36  C   UNL     1     111.146 129.625 142.371  0.00  0.00    +0.000 C 
ATOM     37  C   UNL     1     111.209 129.125 143.024  0.00  0.00    +0.000 C 
ATOM     38  C   UNL     1     111.532 129.407 143.729  0.00  0.00    +0.000 C 
ATOM     39  C   UNL     1     111.792 130.189 143.780  0.00  0.00    +0.000 C 
ATOM     40  C   UNL     1     111.728 130.688 143.127  0.00  0.00    +0.000 C 
BRANCH  40  42
ATOM     41  O   UNL     1     112.631 131.721 142.726  0.00  0.00    +0.000 OA
ATOM     42  C   UNL     1     111.988 131.470 143.178  0.00  0.00    +0.000 C 
ENDBRANCH  40  42
ENDBRANCH  31  36
ENDBRANCH  24  31
ENDBRANCH  20  27
ENDBRANCH   4  20
BRANCH   9  43
ATOM     43  O   UNL     1     112.047 126.815 136.455  0.00  0.00    +0.000 OA
BRANCH  43  51
ATOM     44  O   UNL     1     113.130 125.944 136.790  0.00  0.00    +0.000 OA
ATOM     45  O   UNL     1     111.814 124.005 135.994  0.00  0.00    +0.000 OA
ATOM     46  O   UNL     1     111.170 125.522 135.925  0.00  0.00    +0.000 OA
ATOM     47  O   UNL     1     113.334 123.779 136.593  0.00  0.00    +0.000 OA
ATOM     48  C   UNL     1     112.252 124.651 136.259  0.00  0.00    +0.000 C 
ATOM     49  C   UNL     1     111.931 125.410 136.225  0.00  0.00    +0.000 C 
ATOM     50  C   UNL     1     113.012 124.538 136.558  0.00  0.00    +0.000 C 
ATOM     51  C   UNL     1     112.369 126.056 136.490  0.00  0.00    +0.000 C 
ATOM     52  C   UNL     1     113.451 125.184 136.824  0.00  0.00    +0.000 C 
BRANCH  52  55
ATOM     53  O   UNL     1     114.322 124.942 137.931  0.00  0.00    +0.000 OA
ATOM     54  O   UNL     1     114.862 125.089 136.616  0.00  0.00    +0.000 OA
ATOM     55  C   UNL     1     114.211 125.072 137.124  0.00  0.00    +0.000 C 
ENDBRANCH  52  55
ENDBRANCH  43  51
ENDBRANCH   9  43
TORSDOF 10
ENDMDL
MODEL 9
REMARK VINA RESULT:     -10.3      4.562      7.511
REMARK  Name = 74978019
REMARK  10 active torsions:
REMARK  status: ('A' for Active; 'I' for Inactive)
REMARK    1  A    between atoms: O_1  and  C_23
REMARK    2  A    between atoms: O_1  and  C_26
REMARK    3  A    between atoms: O_4  and  C_28
REMARK    4  A    between atoms: O_4  and  C_38
REMARK    5  A    between atoms: O_13  and  C_39
REMARK    6  A    between atoms: O_13  and  C_46
REMARK    7  A    between atoms: C_29  and  C_33
REMARK    8  A    between atoms: C_32  and  C_34
REMARK    9  A    between atoms: C_40  and  C_45
REMARK   10  A    between atoms: C_41  and  C_48
REMARK                            x       y       z     vdW  Elec       q    Type
REMARK                         _______ _______ _______ _____ _____    ______ ____
ROOT
ATOM      1  O   UNL     1     110.236 130.398 142.970  0.00  0.00    +0.000 OA
ATOM      2  O   UNL     1     111.934 131.391 141.467  0.00  0.00    +0.000 OA
ATOM      3  O   UNL     1     112.744 131.784 142.595  0.00  0.00    +0.000 OA
ATOM      4  C   UNL     1     110.694 130.706 141.651  0.00  0.00    +0.000 A 
ATOM      5  C   UNL     1     110.127 130.375 142.153  0.00  0.00    +0.000 A 
ATOM      6  C   UNL     1     111.368 131.060 141.969  0.00  0.00    +0.000 A 
ATOM      7  C   UNL     1     111.476 131.083 142.786  0.00  0.00    +0.000 A 
ATOM      8  C   UNL     1     110.911 130.752 143.286  0.00  0.00    +0.000 A 
ATOM      9  C   UNL     1     111.712 131.137 144.476  0.00  0.00    +0.000 A 
ATOM     10  C   UNL     1     111.013 130.770 144.139  0.00  0.00    +0.000 A 
ATOM     11  C   UNL     1     112.183 131.455 143.103  0.00  0.00    +0.000 A 
ATOM     12  C   UNL     1     112.302 131.483 143.954  0.00  0.00    +0.000 A 
ENDROOT
BRANCH   5  14
ATOM     13  O   UNL     1     107.430 128.960 140.884  0.00  0.00    +0.000 OA
ATOM     14  C   UNL     1     109.453 130.020 141.836  0.00  0.00    +0.000 A 
ATOM     15  C   UNL     1     109.428 129.203 141.729  0.00  0.00    +0.000 A 
ATOM     16  C   UNL     1     108.804 130.485 141.625  0.00  0.00    +0.000 A 
ATOM     17  C   UNL     1     108.753 128.850 141.411  0.00  0.00    +0.000 A 
ATOM     18  C   UNL     1     108.130 130.131 141.308  0.00  0.00    +0.000 A 
ATOM     19  C   UNL     1     108.104 129.313 141.201  0.00  0.00    +0.000 A 
ENDBRANCH   5  14
BRANCH   4  20
ATOM     20  O   UNL     1     110.585 130.683 140.834  0.00  0.00    +0.000 OA
BRANCH  20  27
ATOM     21  O   UNL     1     111.590 129.697 140.587  0.00  0.00    +0.000 OA
ATOM     22  O   UNL     1     112.104 130.766 138.415  0.00  0.00    +0.000 OA
ATOM     23  O   UNL     1     112.938 129.424 138.892  0.00  0.00    +0.000 OA
ATOM     24  C   UNL     1     111.344 130.725 139.625  0.00  0.00    +0.000 C 
ATOM     25  C   UNL     1     111.933 130.410 139.139  0.00  0.00    +0.000 C 
ATOM     26  C   UNL     1     112.349 129.739 139.378  0.00  0.00    +0.000 C 
ATOM     27  C   UNL     1     111.173 130.368 140.349  0.00  0.00    +0.000 C 
ATOM     28  C   UNL     1     112.177 129.383 140.102  0.00  0.00    +0.000 C 
BRANCH  28  30
ATOM     29  O   UNL     1     112.194 128.005 140.482  0.00  0.00    +0.000 OA
ATOM     30  C   UNL     1     112.595 128.712 140.340  0.00  0.00    +0.000 C 
ENDBRANCH  28  30
BRANCH  24  31
ATOM     31  O   UNL     1     110.928 131.395 139.386  0.00  0.00    +0.000 OA
BRANCH  31  36
ATOM     32  O   UNL     1     110.145 130.597 138.497  0.00  0.00    +0.000 OA
ATOM     33  O   UNL     1     110.023 132.718 138.994  0.00  0.00    +0.000 OA
ATOM     34  O   UNL     1     108.788 132.581 137.908  0.00  0.00    +0.000 OA
ATOM     35  O   UNL     1     108.458 131.120 137.215  0.00  0.00    +0.000 OA
ATOM     36  C   UNL     1     110.310 131.327 138.843  0.00  0.00    +0.000 C 
ATOM     37  C   UNL     1     109.858 131.988 138.648  0.00  0.00    +0.000 C 
ATOM     38  C   UNL     1     109.240 131.920 138.105  0.00  0.00    +0.000 C 
ATOM     39  C   UNL     1     109.075 131.189 137.758  0.00  0.00    +0.000 C 
ATOM     40  C   UNL     1     109.528 130.528 137.954  0.00  0.00    +0.000 C 
BRANCH  40  42
ATOM     41  O   UNL     1     109.064 129.181 138.067  0.00  0.00    +0.000 OA
ATOM     42  C   UNL     1     109.363 129.797 137.607  0.00  0.00    +0.000 C 
ENDBRANCH  40  42
ENDBRANCH  31  36
ENDBRANCH  24  31
ENDBRANCH  20  27
ENDBRANCH   4  20
BRANCH   9  43
ATOM     43  O   UNL     1     111.819 131.159 145.294  0.00  0.00    +0.000 OA
BRANCH  43  51
ATOM     44  O   UNL     1     110.964 132.287 145.494  0.00  0.00    +0.000 OA
ATOM     45  O   UNL     1     112.336 132.980 147.435  0.00  0.00    +0.000 OA
ATOM     46  O   UNL     1     112.733 131.621 146.587  0.00  0.00    +0.000 OA
ATOM     47  O   UNL     1     111.025 133.877 146.989  0.00  0.00    +0.000 OA
ATOM     48  C   UNL     1     111.879 132.749 146.788  0.00  0.00    +0.000 C 
ATOM     49  C   UNL     1     112.077 132.070 146.364  0.00  0.00    +0.000 C 
ATOM     50  C   UNL     1     111.224 133.198 146.565  0.00  0.00    +0.000 C 
ATOM     51  C   UNL     1     111.620 131.839 145.717  0.00  0.00    +0.000 C 
ATOM     52  C   UNL     1     110.766 132.967 145.919  0.00  0.00    +0.000 C 
BRANCH  52  55
ATOM     53  O   UNL     1     110.194 134.018 145.138  0.00  0.00    +0.000 OA
ATOM     54  O   UNL     1     109.373 133.261 146.030  0.00  0.00    +0.000 OA
ATOM     55  C   UNL     1     110.111 133.415 145.696  0.00  0.00    +0.000 C 
ENDBRANCH  52  55
ENDBRANCH  43  51
ENDBRANCH   9  43
TORSDOF 10
ENDMDL
MODEL 10
REMARK VINA RESULT:     -10.2      4.340      6.719
REMARK  Name = 74978019
REMARK  10 active torsions:
REMARK  status: ('A' for Active; 'I' for Inactive)
REMARK    1  A    between atoms: O_1  and  C_23
REMARK    2  A    between atoms: O_1  and  C_26
REMARK    3  A    between atoms: O_4  and  C_28
REMARK    4  A    between atoms: O_4  and  C_38
REMARK    5  A    between atoms: O_13  and  C_39
REMARK    6  A    between atoms: O_13  and  C_46
REMARK    7  A    between atoms: C_29  and  C_33
REMARK    8  A    between atoms: C_32  and  C_34
REMARK    9  A    between atoms: C_40  and  C_45
REMARK   10  A    between atoms: C_41  and  C_48
REMARK                            x       y       z     vdW  Elec       q    Type
REMARK                         _______ _______ _______ _____ _____    ______ ____
ROOT
ATOM      1  O   UNL     1     111.565 129.513 143.128  0.00  0.00    +0.000 OA
ATOM      2  O   UNL     1     111.948 131.278 141.434  0.00  0.00    +0.000 OA
ATOM      3  O   UNL     1     112.119 132.271 142.466  0.00  0.00    +0.000 OA
ATOM      4  C   UNL     1     111.674 129.914 141.759  0.00  0.00    +0.000 A 
ATOM      5  C   UNL     1     111.546 129.325 142.325  0.00  0.00    +0.000 A 
ATOM      6  C   UNL     1     111.820 130.689 141.999  0.00  0.00    +0.000 A 
ATOM      7  C   UNL     1     111.839 130.878 142.802  0.00  0.00    +0.000 A 
ATOM      8  C   UNL     1     111.711 130.290 143.366  0.00  0.00    +0.000 A 
ATOM      9  C   UNL     1     111.880 131.279 144.460  0.00  0.00    +0.000 A 
ATOM     10  C   UNL     1     111.728 130.473 144.205  0.00  0.00    +0.000 A 
ATOM     11  C   UNL     1     111.993 131.690 143.037  0.00  0.00    +0.000 A 
ATOM     12  C   UNL     1     112.014 131.892 143.872  0.00  0.00    +0.000 A 
ENDROOT
BRANCH   5  14
ATOM     13  O   UNL     1     110.958 126.223 141.368  0.00  0.00    +0.000 OA
ATOM     14  C   UNL     1     111.400 128.550 142.085  0.00  0.00    +0.000 A 
ATOM     15  C   UNL     1     112.020 128.007 142.041  0.00  0.00    +0.000 A 
ATOM     16  C   UNL     1     110.632 128.316 141.890  0.00  0.00    +0.000 A 
ATOM     17  C   UNL     1     111.872 127.231 141.802  0.00  0.00    +0.000 A 
ATOM     18  C   UNL     1     110.486 127.541 141.651  0.00  0.00    +0.000 A 
ATOM     19  C   UNL     1     111.106 126.998 141.607  0.00  0.00    +0.000 A 
ENDBRANCH   5  14
BRANCH   4  20
ATOM     20  O   UNL     1     111.655 129.726 140.956  0.00  0.00    +0.000 OA
BRANCH  20  27
ATOM     21  O   UNL     1     113.065 129.817 140.745  0.00  0.00    +0.000 OA
ATOM     22  O   UNL     1     112.667 130.714 138.473  0.00  0.00    +0.000 OA
ATOM     23  O   UNL     1     114.210 130.506 139.019  0.00  0.00    +0.000 OA
ATOM     24  C   UNL     1     112.161 130.220 139.715  0.00  0.00    +0.000 C 
ATOM     25  C   UNL     1     112.800 130.415 139.230  0.00  0.00    +0.000 C 
ATOM     26  C   UNL     1     113.571 130.311 139.504  0.00  0.00    +0.000 C 
ATOM     27  C   UNL     1     112.293 129.921 140.473  0.00  0.00    +0.000 C 
ATOM     28  C   UNL     1     113.704 130.012 140.261  0.00  0.00    +0.000 C 
BRANCH  28  30
ATOM     29  O   UNL     1     114.743 129.157 140.742  0.00  0.00    +0.000 OA
ATOM     30  C   UNL     1     114.476 129.908 140.534  0.00  0.00    +0.000 C 
ENDBRANCH  28  30
BRANCH  24  31
ATOM     31  O   UNL     1     111.389 130.324 139.442  0.00  0.00    +0.000 OA
BRANCH  31  36
ATOM     32  O   UNL     1     111.500 129.130 138.665  0.00  0.00    +0.000 OA
ATOM     33  O   UNL     1     109.808 130.468 138.995  0.00  0.00    +0.000 OA
ATOM     34  O   UNL     1     109.127 129.346 137.995  0.00  0.00    +0.000 OA
ATOM     35  O   UNL     1     110.029 128.080 137.441  0.00  0.00    +0.000 OA
ATOM     36  C   UNL     1     111.049 129.763 138.942  0.00  0.00    +0.000 C 
ATOM     37  C   UNL     1     110.258 129.835 138.718  0.00  0.00    +0.000 C 
ATOM     38  C   UNL     1     109.918 129.274 138.218  0.00  0.00    +0.000 C 
ATOM     39  C   UNL     1     110.369 128.641 137.941  0.00  0.00    +0.000 C 
ATOM     40  C   UNL     1     111.160 128.569 138.165  0.00  0.00    +0.000 C 
BRANCH  40  42
ATOM     41  O   UNL     1     111.826 127.328 138.402  0.00  0.00    +0.000 OA
ATOM     42  C   UNL     1     111.611 127.935 137.888  0.00  0.00    +0.000 C 
ENDBRANCH  40  42
ENDBRANCH  31  36
ENDBRANCH  24  31
ENDBRANCH  20  27
ENDBRANCH   4  20
BRANCH   9  43
ATOM     43  O   UNL     1     111.899 131.464 145.264  0.00  0.00    +0.000 OA
BRANCH  43  51
ATOM     44  O   UNL     1     110.518 131.814 145.383  0.00  0.00    +0.000 OA
ATOM     45  O   UNL     1     111.109 133.598 146.993  0.00  0.00    +0.000 OA
ATOM     46  O   UNL     1     112.293 132.654 146.337  0.00  0.00    +0.000 OA
ATOM     47  O   UNL     1     109.532 133.354 146.576  0.00  0.00    +0.000 OA
ATOM     48  C   UNL     1     110.912 133.004 146.456  0.00  0.00    +0.000 C 
ATOM     49  C   UNL     1     111.504 132.531 146.129  0.00  0.00    +0.000 C 
ATOM     50  C   UNL     1     110.124 132.882 146.248  0.00  0.00    +0.000 C 
ATOM     51  C   UNL     1     111.307 131.937 145.592  0.00  0.00    +0.000 C 
ATOM     52  C   UNL     1     109.927 132.287 145.712  0.00  0.00    +0.000 C 
BRANCH  52  55
ATOM     53  O   UNL     1     108.799 132.607 144.895  0.00  0.00    +0.000 OA
ATOM     54  O   UNL     1     108.689 131.599 145.902  0.00  0.00    +0.000 OA
ATOM     55  C   UNL     1     109.138 132.164 145.503  0.00  0.00    +0.000 C 
ENDBRANCH  52  55
ENDBRANCH  43  51
ENDBRANCH   9  43
TORSDOF 10
ENDMDL
