MODEL 1
REMARK VINA RESULT:      -8.4      0.000      0.000
REMARK  Name = 503268
REMARK  3 active torsions:
REMARK  status: ('A' for Active; 'I' for Inactive)
REMARK    1  A    between atoms: O_2  and  C_12
REMARK    2  A    between atoms: C_6  and  C_11
REMARK    3  A    between atoms: C_13  and  C_19
REMARK                            x       y       z     vdW  Elec       q    Type
REMARK                         _______ _______ _______ _____ _____    ______ ____
ROOT
ATOM      1  O   UNL     1     104.516 124.471 146.459  0.00  0.00    +0.000 OA
ATOM      2  O   UNL     1     105.012 124.610 148.939  0.00  0.00    +0.000 OA
ATOM      3  O   UNL     1     107.187 125.402 145.913  0.00  0.00    +0.000 OA
ATOM      4  C   UNL     1     103.906 124.253 147.024  0.00  0.00    +0.000 C 
ATOM      5  C   UNL     1     104.071 124.299 147.866  0.00  0.00    +0.000 C 
ATOM      6  C   UNL     1     105.442 124.777 147.553  0.00  0.00    +0.000 A 
ATOM      7  C   UNL     1     105.283 124.733 146.745  0.00  0.00    +0.000 A 
ATOM      8  C   UNL     1     104.844 124.562 148.132  0.00  0.00    +0.000 C 
ATOM      9  C   UNL     1     106.182 125.029 147.814  0.00  0.00    +0.000 A 
ATOM     10  C   UNL     1     105.865 124.941 146.198  0.00  0.00    +0.000 A 
ATOM     11  C   UNL     1     106.763 125.238 147.268  0.00  0.00    +0.000 A 
ATOM     12  C   UNL     1     106.605 125.194 146.460  0.00  0.00    +0.000 A 
ATOM     13  C   UNL     1     107.504 125.490 147.530  0.00  0.00    +0.000 C 
ENDROOT
BRANCH   4  14
ATOM     14  C   UNL     1     103.166 124.000 146.758  0.00  0.00    +0.000 A 
ATOM     15  C   UNL     1     103.087 123.263 146.396  0.00  0.00    +0.000 A 
ATOM     16  C   UNL     1     102.506 124.486 146.855  0.00  0.00    +0.000 A 
ATOM     17  C   UNL     1     102.347 123.012 146.131  0.00  0.00    +0.000 A 
ATOM     18  C   UNL     1     101.767 124.234 146.590  0.00  0.00    +0.000 A 
ATOM     19  C   UNL     1     101.687 123.497 146.228  0.00  0.00    +0.000 A 
ENDBRANCH   4  14
BRANCH   9  20
ATOM     20  O   UNL     1     106.341 125.074 148.623  0.00  0.00    +0.000 OA
ATOM     21  C   UNL     1     106.785 124.483 148.989  0.00  0.00    +0.000 C 
ENDBRANCH   9  20
BRANCH  10  23
ATOM     22  O   UNL     1     106.109 124.353 144.919  0.00  0.00    +0.000 OA
ATOM     23  C   UNL     1     105.706 124.897 145.389  0.00  0.00    +0.000 C 
ENDBRANCH  10  23
TORSDOF 3
ENDMDL
MODEL 2
REMARK VINA RESULT:      -8.3     12.176     13.093
REMARK  Name = 503268
REMARK  3 active torsions:
REMARK  status: ('A' for Active; 'I' for Inactive)
REMARK    1  A    between atoms: O_2  and  C_12
REMARK    2  A    between atoms: C_6  and  C_11
REMARK    3  A    between atoms: C_13  and  C_19
REMARK                            x       y       z     vdW  Elec       q    Type
REMARK                         _______ _______ _______ _____ _____    ______ ____
ROOT
ATOM      1  O   UNL     1     111.576 125.174 136.191  0.00  0.00    +0.000 OA
ATOM      2  O   UNL     1     113.208 127.107 136.310  0.00  0.00    +0.000 OA
ATOM      3  O   UNL     1     113.621 123.435 137.238  0.00  0.00    +0.000 OA
ATOM      4  C   UNL     1     111.323 125.955 135.939  0.00  0.00    +0.000 C 
ATOM      5  C   UNL     1     111.874 126.613 135.978  0.00  0.00    +0.000 C 
ATOM      6  C   UNL     1     112.907 125.692 136.516  0.00  0.00    +0.000 A 
ATOM      7  C   UNL     1     112.378 125.061 136.479  0.00  0.00    +0.000 A 
ATOM      8  C   UNL     1     112.671 126.481 136.268  0.00  0.00    +0.000 C 
ATOM      9  C   UNL     1     113.674 125.572 136.794  0.00  0.00    +0.000 A 
ATOM     10  C   UNL     1     112.615 124.308 136.719  0.00  0.00    +0.000 A 
ATOM     11  C   UNL     1     113.912 124.820 137.035  0.00  0.00    +0.000 A 
ATOM     12  C   UNL     1     113.383 124.188 136.997  0.00  0.00    +0.000 A 
ATOM     13  C   UNL     1     114.679 124.698 137.313  0.00  0.00    +0.000 C 
ENDROOT
BRANCH   4  14
ATOM     14  C   UNL     1     110.554 126.072 135.661  0.00  0.00    +0.000 A 
ATOM     15  C   UNL     1     110.357 125.858 134.889  0.00  0.00    +0.000 A 
ATOM     16  C   UNL     1     109.983 126.404 136.156  0.00  0.00    +0.000 A 
ATOM     17  C   UNL     1     109.588 125.975 134.612  0.00  0.00    +0.000 A 
ATOM     18  C   UNL     1     109.215 126.522 135.879  0.00  0.00    +0.000 A 
ATOM     19  C   UNL     1     109.018 126.307 135.107  0.00  0.00    +0.000 A 
ENDBRANCH   4  14
BRANCH   9  20
ATOM     20  O   UNL     1     114.203 126.203 136.832  0.00  0.00    +0.000 OA
ATOM     21  C   UNL     1     114.756 126.316 136.230  0.00  0.00    +0.000 C 
ENDBRANCH   9  20
BRANCH  10  23
ATOM     22  O   UNL     1     111.780 123.354 137.375  0.00  0.00    +0.000 OA
ATOM     23  C   UNL     1     112.086 123.677 136.682  0.00  0.00    +0.000 C 
ENDBRANCH  10  23
TORSDOF 3
ENDMDL
MODEL 3
REMARK VINA RESULT:      -8.3     12.840     13.708
REMARK  Name = 503268
REMARK  3 active torsions:
REMARK  status: ('A' for Active; 'I' for Inactive)
REMARK    1  A    between atoms: O_2  and  C_12
REMARK    2  A    between atoms: C_6  and  C_11
REMARK    3  A    between atoms: C_13  and  C_19
REMARK                            x       y       z     vdW  Elec       q    Type
REMARK                         _______ _______ _______ _____ _____    ______ ____
ROOT
ATOM      1  O   UNL     1     112.669 126.602 136.335  0.00  0.00    +0.000 OA
ATOM      2  O   UNL     1     110.802 124.953 135.880  0.00  0.00    +0.000 OA
ATOM      3  O   UNL     1     111.001 128.714 135.307  0.00  0.00    +0.000 OA
ATOM      4  C   UNL     1     112.785 125.772 136.525  0.00  0.00    +0.000 C 
ATOM      5  C   UNL     1     112.153 125.210 136.372  0.00  0.00    +0.000 C 
ATOM      6  C   UNL     1     111.316 126.319 135.848  0.00  0.00    +0.000 A 
ATOM      7  C   UNL     1     111.923 126.859 135.995  0.00  0.00    +0.000 A 
ATOM      8  C   UNL     1     111.414 125.485 136.031  0.00  0.00    +0.000 C 
ATOM      9  C   UNL     1     110.605 126.578 135.521  0.00  0.00    +0.000 A 
ATOM     10  C   UNL     1     111.818 127.657 135.815  0.00  0.00    +0.000 A 
ATOM     11  C   UNL     1     110.499 127.375 135.341  0.00  0.00    +0.000 A 
ATOM     12  C   UNL     1     111.106 127.915 135.488  0.00  0.00    +0.000 A 
ATOM     13  C   UNL     1     109.788 127.634 135.013  0.00  0.00    +0.000 C 
ENDROOT
BRANCH   4  14
ATOM     14  C   UNL     1     113.498 125.517 136.852  0.00  0.00    +0.000 A 
ATOM     15  C   UNL     1     113.636 125.603 137.661  0.00  0.00    +0.000 A 
ATOM     16  C   UNL     1     114.074 125.175 136.369  0.00  0.00    +0.000 A 
ATOM     17  C   UNL     1     114.350 125.348 137.987  0.00  0.00    +0.000 A 
ATOM     18  C   UNL     1     114.787 124.920 136.696  0.00  0.00    +0.000 A 
ATOM     19  C   UNL     1     114.925 125.006 137.505  0.00  0.00    +0.000 A 
ENDBRANCH   4  14
BRANCH   9  20
ATOM     20  O   UNL     1     109.999 126.038 135.374  0.00  0.00    +0.000 OA
ATOM     21  C   UNL     1     109.884 125.743 134.612  0.00  0.00    +0.000 C 
ENDBRANCH   9  20
BRANCH  10  23
ATOM     22  O   UNL     1     112.811 128.563 135.333  0.00  0.00    +0.000 OA
ATOM     23  C   UNL     1     112.424 128.197 135.962  0.00  0.00    +0.000 C 
ENDBRANCH  10  23
TORSDOF 3
ENDMDL
MODEL 4
REMARK VINA RESULT:      -8.2      1.206      3.801
REMARK  Name = 503268
REMARK  3 active torsions:
REMARK  status: ('A' for Active; 'I' for Inactive)
REMARK    1  A    between atoms: O_2  and  C_12
REMARK    2  A    between atoms: C_6  and  C_11
REMARK    3  A    between atoms: C_13  and  C_19
REMARK                            x       y       z     vdW  Elec       q    Type
REMARK                         _______ _______ _______ _____ _____    ______ ____
ROOT
ATOM      1  O   UNL     1     105.036 124.487 147.187  0.00  0.00    +0.000 OA
ATOM      2  O   UNL     1     103.512 125.436 148.973  0.00  0.00    +0.000 OA
ATOM      3  O   UNL     1     102.711 123.666 145.696  0.00  0.00    +0.000 OA
ATOM      4  C   UNL     1     105.380 124.863 147.879  0.00  0.00    +0.000 C 
ATOM      5  C   UNL     1     104.866 125.185 148.486  0.00  0.00    +0.000 C 
ATOM      6  C   UNL     1     103.687 124.750 147.695  0.00  0.00    +0.000 A 
ATOM      7  C   UNL     1     104.181 124.440 147.112  0.00  0.00    +0.000 A 
ATOM      8  C   UNL     1     104.014 125.129 148.394  0.00  0.00    +0.000 C 
ATOM      9  C   UNL     1     102.868 124.699 147.612  0.00  0.00    +0.000 A 
ATOM     10  C   UNL     1     103.856 124.079 146.445  0.00  0.00    +0.000 A 
ATOM     11  C   UNL     1     102.543 124.338 146.946  0.00  0.00    +0.000 A 
ATOM     12  C   UNL     1     103.037 124.028 146.363  0.00  0.00    +0.000 A 
ATOM     13  C   UNL     1     101.724 124.286 146.863  0.00  0.00    +0.000 C 
ENDROOT
BRANCH   4  14
ATOM     14  C   UNL     1     106.200 124.912 147.958  0.00  0.00    +0.000 A 
ATOM     15  C   UNL     1     106.636 125.396 147.452  0.00  0.00    +0.000 A 
ATOM     16  C   UNL     1     106.584 124.477 148.545  0.00  0.00    +0.000 A 
ATOM     17  C   UNL     1     107.456 125.445 147.532  0.00  0.00    +0.000 A 
ATOM     18  C   UNL     1     107.404 124.526 148.626  0.00  0.00    +0.000 A 
ATOM     19  C   UNL     1     107.839 125.010 148.119  0.00  0.00    +0.000 A 
ENDBRANCH   4  14
BRANCH   9  20
ATOM     20  O   UNL     1     102.374 125.009 148.196  0.00  0.00    +0.000 OA
ATOM     21  C   UNL     1     102.009 124.506 148.738  0.00  0.00    +0.000 C 
ENDBRANCH   9  20
BRANCH  10  23
ATOM     22  O   UNL     1     104.374 122.955 145.732  0.00  0.00    +0.000 OA
ATOM     23  C   UNL     1     104.350 123.769 145.862  0.00  0.00    +0.000 C 
ENDBRANCH  10  23
TORSDOF 3
ENDMDL
MODEL 5
REMARK VINA RESULT:      -8.2     12.676     13.908
REMARK  Name = 503268
REMARK  3 active torsions:
REMARK  status: ('A' for Active; 'I' for Inactive)
REMARK    1  A    between atoms: O_2  and  C_12
REMARK    2  A    between atoms: C_6  and  C_11
REMARK    3  A    between atoms: C_13  and  C_19
REMARK                            x       y       z     vdW  Elec       q    Type
REMARK                         _______ _______ _______ _____ _____    ______ ____
ROOT
ATOM      1  O   UNL     1     113.554 126.824 136.517  0.00  0.00    +0.000 OA
ATOM      2  O   UNL     1     111.069 126.602 136.086  0.00  0.00    +0.000 OA
ATOM      3  O   UNL     1     113.679 123.991 137.025  0.00  0.00    +0.000 OA
ATOM      4  C   UNL     1     113.098 127.523 136.311  0.00  0.00    +0.000 C 
ATOM      5  C   UNL     1     112.254 127.450 136.164  0.00  0.00    +0.000 C 
ATOM      6  C   UNL     1     112.350 125.993 136.432  0.00  0.00    +0.000 A 
ATOM      7  C   UNL     1     113.160 126.062 136.573  0.00  0.00    +0.000 A 
ATOM      8  C   UNL     1     111.878 126.681 136.225  0.00  0.00    +0.000 C 
ATOM      9  C   UNL     1     111.984 125.257 136.488  0.00  0.00    +0.000 A 
ATOM     10  C   UNL     1     113.603 125.395 136.770  0.00  0.00    +0.000 A 
ATOM     11  C   UNL     1     112.426 124.590 136.686  0.00  0.00    +0.000 A 
ATOM     12  C   UNL     1     113.236 124.659 136.827  0.00  0.00    +0.000 A 
ATOM     13  C   UNL     1     112.060 123.852 136.743  0.00  0.00    +0.000 C 
ENDROOT
BRANCH   4  14
ATOM     14  C   UNL     1     113.468 128.258 136.255  0.00  0.00    +0.000 A 
ATOM     15  C   UNL     1     113.418 128.795 136.880  0.00  0.00    +0.000 A 
ATOM     16  C   UNL     1     113.889 128.457 135.573  0.00  0.00    +0.000 A 
ATOM     17  C   UNL     1     113.789 129.530 136.823  0.00  0.00    +0.000 A 
ATOM     18  C   UNL     1     114.259 129.192 135.517  0.00  0.00    +0.000 A 
ATOM     19  C   UNL     1     114.209 129.728 136.142  0.00  0.00    +0.000 A 
ENDBRANCH   4  14
BRANCH   9  20
ATOM     20  O   UNL     1     111.174 125.187 136.347  0.00  0.00    +0.000 OA
ATOM     21  C   UNL     1     110.900 125.012 135.589  0.00  0.00    +0.000 C 
ENDBRANCH   9  20
BRANCH  10  23
ATOM     22  O   UNL     1     114.712 125.338 137.669  0.00  0.00    +0.000 OA
ATOM     23  C   UNL     1     114.413 125.465 136.911  0.00  0.00    +0.000 C 
ENDBRANCH  10  23
TORSDOF 3
ENDMDL
MODEL 6
REMARK VINA RESULT:      -8.2     11.054     12.436
REMARK  Name = 503268
REMARK  3 active torsions:
REMARK  status: ('A' for Active; 'I' for Inactive)
REMARK    1  A    between atoms: O_2  and  C_12
REMARK    2  A    between atoms: C_6  and  C_11
REMARK    3  A    between atoms: C_13  and  C_19
REMARK                            x       y       z     vdW  Elec       q    Type
REMARK                         _______ _______ _______ _____ _____    ______ ____
ROOT
ATOM      1  O   UNL     1     113.621 126.126 138.563  0.00  0.00    +0.000 OA
ATOM      2  O   UNL     1     111.105 125.856 138.641  0.00  0.00    +0.000 OA
ATOM      3  O   UNL     1     113.706 124.317 136.322  0.00  0.00    +0.000 OA
ATOM      4  C   UNL     1     113.170 126.550 139.158  0.00  0.00    +0.000 C 
ATOM      5  C   UNL     1     112.317 126.461 139.188  0.00  0.00    +0.000 C 
ATOM      6  C   UNL     1     112.392 125.532 138.032  0.00  0.00    +0.000 A 
ATOM      7  C   UNL     1     113.212 125.618 138.003  0.00  0.00    +0.000 A 
ATOM      8  C   UNL     1     111.924 125.948 138.621  0.00  0.00    +0.000 C 
ATOM      9  C   UNL     1     112.010 125.041 137.490  0.00  0.00    +0.000 A 
ATOM     10  C   UNL     1     113.650 125.213 137.434  0.00  0.00    +0.000 A 
ATOM     11  C   UNL     1     112.447 124.636 136.921  0.00  0.00    +0.000 A 
ATOM     12  C   UNL     1     113.267 124.722 136.893  0.00  0.00    +0.000 A 
ATOM     13  C   UNL     1     112.066 124.145 136.378  0.00  0.00    +0.000 C 
ENDROOT
BRANCH   4  14
ATOM     14  C   UNL     1     113.556 127.041 139.699  0.00  0.00    +0.000 A 
ATOM     15  C   UNL     1     113.987 126.712 140.321  0.00  0.00    +0.000 A 
ATOM     16  C   UNL     1     113.511 127.861 139.616  0.00  0.00    +0.000 A 
ATOM     17  C   UNL     1     114.372 127.203 140.861  0.00  0.00    +0.000 A 
ATOM     18  C   UNL     1     113.896 128.351 140.156  0.00  0.00    +0.000 A 
ATOM     19  C   UNL     1     114.326 128.023 140.778  0.00  0.00    +0.000 A 
ENDBRANCH   4  14
BRANCH   9  20
ATOM     20  O   UNL     1     111.190 124.955 137.518  0.00  0.00    +0.000 OA
ATOM     21  C   UNL     1     110.711 125.396 137.012  0.00  0.00    +0.000 C 
ENDBRANCH   9  20
BRANCH  10  23
ATOM     22  O   UNL     1     114.958 124.653 137.563  0.00  0.00    +0.000 OA
ATOM     23  C   UNL     1     114.470 125.299 137.406  0.00  0.00    +0.000 C 
ENDBRANCH  10  23
TORSDOF 3
ENDMDL
MODEL 7
REMARK VINA RESULT:      -8.1      2.422      4.024
REMARK  Name = 503268
REMARK  3 active torsions:
REMARK  status: ('A' for Active; 'I' for Inactive)
REMARK    1  A    between atoms: O_2  and  C_12
REMARK    2  A    between atoms: C_6  and  C_11
REMARK    3  A    between atoms: C_13  and  C_19
REMARK                            x       y       z     vdW  Elec       q    Type
REMARK                         _______ _______ _______ _____ _____    ______ ____
ROOT
ATOM      1  O   UNL     1     106.578 125.437 146.567  0.00  0.00    +0.000 OA
ATOM      2  O   UNL     1     107.026 127.929 146.544  0.00  0.00    +0.000 OA
ATOM      3  O   UNL     1     105.395 125.666 143.950  0.00  0.00    +0.000 OA
ATOM      4  C   UNL     1     106.961 125.802 147.244  0.00  0.00    +0.000 C 
ATOM      5  C   UNL     1     107.115 126.647 147.239  0.00  0.00    +0.000 C 
ATOM      6  C   UNL     1     106.500 126.734 145.890  0.00  0.00    +0.000 A 
ATOM      7  C   UNL     1     106.352 125.923 145.895  0.00  0.00    +0.000 A 
ATOM      8  C   UNL     1     106.883 127.117 146.558  0.00  0.00    +0.000 C 
ATOM      9  C   UNL     1     106.279 127.190 145.239  0.00  0.00    +0.000 A 
ATOM     10  C   UNL     1     105.984 125.566 145.248  0.00  0.00    +0.000 A 
ATOM     11  C   UNL     1     105.911 126.834 144.593  0.00  0.00    +0.000 A 
ATOM     12  C   UNL     1     105.763 126.023 144.597  0.00  0.00    +0.000 A 
ATOM     13  C   UNL     1     105.690 127.290 143.941  0.00  0.00    +0.000 C 
ENDROOT
BRANCH   4  14
ATOM     14  C   UNL     1     107.181 125.343 147.893  0.00  0.00    +0.000 A 
ATOM     15  C   UNL     1     107.957 125.073 147.965  0.00  0.00    +0.000 A 
ATOM     16  C   UNL     1     106.623 125.155 148.472  0.00  0.00    +0.000 A 
ATOM     17  C   UNL     1     108.176 124.614 148.615  0.00  0.00    +0.000 A 
ATOM     18  C   UNL     1     106.842 124.696 149.122  0.00  0.00    +0.000 A 
ATOM     19  C   UNL     1     107.618 124.425 149.193  0.00  0.00    +0.000 A 
ENDBRANCH   4  14
BRANCH   9  20
ATOM     20  O   UNL     1     106.426 128.001 145.235  0.00  0.00    +0.000 OA
ATOM     21  C   UNL     1     107.073 128.301 144.820  0.00  0.00    +0.000 C 
ENDBRANCH   9  20
BRANCH  10  23
ATOM     22  O   UNL     1     106.266 124.255 144.757  0.00  0.00    +0.000 OA
ATOM     23  C   UNL     1     105.836 124.755 145.253  0.00  0.00    +0.000 C 
ENDBRANCH  10  23
TORSDOF 3
ENDMDL
MODEL 8
REMARK VINA RESULT:      -8.1     12.815     13.843
REMARK  Name = 503268
REMARK  3 active torsions:
REMARK  status: ('A' for Active; 'I' for Inactive)
REMARK    1  A    between atoms: O_2  and  C_12
REMARK    2  A    between atoms: C_6  and  C_11
REMARK    3  A    between atoms: C_13  and  C_19
REMARK                            x       y       z     vdW  Elec       q    Type
REMARK                         _______ _______ _______ _____ _____    ______ ____
ROOT
ATOM      1  O   UNL     1     112.311 126.187 136.144  0.00  0.00    +0.000 OA
ATOM      2  O   UNL     1     112.732 128.678 135.977  0.00  0.00    +0.000 OA
ATOM      3  O   UNL     1     109.834 126.550 134.718  0.00  0.00    +0.000 OA
ATOM      4  C   UNL     1     113.026 126.517 136.486  0.00  0.00    +0.000 C 
ATOM      5  C   UNL     1     113.172 127.362 136.431  0.00  0.00    +0.000 C 
ATOM      6  C   UNL     1     111.890 127.518 135.698  0.00  0.00    +0.000 A 
ATOM      7  C   UNL     1     111.750 126.707 135.750  0.00  0.00    +0.000 A 
ATOM      8  C   UNL     1     112.600 127.866 136.034  0.00  0.00    +0.000 C 
ATOM      9  C   UNL     1     111.344 128.006 135.318  0.00  0.00    +0.000 A 
ATOM     10  C   UNL     1     111.065 126.384 135.424  0.00  0.00    +0.000 A 
ATOM     11  C   UNL     1     110.659 127.684 134.992  0.00  0.00    +0.000 A 
ATOM     12  C   UNL     1     110.520 126.873 135.045  0.00  0.00    +0.000 A 
ATOM     13  C   UNL     1     110.113 128.173 134.612  0.00  0.00    +0.000 C 
ENDROOT
BRANCH   4  14
ATOM     14  C   UNL     1     113.570 126.025 136.865  0.00  0.00    +0.000 A 
ATOM     15  C   UNL     1     113.558 125.952 137.686  0.00  0.00    +0.000 A 
ATOM     16  C   UNL     1     114.125 125.606 136.421  0.00  0.00    +0.000 A 
ATOM     17  C   UNL     1     114.102 125.460 138.064  0.00  0.00    +0.000 A 
ATOM     18  C   UNL     1     114.669 125.114 136.799  0.00  0.00    +0.000 A 
ATOM     19  C   UNL     1     114.657 125.041 137.621  0.00  0.00    +0.000 A 
ENDBRANCH   4  14
BRANCH   9  20
ATOM     20  O   UNL     1     111.484 128.818 135.266  0.00  0.00    +0.000 OA
ATOM     21  C   UNL     1     111.099 129.337 135.778  0.00  0.00    +0.000 C 
ENDBRANCH   9  20
BRANCH  10  23
ATOM     22  O   UNL     1     110.331 125.288 135.973  0.00  0.00    +0.000 OA
ATOM     23  C   UNL     1     110.925 125.572 135.477  0.00  0.00    +0.000 C 
ENDBRANCH  10  23
TORSDOF 3
ENDMDL
MODEL 9
REMARK VINA RESULT:      -8.0      7.329      8.266
REMARK  Name = 503268
REMARK  3 active torsions:
REMARK  status: ('A' for Active; 'I' for Inactive)
REMARK    1  A    between atoms: O_2  and  C_12
REMARK    2  A    between atoms: C_6  and  C_11
REMARK    3  A    between atoms: C_13  and  C_19
REMARK                            x       y       z     vdW  Elec       q    Type
REMARK                         _______ _______ _______ _____ _____    ______ ____
ROOT
ATOM      1  O   UNL     1     102.514 130.586 141.560  0.00  0.00    +0.000 OA
ATOM      2  O   UNL     1     103.998 130.232 143.581  0.00  0.00    +0.000 OA
ATOM      3  O   UNL     1     103.627 128.207 140.376  0.00  0.00    +0.000 OA
ATOM      4  C   UNL     1     102.477 131.144 142.212  0.00  0.00    +0.000 C 
ATOM      5  C   UNL     1     102.980 131.027 142.899  0.00  0.00    +0.000 C 
ATOM      6  C   UNL     1     103.535 129.805 142.264  0.00  0.00    +0.000 A 
ATOM      7  C   UNL     1     103.053 129.917 141.604  0.00  0.00    +0.000 A 
ATOM      8  C   UNL     1     103.512 130.353 142.926  0.00  0.00    +0.000 C 
ATOM      9  C   UNL     1     104.047 129.160 142.294  0.00  0.00    +0.000 A 
ATOM     10  C   UNL     1     103.083 129.385 140.974  0.00  0.00    +0.000 A 
ATOM     11  C   UNL     1     104.078 128.627 141.665  0.00  0.00    +0.000 A 
ATOM     12  C   UNL     1     103.596 128.740 141.006  0.00  0.00    +0.000 A 
ATOM     13  C   UNL     1     104.591 127.982 141.695  0.00  0.00    +0.000 C 
ENDROOT
BRANCH   4  14
ATOM     14  C   UNL     1     101.963 131.788 142.178  0.00  0.00    +0.000 A 
ATOM     15  C   UNL     1     101.224 131.747 142.542  0.00  0.00    +0.000 A 
ATOM     16  C   UNL     1     102.188 132.475 141.780  0.00  0.00    +0.000 A 
ATOM     17  C   UNL     1     100.710 132.391 142.508  0.00  0.00    +0.000 A 
ATOM     18  C   UNL     1     101.675 133.119 141.746  0.00  0.00    +0.000 A 
ATOM     19  C   UNL     1     100.936 133.078 142.110  0.00  0.00    +0.000 A 
ENDBRANCH   4  14
BRANCH   9  20
ATOM     20  O   UNL     1     104.530 129.047 142.954  0.00  0.00    +0.000 OA
ATOM     21  C   UNL     1     105.326 129.261 142.925  0.00  0.00    +0.000 C 
ENDBRANCH   9  20
BRANCH  10  23
ATOM     22  O   UNL     1     102.937 129.684 139.586  0.00  0.00    +0.000 OA
ATOM     23  C   UNL     1     102.601 129.498 140.315  0.00  0.00    +0.000 C 
ENDBRANCH  10  23
TORSDOF 3
ENDMDL
MODEL 10
REMARK VINA RESULT:      -8.0      0.831      2.167
REMARK  Name = 503268
REMARK  3 active torsions:
REMARK  status: ('A' for Active; 'I' for Inactive)
REMARK    1  A    between atoms: O_2  and  C_12
REMARK    2  A    between atoms: C_6  and  C_11
REMARK    3  A    between atoms: C_13  and  C_19
REMARK                            x       y       z     vdW  Elec       q    Type
REMARK                         _______ _______ _______ _____ _____    ______ ____
ROOT
ATOM      1  O   UNL     1     103.704 124.282 147.686  0.00  0.00    +0.000 OA
ATOM      2  O   UNL     1     105.301 124.222 145.722  0.00  0.00    +0.000 OA
ATOM      3  O   UNL     1     105.855 125.224 149.355  0.00  0.00    +0.000 OA
ATOM      4  C   UNL     1     103.417 124.027 146.917  0.00  0.00    +0.000 C 
ATOM      5  C   UNL     1     103.956 124.005 146.249  0.00  0.00    +0.000 C 
ATOM      6  C   UNL     1     105.045 124.492 147.134  0.00  0.00    +0.000 A 
ATOM      7  C   UNL     1     104.527 124.512 147.776  0.00  0.00    +0.000 A 
ATOM      8  C   UNL     1     104.776 124.239 146.358  0.00  0.00    +0.000 C 
ATOM      9  C   UNL     1     105.833 124.715 147.233  0.00  0.00    +0.000 A 
ATOM     10  C   UNL     1     104.797 124.756 148.516  0.00  0.00    +0.000 A 
ATOM     11  C   UNL     1     106.103 124.959 147.972  0.00  0.00    +0.000 A 
ATOM     12  C   UNL     1     105.585 124.980 148.614  0.00  0.00    +0.000 A 
ATOM     13  C   UNL     1     106.891 125.183 148.071  0.00  0.00    +0.000 C 
ENDROOT
BRANCH   4  14
ATOM     14  C   UNL     1     102.628 123.804 146.823  0.00  0.00    +0.000 A 
ATOM     15  C   UNL     1     102.422 123.005 146.820  0.00  0.00    +0.000 A 
ATOM     16  C   UNL     1     102.045 124.381 146.730  0.00  0.00    +0.000 A 
ATOM     17  C   UNL     1     101.633 122.783 146.725  0.00  0.00    +0.000 A 
ATOM     18  C   UNL     1     101.256 124.159 146.635  0.00  0.00    +0.000 A 
ATOM     19  C   UNL     1     101.050 123.360 146.633  0.00  0.00    +0.000 A 
ENDBRANCH   4  14
BRANCH   9  20
ATOM     20  O   UNL     1     106.351 124.694 146.591  0.00  0.00    +0.000 OA
ATOM     21  C   UNL     1     106.558 125.393 146.205  0.00  0.00    +0.000 C 
ENDBRANCH   9  20
BRANCH  10  23
ATOM     22  O   UNL     1     104.052 125.501 149.481  0.00  0.00    +0.000 OA
ATOM     23  C   UNL     1     104.279 124.777 149.158  0.00  0.00    +0.000 C 
ENDBRANCH  10  23
TORSDOF 3
ENDMDL
