MODEL 1
REMARK VINA RESULT:      -8.9      0.000      0.000
REMARK  Name = 159460
REMARK  6 active torsions:
REMARK  status: ('A' for Active; 'I' for Inactive)
REMARK    1  A    between atoms: O_4  and  C_16
REMARK    2  A    between atoms: O_4  and  C_18
REMARK    3  A    between atoms: O_8  and  C_31
REMARK    4  A    between atoms: O_9  and  C_32
REMARK    5  A    between atoms: C_14  and  C_17
REMARK    6  A    between atoms: C_21  and  C_24
REMARK                            x       y       z     vdW  Elec       q    Type
REMARK                         _______ _______ _______ _____ _____    ______ ____
ROOT
ATOM      1  C   UNL     1     110.971 125.526 135.878  0.00  0.00    +0.000 A 
ATOM      2  C   UNL     1     110.973 126.020 135.216  0.00  0.00    +0.000 A 
ATOM      3  C   UNL     1     110.589 125.764 136.569  0.00  0.00    +0.000 A 
ATOM      4  C   UNL     1     110.211 126.989 135.938  0.00  0.00    +0.000 A 
ATOM      5  C   UNL     1     110.593 126.751 135.247  0.00  0.00    +0.000 A 
ATOM      6  C   UNL     1     110.209 126.496 136.599  0.00  0.00    +0.000 A 
ENDROOT
BRANCH   4  10
ATOM      7  O   UNL     1     110.277 128.433 136.152  0.00  0.00    +0.000 OA
ATOM      8  O   UNL     1     107.874 130.029 135.922  0.00  0.00    +0.000 OA
ATOM      9  O   UNL     1     107.791 128.606 135.708  0.00  0.00    +0.000 OA
ATOM     10  C   UNL     1     109.831 127.721 135.969  0.00  0.00    +0.000 A 
ATOM     11  C   UNL     1     109.062 129.243 136.036  0.00  0.00    +0.000 A 
ATOM     12  C   UNL     1     109.873 129.190 136.181  0.00  0.00    +0.000 A 
ATOM     13  C   UNL     1     108.987 127.777 135.818  0.00  0.00    +0.000 A 
ATOM     14  C   UNL     1     108.600 128.543 135.852  0.00  0.00    +0.000 A 
ATOM     15  C   UNL     1     108.685 129.976 136.067  0.00  0.00    +0.000 A 
ATOM     16  C   UNL     1     110.306 129.870 136.358  0.00  0.00    +0.000 A 
ATOM     17  C   UNL     1     109.118 130.656 136.244  0.00  0.00    +0.000 A 
ATOM     18  C   UNL     1     109.928 130.603 136.389  0.00  0.00    +0.000 A 
BRANCH  17  19
ATOM     19  O   UNL     1     108.740 131.389 136.275  0.00  0.00    +0.000 OA
ATOM     20  C   UNL     1     108.592 131.807 135.579  0.00  0.00    +0.000 C 
ENDBRANCH  17  19
BRANCH  18  21
ATOM     21  O   UNL     1     110.362 131.282 136.565  0.00  0.00    +0.000 OA
ATOM     22  C   UNL     1     111.105 131.218 136.916  0.00  0.00    +0.000 C 
ENDBRANCH  18  21
ENDBRANCH   4  10
BRANCH   1  23
ATOM     23  O   UNL     1     111.351 124.794 135.847  0.00  0.00    +0.000 OA
BRANCH  23  32
ATOM     24  O   UNL     1     112.653 125.290 136.164  0.00  0.00    +0.000 OA
ATOM     25  O   UNL     1     114.283 124.396 137.306  0.00  0.00    +0.000 OA
ATOM     26  O   UNL     1     113.147 123.205 137.402  0.00  0.00    +0.000 OA
ATOM     27  O   UNL     1     111.680 123.404 136.672  0.00  0.00    +0.000 OA
ATOM     28  C   UNL     1     113.550 124.496 136.941  0.00  0.00    +0.000 C 
ATOM     29  C   UNL     1     112.982 123.900 136.990  0.00  0.00    +0.000 C 
ATOM     30  C   UNL     1     113.386 125.191 136.529  0.00  0.00    +0.000 C 
ATOM     31  C   UNL     1     112.248 124.000 136.624  0.00  0.00    +0.000 C 
ATOM     32  C   UNL     1     112.084 124.695 136.212  0.00  0.00    +0.000 C 
BRANCH  30  34
ATOM     33  O   UNL     1     113.824 126.513 136.851  0.00  0.00    +0.000 OA
ATOM     34  C   UNL     1     113.954 125.787 136.481  0.00  0.00    +0.000 C 
ENDBRANCH  30  34
ENDBRANCH  23  32
ENDBRANCH   1  23
TORSDOF 6
ENDMDL
MODEL 2
REMARK VINA RESULT:      -8.8      1.107      6.125
REMARK  Name = 159460
REMARK  6 active torsions:
REMARK  status: ('A' for Active; 'I' for Inactive)
REMARK    1  A    between atoms: O_4  and  C_16
REMARK    2  A    between atoms: O_4  and  C_18
REMARK    3  A    between atoms: O_8  and  C_31
REMARK    4  A    between atoms: O_9  and  C_32
REMARK    5  A    between atoms: C_14  and  C_17
REMARK    6  A    between atoms: C_21  and  C_24
REMARK                            x       y       z     vdW  Elec       q    Type
REMARK                         _______ _______ _______ _____ _____    ______ ____
ROOT
ATOM      1  C   UNL     1     109.093 129.391 135.423  0.00  0.00    +0.000 A 
ATOM      2  C   UNL     1     108.753 128.818 135.911  0.00  0.00    +0.000 A 
ATOM      3  C   UNL     1     109.811 129.237 135.047  0.00  0.00    +0.000 A 
ATOM      4  C   UNL     1     109.849 127.940 135.645  0.00  0.00    +0.000 A 
ATOM      5  C   UNL     1     109.130 128.093 136.022  0.00  0.00    +0.000 A 
ATOM      6  C   UNL     1     110.189 128.512 135.158  0.00  0.00    +0.000 A 
ENDROOT
BRANCH   4  10
ATOM      7  O   UNL     1     110.814 127.124 136.377  0.00  0.00    +0.000 OA
ATOM      8  O   UNL     1     111.214 124.357 135.630  0.00  0.00    +0.000 OA
ATOM      9  O   UNL     1     110.257 125.148 134.895  0.00  0.00    +0.000 OA
ATOM     10  C   UNL     1     110.226 127.215 135.756  0.00  0.00    +0.000 A 
ATOM     11  C   UNL     1     111.018 125.723 136.001  0.00  0.00    +0.000 A 
ATOM     12  C   UNL     1     111.202 126.365 136.485  0.00  0.00    +0.000 A 
ATOM     13  C   UNL     1     110.036 126.546 135.252  0.00  0.00    +0.000 A 
ATOM     14  C   UNL     1     110.434 125.795 135.375  0.00  0.00    +0.000 A 
ATOM     15  C   UNL     1     111.397 124.999 136.114  0.00  0.00    +0.000 A 
ATOM     16  C   UNL     1     111.765 126.283 137.083  0.00  0.00    +0.000 A 
ATOM     17  C   UNL     1     111.960 124.917 136.712  0.00  0.00    +0.000 A 
ATOM     18  C   UNL     1     112.144 125.559 137.196  0.00  0.00    +0.000 A 
BRANCH  17  19
ATOM     19  O   UNL     1     112.339 124.193 136.825  0.00  0.00    +0.000 OA
ATOM     20  C   UNL     1     111.929 123.561 137.161  0.00  0.00    +0.000 C 
ENDBRANCH  17  19
BRANCH  18  21
ATOM     21  O   UNL     1     112.706 125.478 137.794  0.00  0.00    +0.000 OA
ATOM     22  C   UNL     1     113.013 126.148 138.166  0.00  0.00    +0.000 C 
ENDBRANCH  18  21
ENDBRANCH   4  10
BRANCH   1  23
ATOM     23  O   UNL     1     108.716 130.116 135.312  0.00  0.00    +0.000 OA
BRANCH  23  32
ATOM     24  O   UNL     1     109.456 130.904 136.245  0.00  0.00    +0.000 OA
ATOM     25  O   UNL     1     108.797 132.399 137.691  0.00  0.00    +0.000 OA
ATOM     26  O   UNL     1     107.357 131.964 137.016  0.00  0.00    +0.000 OA
ATOM     27  O   UNL     1     107.316 130.822 135.826  0.00  0.00    +0.000 OA
ATOM     28  C   UNL     1     108.777 131.828 137.096  0.00  0.00    +0.000 C 
ATOM     29  C   UNL     1     108.057 131.611 136.759  0.00  0.00    +0.000 C 
ATOM     30  C   UNL     1     109.477 131.475 136.839  0.00  0.00    +0.000 C 
ATOM     31  C   UNL     1     108.036 131.039 136.163  0.00  0.00    +0.000 C 
ATOM     32  C   UNL     1     108.736 130.686 135.906  0.00  0.00    +0.000 C 
BRANCH  30  34
ATOM     33  O   UNL     1     110.835 131.896 136.696  0.00  0.00    +0.000 OA
ATOM     34  C   UNL     1     110.197 131.693 137.177  0.00  0.00    +0.000 C 
ENDBRANCH  30  34
ENDBRANCH  23  32
ENDBRANCH   1  23
TORSDOF 6
ENDMDL
MODEL 3
REMARK VINA RESULT:      -8.7      4.227      6.919
REMARK  Name = 159460
REMARK  6 active torsions:
REMARK  status: ('A' for Active; 'I' for Inactive)
REMARK    1  A    between atoms: O_4  and  C_16
REMARK    2  A    between atoms: O_4  and  C_18
REMARK    3  A    between atoms: O_8  and  C_31
REMARK    4  A    between atoms: O_9  and  C_32
REMARK    5  A    between atoms: C_14  and  C_17
REMARK    6  A    between atoms: C_21  and  C_24
REMARK                            x       y       z     vdW  Elec       q    Type
REMARK                         _______ _______ _______ _____ _____    ______ ____
ROOT
ATOM      1  C   UNL     1     113.441 128.659 140.736  0.00  0.00    +0.000 A 
ATOM      2  C   UNL     1     113.045 128.832 140.032  0.00  0.00    +0.000 A 
ATOM      3  C   UNL     1     113.612 127.876 140.931  0.00  0.00    +0.000 A 
ATOM      4  C   UNL     1     112.993 127.438 139.720  0.00  0.00    +0.000 A 
ATOM      5  C   UNL     1     112.821 128.221 139.524  0.00  0.00    +0.000 A 
ATOM      6  C   UNL     1     113.388 127.266 140.423  0.00  0.00    +0.000 A 
ENDROOT
BRANCH   4  10
ATOM      7  O   UNL     1     113.324 126.523 138.631  0.00  0.00    +0.000 OA
ATOM      8  O   UNL     1     111.343 124.633 137.692  0.00  0.00    +0.000 OA
ATOM      9  O   UNL     1     110.999 125.529 138.769  0.00  0.00    +0.000 OA
ATOM     10  C   UNL     1     112.769 126.828 139.213  0.00  0.00    +0.000 A 
ATOM     11  C   UNL     1     112.323 125.565 138.154  0.00  0.00    +0.000 A 
ATOM     12  C   UNL     1     113.081 125.887 138.107  0.00  0.00    +0.000 A 
ATOM     13  C   UNL     1     111.979 126.492 139.261  0.00  0.00    +0.000 A 
ATOM     14  C   UNL     1     111.755 125.857 138.729  0.00  0.00    +0.000 A 
ATOM     15  C   UNL     1     112.102 124.955 137.645  0.00  0.00    +0.000 A 
ATOM     16  C   UNL     1     113.618 125.598 137.551  0.00  0.00    +0.000 A 
ATOM     17  C   UNL     1     112.638 124.666 137.089  0.00  0.00    +0.000 A 
ATOM     18  C   UNL     1     113.397 124.988 137.042  0.00  0.00    +0.000 A 
BRANCH  17  19
ATOM     19  O   UNL     1     112.417 124.055 136.580  0.00  0.00    +0.000 OA
ATOM     20  C   UNL     1     112.340 123.286 136.868  0.00  0.00    +0.000 C 
ENDBRANCH  17  19
BRANCH  18  21
ATOM     21  O   UNL     1     113.934 124.700 136.486  0.00  0.00    +0.000 OA
ATOM     22  C   UNL     1     114.646 125.095 136.356  0.00  0.00    +0.000 C 
ENDBRANCH  18  21
ENDBRANCH   4  10
BRANCH   1  23
ATOM     23  O   UNL     1     113.665 129.270 141.243  0.00  0.00    +0.000 OA
BRANCH  23  32
ATOM     24  O   UNL     1     112.552 129.188 142.136  0.00  0.00    +0.000 OA
ATOM     25  O   UNL     1     111.407 130.753 143.137  0.00  0.00    +0.000 OA
ATOM     26  O   UNL     1     112.502 131.658 142.299  0.00  0.00    +0.000 OA
ATOM     27  O   UNL     1     113.631 130.916 141.352  0.00  0.00    +0.000 OA
ATOM     28  C   UNL     1     111.971 130.382 142.664  0.00  0.00    +0.000 C 
ATOM     29  C   UNL     1     112.519 130.835 142.245  0.00  0.00    +0.000 C 
ATOM     30  C   UNL     1     111.988 129.559 142.610  0.00  0.00    +0.000 C 
ATOM     31  C   UNL     1     113.084 130.463 141.771  0.00  0.00    +0.000 C 
ATOM     32  C   UNL     1     113.101 129.640 141.717  0.00  0.00    +0.000 C 
BRANCH  30  34
ATOM     33  O   UNL     1     111.700 128.515 143.542  0.00  0.00    +0.000 OA
ATOM     34  C   UNL     1     111.441 129.107 143.029  0.00  0.00    +0.000 C 
ENDBRANCH  30  34
ENDBRANCH  23  32
ENDBRANCH   1  23
TORSDOF 6
ENDMDL
MODEL 4
REMARK VINA RESULT:      -8.6      1.422      6.332
REMARK  Name = 159460
REMARK  6 active torsions:
REMARK  status: ('A' for Active; 'I' for Inactive)
REMARK    1  A    between atoms: O_4  and  C_16
REMARK    2  A    between atoms: O_4  and  C_18
REMARK    3  A    between atoms: O_8  and  C_31
REMARK    4  A    between atoms: O_9  and  C_32
REMARK    5  A    between atoms: C_14  and  C_17
REMARK    6  A    between atoms: C_21  and  C_24
REMARK                            x       y       z     vdW  Elec       q    Type
REMARK                         _______ _______ _______ _____ _____    ______ ____
ROOT
ATOM      1  C   UNL     1     112.079 129.825 136.477  0.00  0.00    +0.000 A 
ATOM      2  C   UNL     1     111.934 129.389 137.163  0.00  0.00    +0.000 A 
ATOM      3  C   UNL     1     112.199 129.435 135.759  0.00  0.00    +0.000 A 
ATOM      4  C   UNL     1     112.029 128.177 136.413  0.00  0.00    +0.000 A 
ATOM      5  C   UNL     1     111.908 128.565 137.131  0.00  0.00    +0.000 A 
ATOM      6  C   UNL     1     112.174 128.611 135.728  0.00  0.00    +0.000 A 
ENDROOT
BRANCH   4  10
ATOM      7  O   UNL     1     112.664 126.888 136.676  0.00  0.00    +0.000 OA
ATOM      8  O   UNL     1     111.287 124.440 135.978  0.00  0.00    +0.000 OA
ATOM      9  O   UNL     1     110.645 125.704 135.711  0.00  0.00    +0.000 OA
ATOM     10  C   UNL     1     112.003 127.353 136.381  0.00  0.00    +0.000 A 
ATOM     11  C   UNL     1     111.969 125.647 136.323  0.00  0.00    +0.000 A 
ATOM     12  C   UNL     1     112.628 126.030 136.638  0.00  0.00    +0.000 A 
ATOM     13  C   UNL     1     111.317 126.953 136.053  0.00  0.00    +0.000 A 
ATOM     14  C   UNL     1     111.300 126.095 136.024  0.00  0.00    +0.000 A 
ATOM     15  C   UNL     1     111.946 124.823 136.293  0.00  0.00    +0.000 A 
ATOM     16  C   UNL     1     113.265 125.589 136.922  0.00  0.00    +0.000 A 
ATOM     17  C   UNL     1     112.583 124.382 136.577  0.00  0.00    +0.000 A 
ATOM     18  C   UNL     1     113.243 124.765 136.892  0.00  0.00    +0.000 A 
BRANCH  17  19
ATOM     19  O   UNL     1     112.561 123.558 136.546  0.00  0.00    +0.000 OA
ATOM     20  C   UNL     1     112.125 123.136 137.106  0.00  0.00    +0.000 C 
ENDBRANCH  17  19
BRANCH  18  21
ATOM     21  O   UNL     1     113.879 124.325 137.176  0.00  0.00    +0.000 OA
ATOM     22  C   UNL     1     114.595 124.698 137.349  0.00  0.00    +0.000 C 
ENDBRANCH  18  21
ENDBRANCH   4  10
BRANCH   1  23
ATOM     23  O   UNL     1     112.105 130.649 136.508  0.00  0.00    +0.000 OA
BRANCH  23  32
ATOM     24  O   UNL     1     110.740 130.916 136.177  0.00  0.00    +0.000 OA
ATOM     25  O   UNL     1     109.330 132.367 136.993  0.00  0.00    +0.000 OA
ATOM     26  O   UNL     1     110.670 132.693 137.898  0.00  0.00    +0.000 OA
ATOM     27  O   UNL     1     112.058 131.834 137.655  0.00  0.00    +0.000 OA
ATOM     28  C   UNL     1     110.023 131.937 136.872  0.00  0.00    +0.000 C 
ATOM     29  C   UNL     1     110.693 132.101 137.324  0.00  0.00    +0.000 C 
ATOM     30  C   UNL     1     110.047 131.345 136.298  0.00  0.00    +0.000 C 
ATOM     31  C   UNL     1     111.388 131.671 137.203  0.00  0.00    +0.000 C 
ATOM     32  C   UNL     1     111.411 131.078 136.629  0.00  0.00    +0.000 C 
BRANCH  30  34
ATOM     33  O   UNL     1     109.435 131.129 135.025  0.00  0.00    +0.000 OA
ATOM     34  C   UNL     1     109.377 131.182 135.846  0.00  0.00    +0.000 C 
ENDBRANCH  30  34
ENDBRANCH  23  32
ENDBRANCH   1  23
TORSDOF 6
ENDMDL
MODEL 5
REMARK VINA RESULT:      -8.5      7.780      9.122
REMARK  Name = 159460
REMARK  6 active torsions:
REMARK  status: ('A' for Active; 'I' for Inactive)
REMARK    1  A    between atoms: O_4  and  C_16
REMARK    2  A    between atoms: O_4  and  C_18
REMARK    3  A    between atoms: O_8  and  C_31
REMARK    4  A    between atoms: O_9  and  C_32
REMARK    5  A    between atoms: C_14  and  C_17
REMARK    6  A    between atoms: C_21  and  C_24
REMARK                            x       y       z     vdW  Elec       q    Type
REMARK                         _______ _______ _______ _____ _____    ______ ____
ROOT
ATOM      1  C   UNL     1     104.429 128.350 142.155  0.00  0.00    +0.000 A 
ATOM      2  C   UNL     1     104.118 128.556 141.419  0.00  0.00    +0.000 A 
ATOM      3  C   UNL     1     104.346 128.863 142.796  0.00  0.00    +0.000 A 
ATOM      4  C   UNL     1     103.642 129.787 141.966  0.00  0.00    +0.000 A 
ATOM      5  C   UNL     1     103.724 129.275 141.324  0.00  0.00    +0.000 A 
ATOM      6  C   UNL     1     103.953 129.581 142.701  0.00  0.00    +0.000 A 
ENDROOT
BRANCH   4  10
ATOM      7  O   UNL     1     103.640 131.166 141.483  0.00  0.00    +0.000 OA
ATOM      8  O   UNL     1     101.287 132.811 141.848  0.00  0.00    +0.000 OA
ATOM      9  O   UNL     1     101.271 131.452 142.330  0.00  0.00    +0.000 OA
ATOM     10  C   UNL     1     103.248 130.506 141.871  0.00  0.00    +0.000 A 
ATOM     11  C   UNL     1     102.450 132.001 141.667  0.00  0.00    +0.000 A 
ATOM     12  C   UNL     1     103.222 131.911 141.389  0.00  0.00    +0.000 A 
ATOM     13  C   UNL     1     102.444 130.601 142.159  0.00  0.00    +0.000 A 
ATOM     14  C   UNL     1     102.043 131.353 142.057  0.00  0.00    +0.000 A 
ATOM     15  C   UNL     1     102.058 132.721 141.571  0.00  0.00    +0.000 A 
ATOM     16  C   UNL     1     103.602 132.541 141.017  0.00  0.00    +0.000 A 
ATOM     17  C   UNL     1     102.439 133.351 141.198  0.00  0.00    +0.000 A 
ATOM     18  C   UNL     1     103.211 133.261 140.921  0.00  0.00    +0.000 A 
BRANCH  17  19
ATOM     19  O   UNL     1     102.048 134.071 141.102  0.00  0.00    +0.000 OA
ATOM     20  C   UNL     1     102.022 134.613 141.724  0.00  0.00    +0.000 C 
ENDBRANCH  17  19
BRANCH  18  21
ATOM     21  O   UNL     1     103.592 133.890 140.548  0.00  0.00    +0.000 OA
ATOM     22  C   UNL     1     104.199 133.744 140.008  0.00  0.00    +0.000 C 
ENDBRANCH  18  21
ENDBRANCH   4  10
BRANCH   1  23
ATOM     23  O   UNL     1     104.823 127.631 142.249  0.00  0.00    +0.000 OA
BRANCH  23  32
ATOM     24  O   UNL     1     106.131 128.156 142.017  0.00  0.00    +0.000 OA
ATOM     25  O   UNL     1     108.066 127.593 142.856  0.00  0.00    +0.000 OA
ATOM     26  O   UNL     1     107.072 126.524 143.623  0.00  0.00    +0.000 OA
ATOM     27  O   UNL     1     105.450 126.543 143.320  0.00  0.00    +0.000 OA
ATOM     28  C   UNL     1     107.255 127.603 142.704  0.00  0.00    +0.000 C 
ATOM     29  C   UNL     1     106.758 127.068 143.088  0.00  0.00    +0.000 C 
ATOM     30  C   UNL     1     106.942 128.147 142.169  0.00  0.00    +0.000 C 
ATOM     31  C   UNL     1     105.947 127.078 142.936  0.00  0.00    +0.000 C 
ATOM     32  C   UNL     1     105.633 127.622 142.401  0.00  0.00    +0.000 C 
BRANCH  30  34
ATOM     33  O   UNL     1     107.368 128.802 140.972  0.00  0.00    +0.000 OA
ATOM     34  C   UNL     1     107.439 128.681 141.785  0.00  0.00    +0.000 C 
ENDBRANCH  30  34
ENDBRANCH  23  32
ENDBRANCH   1  23
TORSDOF 6
ENDMDL
MODEL 6
REMARK VINA RESULT:      -8.5      1.496      2.772
REMARK  Name = 159460
REMARK  6 active torsions:
REMARK  status: ('A' for Active; 'I' for Inactive)
REMARK    1  A    between atoms: O_4  and  C_16
REMARK    2  A    between atoms: O_4  and  C_18
REMARK    3  A    between atoms: O_8  and  C_31
REMARK    4  A    between atoms: O_9  and  C_32
REMARK    5  A    between atoms: C_14  and  C_17
REMARK    6  A    between atoms: C_21  and  C_24
REMARK                            x       y       z     vdW  Elec       q    Type
REMARK                         _______ _______ _______ _____ _____    ______ ____
ROOT
ATOM      1  C   UNL     1     113.196 127.127 136.674  0.00  0.00    +0.000 A 
ATOM      2  C   UNL     1     113.167 127.673 136.055  0.00  0.00    +0.000 A 
ATOM      3  C   UNL     1     112.880 127.323 137.410  0.00  0.00    +0.000 A 
ATOM      4  C   UNL     1     112.508 128.608 136.910  0.00  0.00    +0.000 A 
ATOM      5  C   UNL     1     112.824 128.413 136.173  0.00  0.00    +0.000 A 
ATOM      6  C   UNL     1     112.536 128.063 137.528  0.00  0.00    +0.000 A 
ENDROOT
BRANCH   4  10
ATOM      7  O   UNL     1     111.500 129.600 136.543  0.00  0.00    +0.000 OA
ATOM      8  O   UNL     1     111.385 132.121 137.959  0.00  0.00    +0.000 OA
ATOM      9  O   UNL     1     112.387 131.154 138.334  0.00  0.00    +0.000 OA
ATOM     10  C   UNL     1     112.164 129.349 137.028  0.00  0.00    +0.000 A 
ATOM     11  C   UNL     1     111.440 130.877 137.258  0.00  0.00    +0.000 A 
ATOM     12  C   UNL     1     111.149 130.373 136.674  0.00  0.00    +0.000 A 
ATOM     13  C   UNL     1     112.467 129.874 137.637  0.00  0.00    +0.000 A 
ATOM     14  C   UNL     1     112.102 130.644 137.752  0.00  0.00    +0.000 A 
ATOM     15  C   UNL     1     111.094 131.617 137.374  0.00  0.00    +0.000 A 
ATOM     16  C   UNL     1     110.512 130.609 136.205  0.00  0.00    +0.000 A 
ATOM     17  C   UNL     1     110.457 131.853 136.906  0.00  0.00    +0.000 A 
ATOM     18  C   UNL     1     110.166 131.349 136.321  0.00  0.00    +0.000 A 
BRANCH  17  19
ATOM     19  O   UNL     1     110.112 132.593 137.022  0.00  0.00    +0.000 OA
ATOM     20  C   UNL     1     110.466 133.268 136.705  0.00  0.00    +0.000 C 
ENDBRANCH  17  19
BRANCH  18  21
ATOM     21  O   UNL     1     109.530 131.584 135.853  0.00  0.00    +0.000 OA
ATOM     22  C   UNL     1     109.131 131.030 135.389  0.00  0.00    +0.000 C 
ENDBRANCH  18  21
ENDBRANCH   4  10
BRANCH   1  23
ATOM     23  O   UNL     1     113.540 126.386 136.556  0.00  0.00    +0.000 OA
BRANCH  23  32
ATOM     24  O   UNL     1     112.304 125.750 136.223  0.00  0.00    +0.000 OA
ATOM     25  O   UNL     1     111.649 123.684 136.475  0.00  0.00    +0.000 OA
ATOM     26  O   UNL     1     113.173 123.605 137.100  0.00  0.00    +0.000 OA
ATOM     27  O   UNL     1     114.119 124.956 137.141  0.00  0.00    +0.000 OA
ATOM     28  C   UNL     1     112.121 124.360 136.495  0.00  0.00    +0.000 C 
ATOM     29  C   UNL     1     112.883 124.320 136.807  0.00  0.00    +0.000 C 
ATOM     30  C   UNL     1     111.832 125.075 136.202  0.00  0.00    +0.000 C 
ATOM     31  C   UNL     1     113.356 124.996 136.828  0.00  0.00    +0.000 C 
ATOM     32  C   UNL     1     113.067 125.711 136.535  0.00  0.00    +0.000 C 
BRANCH  30  34
ATOM     33  O   UNL     1     110.945 125.443 135.143  0.00  0.00    +0.000 OA
ATOM     34  C   UNL     1     111.070 125.114 135.890  0.00  0.00    +0.000 C 
ENDBRANCH  30  34
ENDBRANCH  23  32
ENDBRANCH   1  23
TORSDOF 6
ENDMDL
MODEL 7
REMARK VINA RESULT:      -8.5      1.970      6.620
REMARK  Name = 159460
REMARK  6 active torsions:
REMARK  status: ('A' for Active; 'I' for Inactive)
REMARK    1  A    between atoms: O_4  and  C_16
REMARK    2  A    between atoms: O_4  and  C_18
REMARK    3  A    between atoms: O_8  and  C_31
REMARK    4  A    between atoms: O_9  and  C_32
REMARK    5  A    between atoms: C_14  and  C_17
REMARK    6  A    between atoms: C_21  and  C_24
REMARK                            x       y       z     vdW  Elec       q    Type
REMARK                         _______ _______ _______ _____ _____    ______ ____
ROOT
ATOM      1  C   UNL     1     111.576 130.566 136.565  0.00  0.00    +0.000 A 
ATOM      2  C   UNL     1     111.372 129.993 136.008  0.00  0.00    +0.000 A 
ATOM      3  C   UNL     1     112.173 130.413 137.114  0.00  0.00    +0.000 A 
ATOM      4  C   UNL     1     112.360 129.115 136.549  0.00  0.00    +0.000 A 
ATOM      5  C   UNL     1     111.764 129.267 136.000  0.00  0.00    +0.000 A 
ATOM      6  C   UNL     1     112.565 129.687 137.106  0.00  0.00    +0.000 A 
ENDROOT
BRANCH   4  10
ATOM      7  O   UNL     1     112.389 127.697 136.900  0.00  0.00    +0.000 OA
ATOM      8  O   UNL     1     114.681 126.085 136.176  0.00  0.00    +0.000 OA
ATOM      9  O   UNL     1     114.670 127.483 135.822  0.00  0.00    +0.000 OA
ATOM     10  C   UNL     1     112.752 128.389 136.541  0.00  0.00    +0.000 A 
ATOM     11  C   UNL     1     113.548 126.879 136.535  0.00  0.00    +0.000 A 
ATOM     12  C   UNL     1     112.805 126.945 136.887  0.00  0.00    +0.000 A 
ATOM     13  C   UNL     1     113.526 128.319 136.175  0.00  0.00    +0.000 A 
ATOM     14  C   UNL     1     113.927 127.559 136.171  0.00  0.00    +0.000 A 
ATOM     15  C   UNL     1     113.938 126.151 136.528  0.00  0.00    +0.000 A 
ATOM     16  C   UNL     1     112.452 126.284 137.232  0.00  0.00    +0.000 A 
ATOM     17  C   UNL     1     113.585 125.491 136.874  0.00  0.00    +0.000 A 
ATOM     18  C   UNL     1     112.842 125.557 137.226  0.00  0.00    +0.000 A 
BRANCH  17  19
ATOM     19  O   UNL     1     113.975 124.764 136.867  0.00  0.00    +0.000 OA
ATOM     20  C   UNL     1     114.601 124.627 137.387  0.00  0.00    +0.000 C 
ENDBRANCH  17  19
BRANCH  18  21
ATOM     21  O   UNL     1     112.488 124.897 137.571  0.00  0.00    +0.000 OA
ATOM     22  C   UNL     1     111.672 124.881 137.690  0.00  0.00    +0.000 C 
ENDBRANCH  18  21
ENDBRANCH   4  10
BRANCH   1  23
ATOM     23  O   UNL     1     111.184 131.292 136.573  0.00  0.00    +0.000 OA
BRANCH  23  32
ATOM     24  O   UNL     1     110.100 130.896 137.416  0.00  0.00    +0.000 OA
ATOM     25  O   UNL     1     109.040 131.983 138.984  0.00  0.00    +0.000 OA
ATOM     26  O   UNL     1     110.134 133.119 138.504  0.00  0.00    +0.000 OA
ATOM     27  O   UNL     1     111.207 132.774 137.298  0.00  0.00    +0.000 OA
ATOM     28  C   UNL     1     109.576 131.809 138.381  0.00  0.00    +0.000 C 
ATOM     29  C   UNL     1     110.123 132.378 138.142  0.00  0.00    +0.000 C 
ATOM     30  C   UNL     1     109.565 131.068 138.019  0.00  0.00    +0.000 C 
ATOM     31  C   UNL     1     110.660 132.205 137.538  0.00  0.00    +0.000 C 
ATOM     32  C   UNL     1     110.648 131.464 137.176  0.00  0.00    +0.000 C 
BRANCH  30  34
ATOM     33  O   UNL     1     108.610 130.055 137.696  0.00  0.00    +0.000 OA
ATOM     34  C   UNL     1     109.017 130.501 138.259  0.00  0.00    +0.000 C 
ENDBRANCH  30  34
ENDBRANCH  23  32
ENDBRANCH   1  23
TORSDOF 6
ENDMDL
MODEL 8
REMARK VINA RESULT:      -8.4      9.385     10.175
REMARK  Name = 159460
REMARK  6 active torsions:
REMARK  status: ('A' for Active; 'I' for Inactive)
REMARK    1  A    between atoms: O_4  and  C_16
REMARK    2  A    between atoms: O_4  and  C_18
REMARK    3  A    between atoms: O_8  and  C_31
REMARK    4  A    between atoms: O_9  and  C_32
REMARK    5  A    between atoms: C_14  and  C_17
REMARK    6  A    between atoms: C_21  and  C_24
REMARK                            x       y       z     vdW  Elec       q    Type
REMARK                         _______ _______ _______ _____ _____    ______ ____
ROOT
ATOM      1  C   UNL     1     106.498 126.802 144.859  0.00  0.00    +0.000 A 
ATOM      2  C   UNL     1     106.621 127.605 144.711  0.00  0.00    +0.000 A 
ATOM      3  C   UNL     1     105.929 126.386 144.430  0.00  0.00    +0.000 A 
ATOM      4  C   UNL     1     105.605 127.575 143.707  0.00  0.00    +0.000 A 
ATOM      5  C   UNL     1     106.175 127.991 144.135  0.00  0.00    +0.000 A 
ATOM      6  C   UNL     1     105.483 126.773 143.854  0.00  0.00    +0.000 A 
ENDROOT
BRANCH   4  10
ATOM      7  O   UNL     1     104.651 128.621 143.347  0.00  0.00    +0.000 OA
ATOM      8  O   UNL     1     103.817 128.918 140.592  0.00  0.00    +0.000 OA
ATOM      9  O   UNL     1     104.760 127.880 140.929  0.00  0.00    +0.000 OA
ATOM     10  C   UNL     1     105.159 127.961 143.131  0.00  0.00    +0.000 A 
ATOM     11  C   UNL     1     104.227 128.773 141.953  0.00  0.00    +0.000 A 
ATOM     12  C   UNL     1     104.189 129.017 142.741  0.00  0.00    +0.000 A 
ATOM     13  C   UNL     1     105.197 127.708 142.311  0.00  0.00    +0.000 A 
ATOM     14  C   UNL     1     104.729 128.117 141.718  0.00  0.00    +0.000 A 
ATOM     15  C   UNL     1     103.779 129.162 141.379  0.00  0.00    +0.000 A 
ATOM     16  C   UNL     1     103.704 129.649 142.954  0.00  0.00    +0.000 A 
ATOM     17  C   UNL     1     103.294 129.794 141.593  0.00  0.00    +0.000 A 
ATOM     18  C   UNL     1     103.256 130.037 142.380  0.00  0.00    +0.000 A 
BRANCH  17  19
ATOM     19  O   UNL     1     102.846 130.182 141.019  0.00  0.00    +0.000 OA
ATOM     20  C   UNL     1     102.175 129.820 140.704  0.00  0.00    +0.000 C 
ENDBRANCH  17  19
BRANCH  18  21
ATOM     21  O   UNL     1     102.771 130.669 142.594  0.00  0.00    +0.000 OA
ATOM     22  C   UNL     1     102.862 131.028 143.331  0.00  0.00    +0.000 C 
ENDBRANCH  18  21
ENDBRANCH   4  10
BRANCH   1  23
ATOM     23  O   UNL     1     106.945 126.415 145.435  0.00  0.00    +0.000 OA
BRANCH  23  32
ATOM     24  O   UNL     1     106.149 126.761 146.571  0.00  0.00    +0.000 OA
ATOM     25  O   UNL     1     105.563 125.587 148.314  0.00  0.00    +0.000 OA
ATOM     26  O   UNL     1     106.463 124.482 147.484  0.00  0.00    +0.000 OA
ATOM     27  O   UNL     1     107.154 124.896 146.044  0.00  0.00    +0.000 OA
ATOM     28  C   UNL     1     105.908 125.794 147.594  0.00  0.00    +0.000 C 
ATOM     29  C   UNL     1     106.358 125.241 147.179  0.00  0.00    +0.000 C 
ATOM     30  C   UNL     1     105.803 126.554 147.290  0.00  0.00    +0.000 C 
ATOM     31  C   UNL     1     106.704 125.449 146.459  0.00  0.00    +0.000 C 
ATOM     32  C   UNL     1     106.600 126.208 146.155  0.00  0.00    +0.000 C 
BRANCH  30  34
ATOM     33  O   UNL     1     105.655 127.860 147.849  0.00  0.00    +0.000 OA
ATOM     34  C   UNL     1     105.353 127.106 147.705  0.00  0.00    +0.000 C 
ENDBRANCH  30  34
ENDBRANCH  23  32
ENDBRANCH   1  23
TORSDOF 6
ENDMDL
MODEL 9
REMARK VINA RESULT:      -8.4     11.162     12.347
REMARK  Name = 159460
REMARK  6 active torsions:
REMARK  status: ('A' for Active; 'I' for Inactive)
REMARK    1  A    between atoms: O_4  and  C_16
REMARK    2  A    between atoms: O_4  and  C_18
REMARK    3  A    between atoms: O_8  and  C_31
REMARK    4  A    between atoms: O_9  and  C_32
REMARK    5  A    between atoms: C_14  and  C_17
REMARK    6  A    between atoms: C_21  and  C_24
REMARK                            x       y       z     vdW  Elec       q    Type
REMARK                         _______ _______ _______ _____ _____    ______ ____
ROOT
ATOM      1  C   UNL     1     106.136 125.808 145.131  0.00  0.00    +0.000 A 
ATOM      2  C   UNL     1     106.201 125.019 145.366  0.00  0.00    +0.000 A 
ATOM      3  C   UNL     1     105.477 126.251 145.354  0.00  0.00    +0.000 A 
ATOM      4  C   UNL     1     104.949 125.119 146.047  0.00  0.00    +0.000 A 
ATOM      5  C   UNL     1     105.608 124.675 145.824  0.00  0.00    +0.000 A 
ATOM      6  C   UNL     1     104.884 125.906 145.812  0.00  0.00    +0.000 A 
ENDROOT
BRANCH   4  10
ATOM      7  O   UNL     1     103.699 124.366 146.128  0.00  0.00    +0.000 OA
ATOM      8  O   UNL     1     102.557 123.755 148.715  0.00  0.00    +0.000 OA
ATOM      9  O   UNL     1     103.791 124.499 148.654  0.00  0.00    +0.000 OA
ATOM     10  C   UNL     1     104.356 124.774 146.505  0.00  0.00    +0.000 A 
ATOM     11  C   UNL     1     103.119 124.056 147.437  0.00  0.00    +0.000 A 
ATOM     12  C   UNL     1     103.086 124.011 146.613  0.00  0.00    +0.000 A 
ATOM     13  C   UNL     1     104.389 124.821 147.362  0.00  0.00    +0.000 A 
ATOM     14  C   UNL     1     103.766 124.459 147.831  0.00  0.00    +0.000 A 
ATOM     15  C   UNL     1     102.524 123.710 147.892  0.00  0.00    +0.000 A 
ATOM     16  C   UNL     1     102.459 123.620 146.246  0.00  0.00    +0.000 A 
ATOM     17  C   UNL     1     101.897 123.320 147.525  0.00  0.00    +0.000 A 
ATOM     18  C   UNL     1     101.864 123.275 146.702  0.00  0.00    +0.000 A 
BRANCH  17  19
ATOM     19  O   UNL     1     101.302 122.975 147.981  0.00  0.00    +0.000 OA
ATOM     20  C   UNL     1     100.710 123.445 148.311  0.00  0.00    +0.000 C 
ENDBRANCH  17  19
BRANCH  18  21
ATOM     21  O   UNL     1     101.238 122.885 146.334  0.00  0.00    +0.000 OA
ATOM     22  C   UNL     1     101.222 122.813 145.512  0.00  0.00    +0.000 C 
ENDBRANCH  18  21
ENDBRANCH   4  10
BRANCH   1  23
ATOM     23  O   UNL     1     106.729 126.152 144.672  0.00  0.00    +0.000 OA
BRANCH  23  32
ATOM     24  O   UNL     1     106.336 125.626 143.403  0.00  0.00    +0.000 OA
ATOM     25  O   UNL     1     106.286 126.550 141.427  0.00  0.00    +0.000 OA
ATOM     26  O   UNL     1     106.851 127.801 142.341  0.00  0.00    +0.000 OA
ATOM     27  O   UNL     1     107.072 127.602 143.964  0.00  0.00    +0.000 OA
ATOM     28  C   UNL     1     106.397 126.450 142.238  0.00  0.00    +0.000 C 
ATOM     29  C   UNL     1     106.679 127.076 142.695  0.00  0.00    +0.000 C 
ATOM     30  C   UNL     1     106.225 125.725 142.593  0.00  0.00    +0.000 C 
ATOM     31  C   UNL     1     106.790 126.976 143.507  0.00  0.00    +0.000 C 
ATOM     32  C   UNL     1     106.618 126.251 143.861  0.00  0.00    +0.000 C 
BRANCH  30  34
ATOM     33  O   UNL     1     106.351 124.382 142.118  0.00  0.00    +0.000 OA
ATOM     34  C   UNL     1     105.943 125.099 142.135  0.00  0.00    +0.000 C 
ENDBRANCH  30  34
ENDBRANCH  23  32
ENDBRANCH   1  23
TORSDOF 6
ENDMDL
