MODEL 1
REMARK VINA RESULT:      -7.5      0.000      0.000
REMARK  Name = 11256023
REMARK  4 active torsions:
REMARK  status: ('A' for Active; 'I' for Inactive)
REMARK    1  A    between atoms: O_2  and  C_13
REMARK    2  A    between atoms: O_3  and  C_14
REMARK    3  A    between atoms: O_4  and  C_17
REMARK    4  A    between atoms: C_7  and  C_10
REMARK                            x       y       z     vdW  Elec       q    Type
REMARK                         _______ _______ _______ _____ _____    ______ ____
ROOT
ATOM      1  O   UNL     1     107.896 125.545 147.316  0.00  0.00    +0.000 OA
ATOM      2  C   UNL     1     105.515 124.954 146.984  0.00  0.00    +0.000 A 
ATOM      3  C   UNL     1     105.876 124.818 147.714  0.00  0.00    +0.000 A 
ATOM      4  C   UNL     1     105.947 125.286 146.366  0.00  0.00    +0.000 A 
ATOM      5  C   UNL     1     106.669 125.015 147.824  0.00  0.00    +0.000 A 
ATOM      6  C   UNL     1     106.741 125.484 146.476  0.00  0.00    +0.000 A 
ATOM      7  C   UNL     1     107.101 125.348 147.205  0.00  0.00    +0.000 A 
ENDROOT
BRANCH   2  10
ATOM      8  O   UNL     1     103.336 125.094 146.973  0.00  0.00    +0.000 OA
ATOM      9  O   UNL     1     101.294 123.208 146.104  0.00  0.00    +0.000 OA
ATOM     10  C   UNL     1     104.721 124.756 146.874  0.00  0.00    +0.000 C 
ATOM     11  C   UNL     1     104.520 124.022 146.555  0.00  0.00    +0.000 C 
ATOM     12  C   UNL     1     104.130 125.292 147.083  0.00  0.00    +0.000 C 
ATOM     13  C   UNL     1     103.726 123.825 146.446  0.00  0.00    +0.000 A 
ATOM     14  C   UNL     1     103.135 124.360 146.654  0.00  0.00    +0.000 A 
ATOM     15  C   UNL     1     103.529 123.056 146.112  0.00  0.00    +0.000 A 
ATOM     16  C   UNL     1     102.304 124.166 146.544  0.00  0.00    +0.000 A 
ATOM     17  C   UNL     1     102.705 122.845 145.995  0.00  0.00    +0.000 A 
ATOM     18  C   UNL     1     102.088 123.403 146.213  0.00  0.00    +0.000 A 
ENDBRANCH   2  10
BRANCH   3  19
ATOM     19  O   UNL     1     105.444 124.486 148.332  0.00  0.00    +0.000 OA
ATOM     20  C   UNL     1     105.530 124.777 149.099  0.00  0.00    +0.000 C 
ENDBRANCH   3  19
BRANCH   4  21
ATOM     21  O   UNL     1     105.587 125.422 145.636  0.00  0.00    +0.000 OA
ATOM     22  C   UNL     1     106.010 125.784 145.027  0.00  0.00    +0.000 C 
ENDBRANCH   4  21
BRANCH   5  23
ATOM     23  O   UNL     1     107.030 124.879 148.554  0.00  0.00    +0.000 OA
ATOM     24  C   UNL     1     107.797 124.578 148.584  0.00  0.00    +0.000 C 
ENDBRANCH   5  23
TORSDOF 4
ENDMDL
MODEL 2
REMARK VINA RESULT:      -7.4     11.734     12.826
REMARK  Name = 11256023
REMARK  4 active torsions:
REMARK  status: ('A' for Active; 'I' for Inactive)
REMARK    1  A    between atoms: O_2  and  C_13
REMARK    2  A    between atoms: O_3  and  C_14
REMARK    3  A    between atoms: O_4  and  C_17
REMARK    4  A    between atoms: C_7  and  C_10
REMARK                            x       y       z     vdW  Elec       q    Type
REMARK                         _______ _______ _______ _____ _____    ______ ____
ROOT
ATOM      1  O   UNL     1     114.710 124.225 136.985  0.00  0.00    +0.000 OA
ATOM      2  C   UNL     1     112.460 125.220 136.703  0.00  0.00    +0.000 A 
ATOM      3  C   UNL     1     113.134 125.680 136.576  0.00  0.00    +0.000 A 
ATOM      4  C   UNL     1     112.537 124.428 136.924  0.00  0.00    +0.000 A 
ATOM      5  C   UNL     1     113.883 125.348 136.670  0.00  0.00    +0.000 A 
ATOM      6  C   UNL     1     113.287 124.097 137.018  0.00  0.00    +0.000 A 
ATOM      7  C   UNL     1     113.960 124.557 136.891  0.00  0.00    +0.000 A 
ENDROOT
BRANCH   2  10
ATOM      8  O   UNL     1     110.576 126.222 137.160  0.00  0.00    +0.000 OA
ATOM      9  O   UNL     1     108.297 126.891 135.474  0.00  0.00    +0.000 OA
ATOM     10  C   UNL     1     111.711 125.551 136.609  0.00  0.00    +0.000 C 
ATOM     11  C   UNL     1     111.347 125.544 135.868  0.00  0.00    +0.000 C 
ATOM     12  C   UNL     1     111.326 125.890 137.254  0.00  0.00    +0.000 C 
ATOM     13  C   UNL     1     110.597 125.875 135.774  0.00  0.00    +0.000 A 
ATOM     14  C   UNL     1     110.212 126.214 136.419  0.00  0.00    +0.000 A 
ATOM     15  C   UNL     1     110.229 125.861 134.997  0.00  0.00    +0.000 A 
ATOM     16  C   UNL     1     109.431 126.563 136.334  0.00  0.00    +0.000 A 
ATOM     17  C   UNL     1     109.449 126.205 134.892  0.00  0.00    +0.000 A 
ATOM     18  C   UNL     1     109.047 126.558 135.565  0.00  0.00    +0.000 A 
ENDBRANCH   2  10
BRANCH   3  19
ATOM     19  O   UNL     1     113.057 126.470 136.355  0.00  0.00    +0.000 OA
ATOM     20  C   UNL     1     113.527 127.046 136.713  0.00  0.00    +0.000 C 
ENDBRANCH   3  19
BRANCH   4  21
ATOM     21  O   UNL     1     111.864 123.968 137.052  0.00  0.00    +0.000 OA
ATOM     22  C   UNL     1     111.941 123.178 137.278  0.00  0.00    +0.000 C 
ENDBRANCH   4  21
BRANCH   5  23
ATOM     23  O   UNL     1     114.556 125.809 136.543  0.00  0.00    +0.000 OA
ATOM     24  C   UNL     1     115.159 125.530 136.053  0.00  0.00    +0.000 C 
ENDBRANCH   5  23
TORSDOF 4
ENDMDL
MODEL 3
REMARK VINA RESULT:      -7.4      1.040      4.153
REMARK  Name = 11256023
REMARK  4 active torsions:
REMARK  status: ('A' for Active; 'I' for Inactive)
REMARK    1  A    between atoms: O_2  and  C_13
REMARK    2  A    between atoms: O_3  and  C_14
REMARK    3  A    between atoms: O_4  and  C_17
REMARK    4  A    between atoms: C_7  and  C_10
REMARK                            x       y       z     vdW  Elec       q    Type
REMARK                         _______ _______ _______ _____ _____    ______ ____
ROOT
ATOM      1  O   UNL     1     101.321 123.865 147.136  0.00  0.00    +0.000 OA
ATOM      2  C   UNL     1     103.695 124.563 147.042  0.00  0.00    +0.000 A 
ATOM      3  C   UNL     1     103.161 124.978 147.516  0.00  0.00    +0.000 A 
ATOM      4  C   UNL     1     103.438 123.916 146.600  0.00  0.00    +0.000 A 
ATOM      5  C   UNL     1     102.370 124.745 147.547  0.00  0.00    +0.000 A 
ATOM      6  C   UNL     1     102.646 123.683 146.631  0.00  0.00    +0.000 A 
ATOM      7  C   UNL     1     102.113 124.098 147.105  0.00  0.00    +0.000 A 
ENDROOT
BRANCH   2  10
ATOM      8  O   UNL     1     105.541 125.515 146.371  0.00  0.00    +0.000 OA
ATOM      9  O   UNL     1     108.233 125.484 147.480  0.00  0.00    +0.000 OA
ATOM     10  C   UNL     1     104.485 124.796 147.012  0.00  0.00    +0.000 C 
ATOM     11  C   UNL     1     105.013 124.542 147.594  0.00  0.00    +0.000 C 
ATOM     12  C   UNL     1     104.749 125.282 146.401  0.00  0.00    +0.000 C 
ATOM     13  C   UNL     1     105.804 124.775 147.563  0.00  0.00    +0.000 A 
ATOM     14  C   UNL     1     106.067 125.261 146.952  0.00  0.00    +0.000 A 
ATOM     15  C   UNL     1     106.343 124.503 148.176  0.00  0.00    +0.000 A 
ATOM     16  C   UNL     1     106.889 125.511 146.910  0.00  0.00    +0.000 A 
ATOM     17  C   UNL     1     107.168 124.742 148.150  0.00  0.00    +0.000 A 
ATOM     18  C   UNL     1     107.443 125.250 147.512  0.00  0.00    +0.000 A 
ENDBRANCH   2  10
BRANCH   3  19
ATOM     19  O   UNL     1     103.418 125.624 147.958  0.00  0.00    +0.000 OA
ATOM     20  C   UNL     1     102.960 126.310 147.993  0.00  0.00    +0.000 C 
ENDBRANCH   3  19
BRANCH   4  21
ATOM     21  O   UNL     1     103.971 123.501 146.127  0.00  0.00    +0.000 OA
ATOM     22  C   UNL     1     103.709 122.868 145.667  0.00  0.00    +0.000 C 
ENDBRANCH   4  21
BRANCH   5  23
ATOM     23  O   UNL     1     101.836 125.160 148.021  0.00  0.00    +0.000 OA
ATOM     24  C   UNL     1     101.348 124.752 148.545  0.00  0.00    +0.000 C 
ENDBRANCH   5  23
TORSDOF 4
ENDMDL
MODEL 4
REMARK VINA RESULT:      -7.4     10.419     12.959
REMARK  Name = 11256023
REMARK  4 active torsions:
REMARK  status: ('A' for Active; 'I' for Inactive)
REMARK    1  A    between atoms: O_2  and  C_13
REMARK    2  A    between atoms: O_3  and  C_14
REMARK    3  A    between atoms: O_4  and  C_17
REMARK    4  A    between atoms: C_7  and  C_10
REMARK                            x       y       z     vdW  Elec       q    Type
REMARK                         _______ _______ _______ _____ _____    ______ ____
ROOT
ATOM      1  O   UNL     1     108.550 126.930 137.092  0.00  0.00    +0.000 OA
ATOM      2  C   UNL     1     110.795 125.926 136.810  0.00  0.00    +0.000 A 
ATOM      3  C   UNL     1     110.382 126.204 136.152  0.00  0.00    +0.000 A 
ATOM      4  C   UNL     1     110.460 125.983 137.562  0.00  0.00    +0.000 A 
ATOM      5  C   UNL     1     109.634 126.538 136.246  0.00  0.00    +0.000 A 
ATOM      6  C   UNL     1     109.711 126.318 137.656  0.00  0.00    +0.000 A 
ATOM      7  C   UNL     1     109.299 126.595 136.998  0.00  0.00    +0.000 A 
ENDROOT
BRANCH   2  10
ATOM      8  O   UNL     1     112.370 124.447 136.497  0.00  0.00    +0.000 OA
ATOM      9  O   UNL     1     115.266 124.723 136.363  0.00  0.00    +0.000 OA
ATOM     10  C   UNL     1     111.544 125.592 136.716  0.00  0.00    +0.000 C 
ATOM     11  C   UNL     1     112.216 126.071 136.746  0.00  0.00    +0.000 C 
ATOM     12  C   UNL     1     111.621 124.781 136.591  0.00  0.00    +0.000 C 
ATOM     13  C   UNL     1     112.964 125.737 136.652  0.00  0.00    +0.000 A 
ATOM     14  C   UNL     1     113.041 124.926 136.527  0.00  0.00    +0.000 A 
ATOM     15  C   UNL     1     113.656 126.247 136.686  0.00  0.00    +0.000 A 
ATOM     16  C   UNL     1     113.815 124.566 136.427  0.00  0.00    +0.000 A 
ATOM     17  C   UNL     1     114.438 125.905 136.588  0.00  0.00    +0.000 A 
ATOM     18  C   UNL     1     114.518 125.059 136.458  0.00  0.00    +0.000 A 
ENDBRANCH   2  10
BRANCH   3  19
ATOM     19  O   UNL     1     110.716 126.147 135.401  0.00  0.00    +0.000 OA
ATOM     20  C   UNL     1     110.261 125.888 134.764  0.00  0.00    +0.000 C 
ENDBRANCH   3  19
BRANCH   4  21
ATOM     21  O   UNL     1     110.873 125.706 138.220  0.00  0.00    +0.000 OA
ATOM     22  C   UNL     1     110.546 125.780 138.974  0.00  0.00    +0.000 C 
ENDBRANCH   4  21
BRANCH   5  23
ATOM     23  O   UNL     1     109.220 126.816 135.587  0.00  0.00    +0.000 OA
ATOM     24  C   UNL     1     108.892 127.572 135.596  0.00  0.00    +0.000 C 
ENDBRANCH   5  23
TORSDOF 4
ENDMDL
MODEL 5
REMARK VINA RESULT:      -7.3      2.121      4.084
REMARK  Name = 11256023
REMARK  4 active torsions:
REMARK  status: ('A' for Active; 'I' for Inactive)
REMARK    1  A    between atoms: O_2  and  C_13
REMARK    2  A    between atoms: O_3  and  C_14
REMARK    3  A    between atoms: O_4  and  C_17
REMARK    4  A    between atoms: C_7  and  C_10
REMARK                            x       y       z     vdW  Elec       q    Type
REMARK                         _______ _______ _______ _____ _____    ______ ____
ROOT
ATOM      1  O   UNL     1     105.353 127.117 143.626  0.00  0.00    +0.000 OA
ATOM      2  C   UNL     1     105.930 126.006 145.762  0.00  0.00    +0.000 A 
ATOM      3  C   UNL     1     105.910 125.569 145.062  0.00  0.00    +0.000 A 
ATOM      4  C   UNL     1     105.758 126.812 145.750  0.00  0.00    +0.000 A 
ATOM      5  C   UNL     1     105.717 125.939 144.350  0.00  0.00    +0.000 A 
ATOM      6  C   UNL     1     105.566 127.183 145.038  0.00  0.00    +0.000 A 
ATOM      7  C   UNL     1     105.546 126.746 144.338  0.00  0.00    +0.000 A 
ENDROOT
BRANCH   2  10
ATOM      8  O   UNL     1     105.721 124.931 147.651  0.00  0.00    +0.000 OA
ATOM      9  O   UNL     1     107.703 124.090 149.612  0.00  0.00    +0.000 OA
ATOM     10  C   UNL     1     106.122 125.635 146.473  0.00  0.00    +0.000 C 
ATOM     11  C   UNL     1     106.909 125.597 146.719  0.00  0.00    +0.000 C 
ATOM     12  C   UNL     1     105.529 125.302 146.939  0.00  0.00    +0.000 C 
ATOM     13  C   UNL     1     107.101 125.226 147.430  0.00  0.00    +0.000 A 
ATOM     14  C   UNL     1     106.508 124.894 147.895  0.00  0.00    +0.000 A 
ATOM     15  C   UNL     1     107.926 125.194 147.675  0.00  0.00    +0.000 A 
ATOM     16  C   UNL     1     106.696 124.504 148.639  0.00  0.00    +0.000 A 
ATOM     17  C   UNL     1     108.132 124.809 148.414  0.00  0.00    +0.000 A 
ATOM     18  C   UNL     1     107.513 124.462 148.900  0.00  0.00    +0.000 A 
ENDBRANCH   2  10
BRANCH   3  19
ATOM     19  O   UNL     1     106.081 124.763 145.074  0.00  0.00    +0.000 OA
ATOM     20  C   UNL     1     105.587 124.229 144.684  0.00  0.00    +0.000 C 
ENDBRANCH   3  19
BRANCH   4  21
ATOM     21  O   UNL     1     105.778 127.249 146.449  0.00  0.00    +0.000 OA
ATOM     22  C   UNL     1     105.594 128.053 146.439  0.00  0.00    +0.000 C 
ENDBRANCH   4  21
BRANCH   5  23
ATOM     23  O   UNL     1     105.697 125.502 143.650  0.00  0.00    +0.000 OA
ATOM     24  C   UNL     1     106.123 125.759 142.992  0.00  0.00    +0.000 C 
ENDBRANCH   5  23
TORSDOF 4
ENDMDL
MODEL 6
REMARK VINA RESULT:      -7.2      0.925      2.211
REMARK  Name = 11256023
REMARK  4 active torsions:
REMARK  status: ('A' for Active; 'I' for Inactive)
REMARK    1  A    between atoms: O_2  and  C_13
REMARK    2  A    between atoms: O_3  and  C_14
REMARK    3  A    between atoms: O_4  and  C_17
REMARK    4  A    between atoms: C_7  and  C_10
REMARK                            x       y       z     vdW  Elec       q    Type
REMARK                         _______ _______ _______ _____ _____    ______ ____
ROOT
ATOM      1  O   UNL     1     107.463 125.769 146.581  0.00  0.00    +0.000 OA
ATOM      2  C   UNL     1     105.224 124.712 146.556  0.00  0.00    +0.000 A 
ATOM      3  C   UNL     1     105.524 125.059 145.870  0.00  0.00    +0.000 A 
ATOM      4  C   UNL     1     105.670 124.717 147.250  0.00  0.00    +0.000 A 
ATOM      5  C   UNL     1     106.270 125.411 145.879  0.00  0.00    +0.000 A 
ATOM      6  C   UNL     1     106.417 125.070 147.258  0.00  0.00    +0.000 A 
ATOM      7  C   UNL     1     106.716 125.416 146.573  0.00  0.00    +0.000 A 
ENDROOT
BRANCH   2  10
ATOM      8  O   UNL     1     103.645 123.230 146.281  0.00  0.00    +0.000 OA
ATOM      9  O   UNL     1     100.777 123.366 146.766  0.00  0.00    +0.000 OA
ATOM     10  C   UNL     1     104.478 124.360 146.547  0.00  0.00    +0.000 C 
ATOM     11  C   UNL     1     103.818 124.788 146.797  0.00  0.00    +0.000 C 
ATOM     12  C   UNL     1     104.392 123.582 146.289  0.00  0.00    +0.000 C 
ATOM     13  C   UNL     1     103.072 124.436 146.788  0.00  0.00    +0.000 A 
ATOM     14  C   UNL     1     102.986 123.658 146.530  0.00  0.00    +0.000 A 
ATOM     15  C   UNL     1     102.392 124.892 147.051  0.00  0.00    +0.000 A 
ATOM     16  C   UNL     1     102.213 123.280 146.517  0.00  0.00    +0.000 A 
ATOM     17  C   UNL     1     101.612 124.531 147.044  0.00  0.00    +0.000 A 
ATOM     18  C   UNL     1     101.522 123.720 146.775  0.00  0.00    +0.000 A 
ENDBRANCH   2  10
BRANCH   3  19
ATOM     19  O   UNL     1     105.079 125.054 145.177  0.00  0.00    +0.000 OA
ATOM     20  C   UNL     1     105.432 124.848 144.460  0.00  0.00    +0.000 C 
ENDBRANCH   3  19
BRANCH   4  21
ATOM     21  O   UNL     1     105.371 124.370 147.936  0.00  0.00    +0.000 OA
ATOM     22  C   UNL     1     105.812 124.387 148.633  0.00  0.00    +0.000 C 
ENDBRANCH   4  21
BRANCH   5  23
ATOM     23  O   UNL     1     106.570 125.758 145.192  0.00  0.00    +0.000 OA
ATOM     24  C   UNL     1     106.730 126.568 145.176  0.00  0.00    +0.000 C 
ENDBRANCH   5  23
TORSDOF 4
ENDMDL
MODEL 7
REMARK VINA RESULT:      -7.2      7.150      8.718
REMARK  Name = 11256023
REMARK  4 active torsions:
REMARK  status: ('A' for Active; 'I' for Inactive)
REMARK    1  A    between atoms: O_2  and  C_13
REMARK    2  A    between atoms: O_3  and  C_14
REMARK    3  A    between atoms: O_4  and  C_17
REMARK    4  A    between atoms: C_7  and  C_10
REMARK                            x       y       z     vdW  Elec       q    Type
REMARK                         _______ _______ _______ _____ _____    ______ ____
ROOT
ATOM      1  O   UNL     1     104.172 127.724 141.122  0.00  0.00    +0.000 OA
ATOM      2  C   UNL     1     103.193 129.991 141.290  0.00  0.00    +0.000 A 
ATOM      3  C   UNL     1     103.736 129.734 141.856  0.00  0.00    +0.000 A 
ATOM      4  C   UNL     1     102.976 129.493 140.669  0.00  0.00    +0.000 A 
ATOM      5  C   UNL     1     104.062 128.978 141.799  0.00  0.00    +0.000 A 
ATOM      6  C   UNL     1     103.302 128.737 140.613  0.00  0.00    +0.000 A 
ATOM      7  C   UNL     1     103.846 128.480 141.178  0.00  0.00    +0.000 A 
ENDROOT
BRANCH   2  10
ATOM      8  O   UNL     1     102.938 132.149 141.084  0.00  0.00    +0.000 OA
ATOM      9  O   UNL     1     100.803 133.925 141.961  0.00  0.00    +0.000 OA
ATOM     10  C   UNL     1     102.866 130.747 141.347  0.00  0.00    +0.000 C 
ATOM     11  C   UNL     1     102.140 130.855 141.724  0.00  0.00    +0.000 C 
ATOM     12  C   UNL     1     103.265 131.393 141.027  0.00  0.00    +0.000 C 
ATOM     13  C   UNL     1     101.814 131.610 141.781  0.00  0.00    +0.000 A 
ATOM     14  C   UNL     1     102.213 132.257 141.461  0.00  0.00    +0.000 A 
ATOM     15  C   UNL     1     101.056 131.710 142.176  0.00  0.00    +0.000 A 
ATOM     16  C   UNL     1     101.883 133.050 141.514  0.00  0.00    +0.000 A 
ATOM     17  C   UNL     1     100.711 132.494 142.239  0.00  0.00    +0.000 A 
ATOM     18  C   UNL     1     101.127 133.168 141.905  0.00  0.00    +0.000 A 
ENDBRANCH   2  10
BRANCH   3  19
ATOM     19  O   UNL     1     103.953 130.231 142.476  0.00  0.00    +0.000 OA
ATOM     20  C   UNL     1     104.098 129.918 143.225  0.00  0.00    +0.000 C 
ENDBRANCH   3  19
BRANCH   4  21
ATOM     21  O   UNL     1     102.433 129.750 140.104  0.00  0.00    +0.000 OA
ATOM     22  C   UNL     1     102.215 129.252 139.484  0.00  0.00    +0.000 C 
ENDBRANCH   4  21
BRANCH   5  23
ATOM     23  O   UNL     1     104.606 128.720 142.365  0.00  0.00    +0.000 OA
ATOM     24  C   UNL     1     105.236 128.238 142.140  0.00  0.00    +0.000 C 
ENDBRANCH   5  23
TORSDOF 4
ENDMDL
MODEL 8
REMARK VINA RESULT:      -7.1      9.756     12.026
REMARK  Name = 11256023
REMARK  4 active torsions:
REMARK  status: ('A' for Active; 'I' for Inactive)
REMARK    1  A    between atoms: O_2  and  C_13
REMARK    2  A    between atoms: O_3  and  C_14
REMARK    3  A    between atoms: O_4  and  C_17
REMARK    4  A    between atoms: C_7  and  C_10
REMARK                            x       y       z     vdW  Elec       q    Type
REMARK                         _______ _______ _______ _____ _____    ______ ____
ROOT
ATOM      1  O   UNL     1     111.296 126.894 141.415  0.00  0.00    +0.000 OA
ATOM      2  C   UNL     1     112.591 126.582 139.328  0.00  0.00    +0.000 A 
ATOM      3  C   UNL     1     112.945 126.939 139.983  0.00  0.00    +0.000 A 
ATOM      4  C   UNL     1     111.807 126.329 139.368  0.00  0.00    +0.000 A 
ATOM      5  C   UNL     1     112.513 127.043 140.678  0.00  0.00    +0.000 A 
ATOM      6  C   UNL     1     111.375 126.433 140.064  0.00  0.00    +0.000 A 
ATOM      7  C   UNL     1     111.728 126.790 140.719  0.00  0.00    +0.000 A 
ENDROOT
BRANCH   2  10
ATOM      8  O   UNL     1     113.464 126.966 137.364  0.00  0.00    +0.000 OA
ATOM      9  O   UNL     1     115.210 125.348 135.687  0.00  0.00    +0.000 OA
ATOM     10  C   UNL     1     113.023 126.478 138.633  0.00  0.00    +0.000 C 
ATOM     11  C   UNL     1     113.448 125.781 138.512  0.00  0.00    +0.000 C 
ATOM     12  C   UNL     1     113.031 127.071 138.060  0.00  0.00    +0.000 C 
ATOM     13  C   UNL     1     113.880 125.677 137.817  0.00  0.00    +0.000 A 
ATOM     14  C   UNL     1     113.888 126.269 137.244  0.00  0.00    +0.000 A 
ATOM     15  C   UNL     1     114.318 124.945 137.702  0.00  0.00    +0.000 A 
ATOM     16  C   UNL     1     114.335 126.173 136.515  0.00  0.00    +0.000 A 
ATOM     17  C   UNL     1     114.770 124.831 136.981  0.00  0.00    +0.000 A 
ATOM     18  C   UNL     1     114.778 125.449 136.383  0.00  0.00    +0.000 A 
ENDBRANCH   2  10
BRANCH   3  19
ATOM     19  O   UNL     1     113.728 127.192 139.943  0.00  0.00    +0.000 OA
ATOM     20  C   UNL     1     114.225 127.102 140.595  0.00  0.00    +0.000 C 
ENDBRANCH   3  19
BRANCH   4  21
ATOM     21  O   UNL     1     111.454 125.972 138.714  0.00  0.00    +0.000 OA
ATOM     22  C   UNL     1     110.665 125.735 138.749  0.00  0.00    +0.000 C 
ENDBRANCH   4  21
BRANCH   5  23
ATOM     23  O   UNL     1     112.866 127.400 141.334  0.00  0.00    +0.000 OA
ATOM     24  C   UNL     1     112.474 128.006 141.733  0.00  0.00    +0.000 C 
ENDBRANCH   5  23
TORSDOF 4
ENDMDL
MODEL 9
REMARK VINA RESULT:      -7.1     12.648     13.942
REMARK  Name = 11256023
REMARK  4 active torsions:
REMARK  status: ('A' for Active; 'I' for Inactive)
REMARK    1  A    between atoms: O_2  and  C_13
REMARK    2  A    between atoms: O_3  and  C_14
REMARK    3  A    between atoms: O_4  and  C_17
REMARK    4  A    between atoms: C_7  and  C_10
REMARK                            x       y       z     vdW  Elec       q    Type
REMARK                         _______ _______ _______ _____ _____    ______ ____
ROOT
ATOM      1  O   UNL     1     111.592 124.305 136.451  0.00  0.00    +0.000 OA
ATOM      2  C   UNL     1     112.525 126.597 136.514  0.00  0.00    +0.000 A 
ATOM      3  C   UNL     1     112.928 125.978 136.882  0.00  0.00    +0.000 A 
ATOM      4  C   UNL     1     111.812 126.453 136.126  0.00  0.00    +0.000 A 
ATOM      5  C   UNL     1     112.616 125.214 136.860  0.00  0.00    +0.000 A 
ATOM      6  C   UNL     1     111.500 125.689 136.104  0.00  0.00    +0.000 A 
ATOM      7  C   UNL     1     111.903 125.070 136.472  0.00  0.00    +0.000 A 
ENDROOT
BRANCH   2  10
ATOM      8  O   UNL     1     112.929 128.644 137.157  0.00  0.00    +0.000 OA
ATOM      9  O   UNL     1     114.643 130.710 136.030  0.00  0.00    +0.000 OA
ATOM     10  C   UNL     1     112.836 127.361 136.535  0.00  0.00    +0.000 C 
ATOM     11  C   UNL     1     113.369 127.605 135.953  0.00  0.00    +0.000 C 
ATOM     12  C   UNL     1     112.616 127.880 137.137  0.00  0.00    +0.000 C 
ATOM     13  C   UNL     1     113.680 128.369 135.975  0.00  0.00    +0.000 A 
ATOM     14  C   UNL     1     113.460 128.887 136.576  0.00  0.00    +0.000 A 
ATOM     15  C   UNL     1     114.234 128.611 135.362  0.00  0.00    +0.000 A 
ATOM     16  C   UNL     1     113.778 129.686 136.609  0.00  0.00    +0.000 A 
ATOM     17  C   UNL     1     114.562 129.405 135.379  0.00  0.00    +0.000 A 
ATOM     18  C   UNL     1     114.333 129.946 136.006  0.00  0.00    +0.000 A 
ENDBRANCH   2  10
BRANCH   3  19
ATOM     19  O   UNL     1     113.640 126.122 137.270  0.00  0.00    +0.000 OA
ATOM     20  C   UNL     1     113.799 125.756 137.991  0.00  0.00    +0.000 C 
ENDBRANCH   3  19
BRANCH   4  21
ATOM     21  O   UNL     1     111.409 127.072 135.758  0.00  0.00    +0.000 OA
ATOM     22  C   UNL     1     110.700 126.926 135.361  0.00  0.00    +0.000 C 
ENDBRANCH   4  21
BRANCH   5  23
ATOM     23  O   UNL     1     113.019 124.594 137.228  0.00  0.00    +0.000 OA
ATOM     24  C   UNL     1     113.084 123.864 136.850  0.00  0.00    +0.000 C 
ENDBRANCH   5  23
TORSDOF 4
ENDMDL
MODEL 10
REMARK VINA RESULT:      -7.1     10.858     12.693
REMARK  Name = 11256023
REMARK  4 active torsions:
REMARK  status: ('A' for Active; 'I' for Inactive)
REMARK    1  A    between atoms: O_2  and  C_13
REMARK    2  A    between atoms: O_3  and  C_14
REMARK    3  A    between atoms: O_4  and  C_17
REMARK    4  A    between atoms: C_7  and  C_10
REMARK                            x       y       z     vdW  Elec       q    Type
REMARK                         _______ _______ _______ _____ _____    ______ ____
ROOT
ATOM      1  O   UNL     1     110.473 125.199 135.004  0.00  0.00    +0.000 OA
ATOM      2  C   UNL     1     111.952 125.787 136.899  0.00  0.00    +0.000 A 
ATOM      3  C   UNL     1     111.645 126.382 136.415  0.00  0.00    +0.000 A 
ATOM      4  C   UNL     1     111.766 124.998 136.751  0.00  0.00    +0.000 A 
ATOM      5  C   UNL     1     111.152 126.185 135.784  0.00  0.00    +0.000 A 
ATOM      6  C   UNL     1     111.273 124.801 136.119  0.00  0.00    +0.000 A 
ATOM      7  C   UNL     1     110.966 125.395 135.636  0.00  0.00    +0.000 A 
ENDROOT
BRANCH   2  10
ATOM      8  O   UNL     1     113.756 126.182 138.063  0.00  0.00    +0.000 OA
ATOM      9  O   UNL     1     114.114 126.983 140.840  0.00  0.00    +0.000 OA
ATOM     10  C   UNL     1     112.445 125.984 137.531  0.00  0.00    +0.000 C 
ATOM     11  C   UNL     1     112.118 126.181 138.263  0.00  0.00    +0.000 C 
ATOM     12  C   UNL     1     113.263 125.985 137.431  0.00  0.00    +0.000 C 
ATOM     13  C   UNL     1     112.611 126.378 138.894  0.00  0.00    +0.000 A 
ATOM     14  C   UNL     1     113.429 126.378 138.795  0.00  0.00    +0.000 A 
ATOM     15  C   UNL     1     112.258 126.580 139.652  0.00  0.00    +0.000 A 
ATOM     16  C   UNL     1     113.953 126.582 139.446  0.00  0.00    +0.000 A 
ATOM     17  C   UNL     1     112.766 126.786 140.314  0.00  0.00    +0.000 A 
ATOM     18  C   UNL     1     113.619 126.787 140.210  0.00  0.00    +0.000 A 
ENDBRANCH   2  10
BRANCH   3  19
ATOM     19  O   UNL     1     111.831 127.171 136.563  0.00  0.00    +0.000 OA
ATOM     20  C   UNL     1     112.051 127.667 135.942  0.00  0.00    +0.000 C 
ENDBRANCH   3  19
BRANCH   4  21
ATOM     21  O   UNL     1     112.073 124.403 137.234  0.00  0.00    +0.000 OA
ATOM     22  C   UNL     1     111.942 123.611 137.047  0.00  0.00    +0.000 C 
ENDBRANCH   4  21
BRANCH   5  23
ATOM     23  O   UNL     1     110.845 126.780 135.300  0.00  0.00    +0.000 OA
ATOM     24  C   UNL     1     110.041 126.785 135.115  0.00  0.00    +0.000 C 
ENDBRANCH   5  23
TORSDOF 4
ENDMDL
