MODEL 1
REMARK VINA RESULT:     -10.6      0.000      0.000
REMARK  Name = 14769209
REMARK  7 active torsions:
REMARK  status: ('A' for Active; 'I' for Inactive)
REMARK    1  A    between atoms: O_5  and  C_22
REMARK    2  A    between atoms: O_5  and  C_30
REMARK    3  A    between atoms: O_7  and  C_27
REMARK    4  A    between atoms: O_7  and  C_31
REMARK    5  A    between atoms: C_20  and  C_28
REMARK    6  A    between atoms: C_26  and  C_29
REMARK    7  A    between atoms: C_37  and  C_42
REMARK                            x       y       z     vdW  Elec       q    Type
REMARK                         _______ _______ _______ _____ _____    ______ ____
ROOT
ATOM      1  O   UNL     1     110.204 127.739 136.606  0.00  0.00    +0.000 OA
ATOM      2  O   UNL     1     110.320 125.187 135.255  0.00  0.00    +0.000 OA
ATOM      3  O   UNL     1     109.744 126.344 134.613  0.00  0.00    +0.000 OA
ATOM      4  C   UNL     1     111.015 125.777 137.301  0.00  0.00    +0.000 A 
ATOM      5  C   UNL     1     110.793 126.607 137.298  0.00  0.00    +0.000 A 
ATOM      6  C   UNL     1     110.856 125.292 136.609  0.00  0.00    +0.000 A 
ATOM      7  C   UNL     1     110.415 126.941 136.603  0.00  0.00    +0.000 A 
ATOM      8  C   UNL     1     110.261 126.477 135.938  0.00  0.00    +0.000 A 
ATOM      9  C   UNL     1     110.477 125.644 135.923  0.00  0.00    +0.000 A 
ATOM     10  C   UNL     1     109.839 128.072 135.944  0.00  0.00    +0.000 A 
ATOM     11  C   UNL     1     109.898 126.809 135.277  0.00  0.00    +0.000 A 
ATOM     12  C   UNL     1     109.687 127.606 135.280  0.00  0.00    +0.000 A 
ENDROOT
BRANCH  10  17
ATOM     13  O   UNL     1     107.827 130.099 136.041  0.00  0.00    +0.000 OA
ATOM     14  C   UNL     1     109.206 130.464 135.952  0.00  0.00    +0.000 A 
ATOM     15  C   UNL     1     108.623 129.883 135.995  0.00  0.00    +0.000 A 
ATOM     16  C   UNL     1     110.001 130.248 135.906  0.00  0.00    +0.000 A 
ATOM     17  C   UNL     1     109.628 128.869 135.946  0.00  0.00    +0.000 A 
ATOM     18  C   UNL     1     108.834 129.085 135.992  0.00  0.00    +0.000 A 
ATOM     19  C   UNL     1     110.212 129.450 135.903  0.00  0.00    +0.000 A 
BRANCH  14  20
ATOM     20  O   UNL     1     108.995 131.262 135.955  0.00  0.00    +0.000 OA
BRANCH  20  29
ATOM     21  O   UNL     1     109.355 131.591 137.298  0.00  0.00    +0.000 OA
ATOM     22  O   UNL     1     110.389 133.330 138.114  0.00  0.00    +0.000 OA
ATOM     23  O   UNL     1     110.366 133.707 136.509  0.00  0.00    +0.000 OA
ATOM     24  O   UNL     1     109.668 132.673 135.429  0.00  0.00    +0.000 OA
ATOM     25  C   UNL     1     110.040 132.813 137.575  0.00  0.00    +0.000 C 
ATOM     26  C   UNL     1     110.029 133.002 136.772  0.00  0.00    +0.000 C 
ATOM     27  C   UNL     1     109.703 132.107 137.838  0.00  0.00    +0.000 C 
ATOM     28  C   UNL     1     109.680 132.484 136.231  0.00  0.00    +0.000 C 
ATOM     29  C   UNL     1     109.343 131.778 136.494  0.00  0.00    +0.000 C 
BRANCH  27  31
ATOM     30  O   UNL     1     109.017 131.704 139.025  0.00  0.00    +0.000 OA
ATOM     31  C   UNL     1     109.715 131.919 138.640  0.00  0.00    +0.000 C 
ENDBRANCH  27  31
ENDBRANCH  20  29
ENDBRANCH  14  20
ENDBRANCH  10  17
BRANCH   4  32
ATOM     32  O   UNL     1     111.379 125.447 137.964  0.00  0.00    +0.000 OA
BRANCH  32  41
ATOM     33  O   UNL     1     112.747 125.425 137.548  0.00  0.00    +0.000 OA
ATOM     34  O   UNL     1     113.421 126.415 139.713  0.00  0.00    +0.000 OA
ATOM     35  O   UNL     1     114.563 126.063 138.576  0.00  0.00    +0.000 OA
ATOM     36  O   UNL     1     111.830 126.107 139.407  0.00  0.00    +0.000 OA
ATOM     37  C   UNL     1     113.196 126.085 138.991  0.00  0.00    +0.000 C 
ATOM     38  C   UNL     1     113.767 125.909 138.422  0.00  0.00    +0.000 C 
ATOM     39  C   UNL     1     112.400 125.931 138.838  0.00  0.00    +0.000 C 
ATOM     40  C   UNL     1     113.543 125.579 137.700  0.00  0.00    +0.000 C 
ATOM     41  C   UNL     1     112.175 125.601 138.117  0.00  0.00    +0.000 C 
BRANCH  40  44
ATOM     42  O   UNL     1     114.434 124.644 137.090  0.00  0.00    +0.000 OA
ATOM     43  O   UNL     1     114.363 125.986 136.603  0.00  0.00    +0.000 OA
ATOM     44  C   UNL     1     114.113 125.402 137.132  0.00  0.00    +0.000 C 
ENDBRANCH  40  44
ENDBRANCH  32  41
ENDBRANCH   4  32
TORSDOF 7
ENDMDL
MODEL 2
REMARK VINA RESULT:     -10.4      7.652      8.897
REMARK  Name = 14769209
REMARK  7 active torsions:
REMARK  status: ('A' for Active; 'I' for Inactive)
REMARK    1  A    between atoms: O_5  and  C_22
REMARK    2  A    between atoms: O_5  and  C_30
REMARK    3  A    between atoms: O_7  and  C_27
REMARK    4  A    between atoms: O_7  and  C_31
REMARK    5  A    between atoms: C_20  and  C_28
REMARK    6  A    between atoms: C_26  and  C_29
REMARK    7  A    between atoms: C_37  and  C_42
REMARK                            x       y       z     vdW  Elec       q    Type
REMARK                         _______ _______ _______ _____ _____    ______ ____
ROOT
ATOM      1  O   UNL     1     104.965 127.617 142.437  0.00  0.00    +0.000 OA
ATOM      2  O   UNL     1     107.826 127.378 142.760  0.00  0.00    +0.000 OA
ATOM      3  O   UNL     1     107.230 128.601 142.277  0.00  0.00    +0.000 OA
ATOM      4  C   UNL     1     106.195 125.894 143.150  0.00  0.00    +0.000 A 
ATOM      5  C   UNL     1     105.511 126.364 142.927  0.00  0.00    +0.000 A 
ATOM      6  C   UNL     1     106.981 126.235 143.095  0.00  0.00    +0.000 A 
ATOM      7  C   UNL     1     105.624 127.170 142.650  0.00  0.00    +0.000 A 
ATOM      8  C   UNL     1     106.379 127.499 142.597  0.00  0.00    +0.000 A 
ATOM      9  C   UNL     1     107.075 127.043 142.817  0.00  0.00    +0.000 A 
ATOM     10  C   UNL     1     105.060 128.393 142.170  0.00  0.00    +0.000 A 
ATOM     11  C   UNL     1     106.475 128.273 142.331  0.00  0.00    +0.000 A 
ATOM     12  C   UNL     1     105.815 128.720 142.117  0.00  0.00    +0.000 A 
ENDROOT
BRANCH  10  17
ATOM     13  O   UNL     1     102.994 129.016 140.297  0.00  0.00    +0.000 OA
ATOM     14  C   UNL     1     103.081 129.734 141.530  0.00  0.00    +0.000 A 
ATOM     15  C   UNL     1     103.368 129.151 141.021  0.00  0.00    +0.000 A 
ATOM     16  C   UNL     1     103.455 129.869 142.253  0.00  0.00    +0.000 A 
ATOM     17  C   UNL     1     104.400 128.840 141.957  0.00  0.00    +0.000 A 
ATOM     18  C   UNL     1     104.027 128.704 141.234  0.00  0.00    +0.000 A 
ATOM     19  C   UNL     1     104.115 129.422 142.467  0.00  0.00    +0.000 A 
BRANCH  14  20
ATOM     20  O   UNL     1     102.421 130.181 141.316  0.00  0.00    +0.000 OA
BRANCH  20  29
ATOM     21  O   UNL     1     103.111 131.372 140.932  0.00  0.00    +0.000 OA
ATOM     22  O   UNL     1     102.613 133.474 141.243  0.00  0.00    +0.000 OA
ATOM     23  O   UNL     1     101.331 132.739 141.975  0.00  0.00    +0.000 OA
ATOM     24  O   UNL     1     101.235 131.092 142.012  0.00  0.00    +0.000 OA
ATOM     25  C   UNL     1     102.566 132.650 141.261  0.00  0.00    +0.000 C 
ATOM     26  C   UNL     1     101.924 132.283 141.627  0.00  0.00    +0.000 C 
ATOM     27  C   UNL     1     103.159 132.195 140.913  0.00  0.00    +0.000 C 
ATOM     28  C   UNL     1     101.876 131.459 141.646  0.00  0.00    +0.000 C 
ATOM     29  C   UNL     1     102.470 131.004 141.298  0.00  0.00    +0.000 C 
BRANCH  27  31
ATOM     30  O   UNL     1     104.075 132.286 139.820  0.00  0.00    +0.000 OA
ATOM     31  C   UNL     1     103.800 132.562 140.547  0.00  0.00    +0.000 C 
ENDBRANCH  27  31
ENDBRANCH  20  29
ENDBRANCH  14  20
ENDBRANCH  10  17
BRANCH   4  32
ATOM     32  O   UNL     1     106.096 125.119 143.416  0.00  0.00    +0.000 OA
BRANCH  32  41
ATOM     33  O   UNL     1     106.361 125.371 144.798  0.00  0.00    +0.000 OA
ATOM     34  O   UNL     1     104.608 123.744 145.431  0.00  0.00    +0.000 OA
ATOM     35  O   UNL     1     105.457 124.538 146.601  0.00  0.00    +0.000 OA
ATOM     36  O   UNL     1     104.928 124.035 143.839  0.00  0.00    +0.000 OA
ATOM     37  C   UNL     1     105.193 124.286 145.220  0.00  0.00    +0.000 C 
ATOM     38  C   UNL     1     105.617 124.684 145.805  0.00  0.00    +0.000 C 
ATOM     39  C   UNL     1     105.352 124.432 144.424  0.00  0.00    +0.000 C 
ATOM     40  C   UNL     1     106.202 125.226 145.594  0.00  0.00    +0.000 C 
ATOM     41  C   UNL     1     105.936 124.974 144.213  0.00  0.00    +0.000 C 
BRANCH  40  44
ATOM     42  O   UNL     1     107.347 125.320 146.445  0.00  0.00    +0.000 OA
ATOM     43  O   UNL     1     106.331 126.326 146.498  0.00  0.00    +0.000 OA
ATOM     44  C   UNL     1     106.627 125.623 146.179  0.00  0.00    +0.000 C 
ENDBRANCH  40  44
ENDBRANCH  32  41
ENDBRANCH   4  32
TORSDOF 7
ENDMDL
MODEL 3
REMARK VINA RESULT:     -10.4      4.375      6.733
REMARK  Name = 14769209
REMARK  7 active torsions:
REMARK  status: ('A' for Active; 'I' for Inactive)
REMARK    1  A    between atoms: O_5  and  C_22
REMARK    2  A    between atoms: O_5  and  C_30
REMARK    3  A    between atoms: O_7  and  C_27
REMARK    4  A    between atoms: O_7  and  C_31
REMARK    5  A    between atoms: C_20  and  C_28
REMARK    6  A    between atoms: C_26  and  C_29
REMARK    7  A    between atoms: C_37  and  C_42
REMARK                            x       y       z     vdW  Elec       q    Type
REMARK                         _______ _______ _______ _____ _____    ______ ____
ROOT
ATOM      1  O   UNL     1     109.424 126.026 139.805  0.00  0.00    +0.000 OA
ATOM      2  O   UNL     1     112.159 126.675 140.472  0.00  0.00    +0.000 OA
ATOM      3  O   UNL     1     111.191 126.379 141.501  0.00  0.00    +0.000 OA
ATOM      4  C   UNL     1     111.150 126.526 138.478  0.00  0.00    +0.000 A 
ATOM      5  C   UNL     1     110.357 126.315 138.730  0.00  0.00    +0.000 A 
ATOM      6  C   UNL     1     111.764 126.649 139.067  0.00  0.00    +0.000 A 
ATOM      7  C   UNL     1     110.188 126.229 139.568  0.00  0.00    +0.000 A 
ATOM      8  C   UNL     1     110.777 126.347 140.134  0.00  0.00    +0.000 A 
ATOM      9  C   UNL     1     111.577 126.559 139.900  0.00  0.00    +0.000 A 
ATOM     10  C   UNL     1     109.249 125.941 140.607  0.00  0.00    +0.000 A 
ATOM     11  C   UNL     1     110.602 126.262 140.935  0.00  0.00    +0.000 A 
ATOM     12  C   UNL     1     109.838 126.059 141.172  0.00  0.00    +0.000 A 
ENDROOT
BRANCH  10  17
ATOM     13  O   UNL     1     106.650 126.714 141.509  0.00  0.00    +0.000 OA
ATOM     14  C   UNL     1     106.957 125.332 141.317  0.00  0.00    +0.000 A 
ATOM     15  C   UNL     1     107.186 126.124 141.294  0.00  0.00    +0.000 A 
ATOM     16  C   UNL     1     107.494 124.742 141.102  0.00  0.00    +0.000 A 
ATOM     17  C   UNL     1     108.485 125.738 140.844  0.00  0.00    +0.000 A 
ATOM     18  C   UNL     1     107.950 126.327 141.058  0.00  0.00    +0.000 A 
ATOM     19  C   UNL     1     108.258 124.945 140.865  0.00  0.00    +0.000 A 
BRANCH  14  20
ATOM     20  O   UNL     1     106.194 125.129 141.553  0.00  0.00    +0.000 OA
BRANCH  20  29
ATOM     21  O   UNL     1     105.645 124.772 140.283  0.00  0.00    +0.000 OA
ATOM     22  O   UNL     1     104.377 123.096 139.695  0.00  0.00    +0.000 OA
ATOM     23  O   UNL     1     104.564 122.794 141.305  0.00  0.00    +0.000 OA
ATOM     24  O   UNL     1     105.473 123.810 142.235  0.00  0.00    +0.000 OA
ATOM     25  C   UNL     1     104.831 123.605 140.159  0.00  0.00    +0.000 C 
ATOM     26  C   UNL     1     104.925 123.453 140.964  0.00  0.00    +0.000 C 
ATOM     27  C   UNL     1     105.191 124.264 139.818  0.00  0.00    +0.000 C 
ATOM     28  C   UNL     1     105.379 123.962 141.429  0.00  0.00    +0.000 C 
ATOM     29  C   UNL     1     105.740 124.621 141.089  0.00  0.00    +0.000 C 
BRANCH  27  31
ATOM     30  O   UNL     1     104.957 125.184 138.751  0.00  0.00    +0.000 OA
ATOM     31  C   UNL     1     105.097 124.415 139.013  0.00  0.00    +0.000 C 
ENDBRANCH  27  31
ENDBRANCH  20  29
ENDBRANCH  14  20
ENDBRANCH  10  17
BRANCH   4  32
ATOM     32  O   UNL     1     111.322 126.611 137.675  0.00  0.00    +0.000 OA
BRANCH  32  41
ATOM     33  O   UNL     1     111.761 125.273 137.434  0.00  0.00    +0.000 OA
ATOM     34  O   UNL     1     110.633 125.299 135.232  0.00  0.00    +0.000 OA
ATOM     35  O   UNL     1     111.448 123.952 135.726  0.00  0.00    +0.000 OA
ATOM     36  O   UNL     1     110.571 126.628 136.207  0.00  0.00    +0.000 OA
ATOM     37  C   UNL     1     111.009 125.290 135.967  0.00  0.00    +0.000 C 
ATOM     38  C   UNL     1     111.416 124.617 136.213  0.00  0.00    +0.000 C 
ATOM     39  C   UNL     1     110.978 125.955 136.454  0.00  0.00    +0.000 C 
ATOM     40  C   UNL     1     111.793 124.607 136.947  0.00  0.00    +0.000 C 
ATOM     41  C   UNL     1     111.353 125.946 137.188  0.00  0.00    +0.000 C 
BRANCH  40  44
ATOM     42  O   UNL     1     111.800 123.333 137.593  0.00  0.00    +0.000 OA
ATOM     43  O   UNL     1     113.009 123.863 137.043  0.00  0.00    +0.000 OA
ATOM     44  C   UNL     1     112.200 123.934 137.195  0.00  0.00    +0.000 C 
ENDBRANCH  40  44
ENDBRANCH  32  41
ENDBRANCH   4  32
TORSDOF 7
ENDMDL
MODEL 4
REMARK VINA RESULT:     -10.3      1.241      6.494
REMARK  Name = 14769209
REMARK  7 active torsions:
REMARK  status: ('A' for Active; 'I' for Inactive)
REMARK    1  A    between atoms: O_5  and  C_22
REMARK    2  A    between atoms: O_5  and  C_30
REMARK    3  A    between atoms: O_7  and  C_27
REMARK    4  A    between atoms: O_7  and  C_31
REMARK    5  A    between atoms: C_20  and  C_28
REMARK    6  A    between atoms: C_26  and  C_29
REMARK    7  A    between atoms: C_37  and  C_42
REMARK                            x       y       z     vdW  Elec       q    Type
REMARK                         _______ _______ _______ _____ _____    ______ ____
ROOT
ATOM      1  O   UNL     1     110.282 128.331 136.063  0.00  0.00    +0.000 OA
ATOM      2  O   UNL     1     107.812 129.812 135.831  0.00  0.00    +0.000 OA
ATOM      3  O   UNL     1     107.824 128.370 135.772  0.00  0.00    +0.000 OA
ATOM      4  C   UNL     1     109.913 130.534 136.112  0.00  0.00    +0.000 A 
ATOM      5  C   UNL     1     110.326 129.781 136.129  0.00  0.00    +0.000 A 
ATOM      6  C   UNL     1     109.060 130.548 136.011  0.00  0.00    +0.000 A 
ATOM      7  C   UNL     1     109.880 129.051 136.045  0.00  0.00    +0.000 A 
ATOM      8  C   UNL     1     109.061 129.064 135.948  0.00  0.00    +0.000 A 
ATOM      9  C   UNL     1     108.631 129.808 135.929  0.00  0.00    +0.000 A 
ATOM     10  C   UNL     1     109.864 127.623 135.983  0.00  0.00    +0.000 A 
ATOM     11  C   UNL     1     108.643 128.357 135.869  0.00  0.00    +0.000 A 
ATOM     12  C   UNL     1     109.045 127.637 135.886  0.00  0.00    +0.000 A 
ENDROOT
BRANCH  10  17
ATOM     13  O   UNL     1     110.971 125.373 134.612  0.00  0.00    +0.000 OA
ATOM     14  C   UNL     1     111.069 125.462 136.035  0.00  0.00    +0.000 A 
ATOM     15  C   UNL     1     110.819 125.778 135.316  0.00  0.00    +0.000 A 
ATOM     16  C   UNL     1     110.917 125.867 136.738  0.00  0.00    +0.000 A 
ATOM     17  C   UNL     1     110.266 126.903 136.000  0.00  0.00    +0.000 A 
ATOM     18  C   UNL     1     110.418 126.498 135.298  0.00  0.00    +0.000 A 
ATOM     19  C   UNL     1     110.515 126.587 136.721  0.00  0.00    +0.000 A 
BRANCH  14  20
ATOM     20  O   UNL     1     111.471 124.741 136.053  0.00  0.00    +0.000 OA
BRANCH  20  29
ATOM     21  O   UNL     1     112.727 125.337 136.383  0.00  0.00    +0.000 OA
ATOM     22  O   UNL     1     114.442 124.543 137.474  0.00  0.00    +0.000 OA
ATOM     23  O   UNL     1     113.416 123.252 137.524  0.00  0.00    +0.000 OA
ATOM     24  O   UNL     1     111.930 123.351 136.814  0.00  0.00    +0.000 OA
ATOM     25  C   UNL     1     113.699 124.593 137.119  0.00  0.00    +0.000 C 
ATOM     26  C   UNL     1     113.186 123.947 137.144  0.00  0.00    +0.000 C 
ATOM     27  C   UNL     1     113.469 125.288 136.738  0.00  0.00    +0.000 C 
ATOM     28  C   UNL     1     112.443 123.997 136.788  0.00  0.00    +0.000 C 
ATOM     29  C   UNL     1     112.213 124.692 136.408  0.00  0.00    +0.000 C 
BRANCH  27  31
ATOM     30  O   UNL     1     114.242 126.226 135.987  0.00  0.00    +0.000 OA
ATOM     31  C   UNL     1     113.982 125.933 136.713  0.00  0.00    +0.000 C 
ENDBRANCH  27  31
ENDBRANCH  20  29
ENDBRANCH  14  20
ENDBRANCH  10  17
BRANCH   4  32
ATOM     32  O   UNL     1     110.333 131.239 136.191  0.00  0.00    +0.000 OA
BRANCH  32  41
ATOM     33  O   UNL     1     110.425 131.222 137.617  0.00  0.00    +0.000 OA
ATOM     34  O   UNL     1     110.147 133.680 137.666  0.00  0.00    +0.000 OA
ATOM     35  O   UNL     1     110.332 132.843 139.076  0.00  0.00    +0.000 OA
ATOM     36  O   UNL     1     110.148 132.878 136.225  0.00  0.00    +0.000 OA
ATOM     37  C   UNL     1     110.240 132.860 137.650  0.00  0.00    +0.000 C 
ATOM     38  C   UNL     1     110.332 132.442 138.355  0.00  0.00    +0.000 C 
ATOM     39  C   UNL     1     110.240 132.459 136.929  0.00  0.00    +0.000 C 
ATOM     40  C   UNL     1     110.425 131.622 138.339  0.00  0.00    +0.000 C 
ATOM     41  C   UNL     1     110.333 131.641 136.912  0.00  0.00    +0.000 C 
BRANCH  40  44
ATOM     42  O   UNL     1     109.857 130.903 139.435  0.00  0.00    +0.000 OA
ATOM     43  O   UNL     1     111.273 131.085 139.356  0.00  0.00    +0.000 OA
ATOM     44  C   UNL     1     110.517 131.203 139.043  0.00  0.00    +0.000 C 
ENDBRANCH  40  44
ENDBRANCH  32  41
ENDBRANCH   4  32
TORSDOF 7
ENDMDL
MODEL 5
REMARK VINA RESULT:     -10.3      7.647     10.933
REMARK  Name = 14769209
REMARK  7 active torsions:
REMARK  status: ('A' for Active; 'I' for Inactive)
REMARK    1  A    between atoms: O_5  and  C_22
REMARK    2  A    between atoms: O_5  and  C_30
REMARK    3  A    between atoms: O_7  and  C_27
REMARK    4  A    between atoms: O_7  and  C_31
REMARK    5  A    between atoms: C_20  and  C_28
REMARK    6  A    between atoms: C_26  and  C_29
REMARK    7  A    between atoms: C_37  and  C_42
REMARK                            x       y       z     vdW  Elec       q    Type
REMARK                         _______ _______ _______ _____ _____    ______ ____
ROOT
ATOM      1  O   UNL     1     104.463 129.024 142.891  0.00  0.00    +0.000 OA
ATOM      2  O   UNL     1     103.211 128.855 140.292  0.00  0.00    +0.000 OA
ATOM      3  O   UNL     1     104.189 127.881 140.713  0.00  0.00    +0.000 OA
ATOM      4  C   UNL     1     102.933 130.347 141.940  0.00  0.00    +0.000 A 
ATOM      5  C   UNL     1     103.485 130.031 142.518  0.00  0.00    +0.000 A 
ATOM      6  C   UNL     1     102.838 129.950 141.184  0.00  0.00    +0.000 A 
ATOM      7  C   UNL     1     103.934 129.323 142.332  0.00  0.00    +0.000 A 
ATOM      8  C   UNL     1     103.844 128.941 141.606  0.00  0.00    +0.000 A 
ATOM      9  C   UNL     1     103.296 129.243 141.015  0.00  0.00    +0.000 A 
ATOM     10  C   UNL     1     104.900 128.344 142.724  0.00  0.00    +0.000 A 
ATOM     11  C   UNL     1     104.280 128.262 141.439  0.00  0.00    +0.000 A 
ATOM     12  C   UNL     1     104.809 127.964 141.998  0.00  0.00    +0.000 A 
ENDROOT
BRANCH  10  17
ATOM     13  O   UNL     1     107.508 127.394 143.404  0.00  0.00    +0.000 OA
ATOM     14  C   UNL     1     106.485 127.449 144.401  0.00  0.00    +0.000 A 
ATOM     15  C   UNL     1     106.732 127.571 143.623  0.00  0.00    +0.000 A 
ATOM     16  C   UNL     1     105.709 127.625 144.619  0.00  0.00    +0.000 A 
ATOM     17  C   UNL     1     105.429 128.046 143.283  0.00  0.00    +0.000 A 
ATOM     18  C   UNL     1     106.204 127.869 143.064  0.00  0.00    +0.000 A 
ATOM     19  C   UNL     1     105.181 127.924 144.060  0.00  0.00    +0.000 A 
BRANCH  14  20
ATOM     20  O   UNL     1     107.014 127.150 144.959  0.00  0.00    +0.000 OA
BRANCH  20  29
ATOM     21  O   UNL     1     106.428 125.855 145.104  0.00  0.00    +0.000 OA
ATOM     22  O   UNL     1     106.131 124.612 146.873  0.00  0.00    +0.000 OA
ATOM     23  O   UNL     1     106.860 125.932 147.540  0.00  0.00    +0.000 OA
ATOM     24  O   UNL     1     107.302 127.202 146.583  0.00  0.00    +0.000 OA
ATOM     25  C   UNL     1     106.352 125.246 146.394  0.00  0.00    +0.000 C 
ATOM     26  C   UNL     1     106.716 125.906 146.728  0.00  0.00    +0.000 C 
ATOM     27  C   UNL     1     106.207 125.220 145.582  0.00  0.00    +0.000 C 
ATOM     28  C   UNL     1     106.937 126.541 146.249  0.00  0.00    +0.000 C 
ATOM     29  C   UNL     1     106.793 126.516 145.437  0.00  0.00    +0.000 C 
BRANCH  27  31
ATOM     30  O   UNL     1     106.167 124.203 144.580  0.00  0.00    +0.000 OA
ATOM     31  C   UNL     1     105.843 124.560 145.249  0.00  0.00    +0.000 C 
ENDBRANCH  27  31
ENDBRANCH  20  29
ENDBRANCH  14  20
ENDBRANCH  10  17
BRANCH   4  32
ATOM     32  O   UNL     1     102.498 131.026 142.110  0.00  0.00    +0.000 OA
BRANCH  32  41
ATOM     33  O   UNL     1     103.525 131.896 141.630  0.00  0.00    +0.000 OA
ATOM     34  O   UNL     1     101.836 133.652 141.197  0.00  0.00    +0.000 OA
ATOM     35  O   UNL     1     103.426 133.936 140.862  0.00  0.00    +0.000 OA
ATOM     36  O   UNL     1     101.372 132.197 141.821  0.00  0.00    +0.000 OA
ATOM     37  C   UNL     1     102.399 133.066 141.341  0.00  0.00    +0.000 C 
ATOM     38  C   UNL     1     103.194 133.209 141.174  0.00  0.00    +0.000 C 
ATOM     39  C   UNL     1     102.167 132.339 141.654  0.00  0.00    +0.000 C 
ATOM     40  C   UNL     1     103.758 132.623 141.318  0.00  0.00    +0.000 C 
ATOM     41  C   UNL     1     102.730 131.754 141.798  0.00  0.00    +0.000 C 
BRANCH  40  44
ATOM     42  O   UNL     1     104.857 132.584 140.406  0.00  0.00    +0.000 OA
ATOM     43  O   UNL     1     105.045 133.088 141.730  0.00  0.00    +0.000 OA
ATOM     44  C   UNL     1     104.553 132.765 141.151  0.00  0.00    +0.000 C 
ENDBRANCH  40  44
ENDBRANCH  32  41
ENDBRANCH   4  32
TORSDOF 7
ENDMDL
MODEL 6
REMARK VINA RESULT:     -10.1      1.823      7.083
REMARK  Name = 14769209
REMARK  7 active torsions:
REMARK  status: ('A' for Active; 'I' for Inactive)
REMARK    1  A    between atoms: O_5  and  C_22
REMARK    2  A    between atoms: O_5  and  C_30
REMARK    3  A    between atoms: O_7  and  C_27
REMARK    4  A    between atoms: O_7  and  C_31
REMARK    5  A    between atoms: C_20  and  C_28
REMARK    6  A    between atoms: C_26  and  C_29
REMARK    7  A    between atoms: C_37  and  C_42
REMARK                            x       y       z     vdW  Elec       q    Type
REMARK                         _______ _______ _______ _____ _____    ______ ____
ROOT
ATOM      1  O   UNL     1     111.590 129.620 137.742  0.00  0.00    +0.000 OA
ATOM      2  O   UNL     1     113.071 131.878 136.715  0.00  0.00    +0.000 OA
ATOM      3  O   UNL     1     113.672 130.568 136.796  0.00  0.00    +0.000 OA
ATOM      4  C   UNL     1     110.972 131.751 137.484  0.00  0.00    +0.000 A 
ATOM      5  C   UNL     1     110.938 130.916 137.683  0.00  0.00    +0.000 A 
ATOM      6  C   UNL     1     111.694 132.081 137.156  0.00  0.00    +0.000 A 
ATOM      7  C   UNL     1     111.628 130.421 137.550  0.00  0.00    +0.000 A 
ATOM      8  C   UNL     1     112.322 130.737 137.234  0.00  0.00    +0.000 A 
ATOM      9  C   UNL     1     112.374 131.571 137.030  0.00  0.00    +0.000 A 
ATOM     10  C   UNL     1     112.246 129.134 137.619  0.00  0.00    +0.000 A 
ATOM     11  C   UNL     1     112.977 130.252 137.111  0.00  0.00    +0.000 A 
ATOM     12  C   UNL     1     112.940 129.451 137.304  0.00  0.00    +0.000 A 
ENDROOT
BRANCH  10  17
ATOM     13  O   UNL     1     112.604 127.024 139.514  0.00  0.00    +0.000 OA
ATOM     14  C   UNL     1     112.133 126.730 138.197  0.00  0.00    +0.000 A 
ATOM     15  C   UNL     1     112.387 127.278 138.758  0.00  0.00    +0.000 A 
ATOM     16  C   UNL     1     111.916 126.984 137.442  0.00  0.00    +0.000 A 
ATOM     17  C   UNL     1     112.209 128.333 137.812  0.00  0.00    +0.000 A 
ATOM     18  C   UNL     1     112.425 128.080 138.566  0.00  0.00    +0.000 A 
ATOM     19  C   UNL     1     111.954 127.785 137.249  0.00  0.00    +0.000 A 
BRANCH  14  20
ATOM     20  O   UNL     1     112.095 125.929 138.389  0.00  0.00    +0.000 OA
BRANCH  20  29
ATOM     21  O   UNL     1     113.214 125.417 137.663  0.00  0.00    +0.000 OA
ATOM     22  O   UNL     1     113.394 123.680 136.354  0.00  0.00    +0.000 OA
ATOM     23  O   UNL     1     111.806 123.579 136.788  0.00  0.00    +0.000 OA
ATOM     24  O   UNL     1     111.156 124.704 137.806  0.00  0.00    +0.000 OA
ATOM     25  C   UNL     1     113.070 124.243 136.863  0.00  0.00    +0.000 C 
ATOM     26  C   UNL     1     112.275 124.192 137.080  0.00  0.00    +0.000 C 
ATOM     27  C   UNL     1     113.539 124.855 137.155  0.00  0.00    +0.000 C 
ATOM     28  C   UNL     1     111.950 124.755 137.589  0.00  0.00    +0.000 C 
ATOM     29  C   UNL     1     112.420 125.367 137.881  0.00  0.00    +0.000 C 
BRANCH  27  31
ATOM     30  O   UNL     1     114.915 124.991 137.516  0.00  0.00    +0.000 OA
ATOM     31  C   UNL     1     114.333 124.905 136.938  0.00  0.00    +0.000 C 
ENDBRANCH  27  31
ENDBRANCH  20  29
ENDBRANCH  14  20
ENDBRANCH  10  17
BRANCH   4  32
ATOM     32  O   UNL     1     110.314 132.234 137.608  0.00  0.00    +0.000 OA
BRANCH  32  41
ATOM     33  O   UNL     1     109.679 132.075 136.338  0.00  0.00    +0.000 OA
ATOM     34  O   UNL     1     107.482 131.886 137.460  0.00  0.00    +0.000 OA
ATOM     35  O   UNL     1     107.579 131.791 135.816  0.00  0.00    +0.000 OA
ATOM     36  O   UNL     1     108.849 132.108 138.356  0.00  0.00    +0.000 OA
ATOM     37  C   UNL     1     108.215 131.949 137.086  0.00  0.00    +0.000 C 
ATOM     38  C   UNL     1     108.263 131.901 136.264  0.00  0.00    +0.000 C 
ATOM     39  C   UNL     1     108.899 132.060 137.534  0.00  0.00    +0.000 C 
ATOM     40  C   UNL     1     108.996 131.965 135.889  0.00  0.00    +0.000 C 
ATOM     41  C   UNL     1     109.630 132.123 137.160  0.00  0.00    +0.000 C 
BRANCH  40  44
ATOM     42  O   UNL     1     109.111 131.181 134.700  0.00  0.00    +0.000 OA
ATOM     43  O   UNL     1     109.029 132.606 134.613  0.00  0.00    +0.000 OA
ATOM     44  C   UNL     1     109.045 131.917 135.068  0.00  0.00    +0.000 C 
ENDBRANCH  40  44
ENDBRANCH  32  41
ENDBRANCH   4  32
TORSDOF 7
ENDMDL
MODEL 7
REMARK VINA RESULT:     -10.1      3.346      4.827
REMARK  Name = 14769209
REMARK  7 active torsions:
REMARK  status: ('A' for Active; 'I' for Inactive)
REMARK    1  A    between atoms: O_5  and  C_22
REMARK    2  A    between atoms: O_5  and  C_30
REMARK    3  A    between atoms: O_7  and  C_27
REMARK    4  A    between atoms: O_7  and  C_31
REMARK    5  A    between atoms: C_20  and  C_28
REMARK    6  A    between atoms: C_26  and  C_29
REMARK    7  A    between atoms: C_37  and  C_42
REMARK                            x       y       z     vdW  Elec       q    Type
REMARK                         _______ _______ _______ _____ _____    ______ ____
ROOT
ATOM      1  O   UNL     1     112.740 128.465 138.314  0.00  0.00    +0.000 OA
ATOM      2  O   UNL     1     113.295 128.824 135.502  0.00  0.00    +0.000 OA
ATOM      3  O   UNL     1     113.722 129.800 136.476  0.00  0.00    +0.000 OA
ATOM      4  C   UNL     1     112.229 127.168 136.569  0.00  0.00    +0.000 A 
ATOM      5  C   UNL     1     112.288 127.452 137.377  0.00  0.00    +0.000 A 
ATOM      6  C   UNL     1     112.570 127.631 135.930  0.00  0.00    +0.000 A 
ATOM      7  C   UNL     1     112.686 128.196 137.536  0.00  0.00    +0.000 A 
ATOM      8  C   UNL     1     113.014 128.642 136.923  0.00  0.00    +0.000 A 
ATOM      9  C   UNL     1     112.965 128.372 136.108  0.00  0.00    +0.000 A 
ATOM     10  C   UNL     1     113.121 129.179 138.480  0.00  0.00    +0.000 A 
ATOM     11  C   UNL     1     113.394 129.354 137.088  0.00  0.00    +0.000 A 
ATOM     12  C   UNL     1     113.447 129.623 137.867  0.00  0.00    +0.000 A 
ENDROOT
BRANCH  10  17
ATOM     13  O   UNL     1     114.448 129.183 141.011  0.00  0.00    +0.000 OA
ATOM     14  C   UNL     1     113.281 129.984 140.815  0.00  0.00    +0.000 A 
ATOM     15  C   UNL     1     113.837 129.449 140.523  0.00  0.00    +0.000 A 
ATOM     16  C   UNL     1     112.670 130.250 140.327  0.00  0.00    +0.000 A 
ATOM     17  C   UNL     1     113.174 129.447 139.258  0.00  0.00    +0.000 A 
ATOM     18  C   UNL     1     113.784 129.181 139.745  0.00  0.00    +0.000 A 
ATOM     19  C   UNL     1     112.617 129.982 139.549  0.00  0.00    +0.000 A 
BRANCH  14  20
ATOM     20  O   UNL     1     113.334 130.252 141.593  0.00  0.00    +0.000 OA
BRANCH  20  29
ATOM     21  O   UNL     1     112.248 129.533 142.180  0.00  0.00    +0.000 OA
ATOM     22  O   UNL     1     110.677 130.184 143.547  0.00  0.00    +0.000 OA
ATOM     23  O   UNL     1     111.520 131.588 143.351  0.00  0.00    +0.000 OA
ATOM     24  O   UNL     1     112.849 131.622 142.374  0.00  0.00    +0.000 OA
ATOM     25  C   UNL     1     111.341 130.201 143.059  0.00  0.00    +0.000 C 
ATOM     26  C   UNL     1     111.762 130.903 142.961  0.00  0.00    +0.000 C 
ATOM     27  C   UNL     1     111.583 129.516 142.668  0.00  0.00    +0.000 C 
ATOM     28  C   UNL     1     112.427 130.920 142.472  0.00  0.00    +0.000 C 
ATOM     29  C   UNL     1     112.670 130.235 142.081  0.00  0.00    +0.000 C 
BRANCH  27  31
ATOM     30  O   UNL     1     111.563 128.108 142.912  0.00  0.00    +0.000 OA
ATOM     31  C   UNL     1     111.162 128.814 142.766  0.00  0.00    +0.000 C 
ENDBRANCH  27  31
ENDBRANCH  20  29
ENDBRANCH  14  20
ENDBRANCH  10  17
BRANCH   4  32
ATOM     32  O   UNL     1     111.848 126.454 136.406  0.00  0.00    +0.000 OA
BRANCH  32  41
ATOM     33  O   UNL     1     113.044 125.681 136.524  0.00  0.00    +0.000 OA
ATOM     34  O   UNL     1     111.704 123.709 137.185  0.00  0.00    +0.000 OA
ATOM     35  O   UNL     1     113.347 123.593 137.082  0.00  0.00    +0.000 OA
ATOM     36  O   UNL     1     110.955 125.139 136.847  0.00  0.00    +0.000 OA
ATOM     37  C   UNL     1     112.151 124.366 136.964  0.00  0.00    +0.000 C 
ATOM     38  C   UNL     1     112.972 124.308 136.913  0.00  0.00    +0.000 C 
ATOM     39  C   UNL     1     111.776 125.082 136.795  0.00  0.00    +0.000 C 
ATOM     40  C   UNL     1     113.419 124.965 136.693  0.00  0.00    +0.000 C 
ATOM     41  C   UNL     1     112.222 125.739 136.575  0.00  0.00    +0.000 C 
BRANCH  40  44
ATOM     42  O   UNL     1     114.600 124.775 135.911  0.00  0.00    +0.000 OA
ATOM     43  O   UNL     1     114.702 124.985 137.322  0.00  0.00    +0.000 OA
ATOM     44  C   UNL     1     114.240 124.908 136.641  0.00  0.00    +0.000 C 
ENDBRANCH  40  44
ENDBRANCH  32  41
ENDBRANCH   4  32
TORSDOF 7
ENDMDL
MODEL 8
REMARK VINA RESULT:     -10.0      1.966      7.024
REMARK  Name = 14769209
REMARK  7 active torsions:
REMARK  status: ('A' for Active; 'I' for Inactive)
REMARK    1  A    between atoms: O_5  and  C_22
REMARK    2  A    between atoms: O_5  and  C_30
REMARK    3  A    between atoms: O_7  and  C_27
REMARK    4  A    between atoms: O_7  and  C_31
REMARK    5  A    between atoms: C_20  and  C_28
REMARK    6  A    between atoms: C_26  and  C_29
REMARK    7  A    between atoms: C_37  and  C_42
REMARK                            x       y       z     vdW  Elec       q    Type
REMARK                         _______ _______ _______ _____ _____    ______ ____
ROOT
ATOM      1  O   UNL     1     111.907 128.868 138.730  0.00  0.00    +0.000 OA
ATOM      2  O   UNL     1     112.524 130.779 140.806  0.00  0.00    +0.000 OA
ATOM      3  O   UNL     1     113.517 129.844 140.336  0.00  0.00    +0.000 OA
ATOM      4  C   UNL     1     110.622 130.432 139.676  0.00  0.00    +0.000 A 
ATOM      5  C   UNL     1     110.870 129.786 139.166  0.00  0.00    +0.000 A 
ATOM      6  C   UNL     1     111.181 130.771 140.233  0.00  0.00    +0.000 A 
ATOM      7  C   UNL     1     111.674 129.488 139.221  0.00  0.00    +0.000 A 
ATOM      8  C   UNL     1     112.211 129.813 139.757  0.00  0.00    +0.000 A 
ATOM      9  C   UNL     1     111.981 130.460 140.274  0.00  0.00    +0.000 A 
ATOM     10  C   UNL     1     112.677 128.573 138.773  0.00  0.00    +0.000 A 
ATOM     11  C   UNL     1     112.980 129.519 139.800  0.00  0.00    +0.000 A 
ATOM     12  C   UNL     1     113.213 128.898 139.309  0.00  0.00    +0.000 A 
ENDROOT
BRANCH  10  17
ATOM     13  O   UNL     1     113.645 127.644 136.250  0.00  0.00    +0.000 OA
ATOM     14  C   UNL     1     113.374 126.712 137.298  0.00  0.00    +0.000 A 
ATOM     15  C   UNL     1     113.393 127.488 137.021  0.00  0.00    +0.000 A 
ATOM     16  C   UNL     1     113.122 126.555 138.069  0.00  0.00    +0.000 A 
ATOM     17  C   UNL     1     112.909 127.952 138.282  0.00  0.00    +0.000 A 
ATOM     18  C   UNL     1     113.161 128.108 137.512  0.00  0.00    +0.000 A 
ATOM     19  C   UNL     1     112.890 127.176 138.561  0.00  0.00    +0.000 A 
BRANCH  14  20
ATOM     20  O   UNL     1     113.607 126.091 136.807  0.00  0.00    +0.000 OA
BRANCH  20  29
ATOM     21  O   UNL     1     112.343 125.552 136.415  0.00  0.00    +0.000 OA
ATOM     22  O   UNL     1     111.619 123.494 136.375  0.00  0.00    +0.000 OA
ATOM     23  O   UNL     1     113.151 123.273 136.943  0.00  0.00    +0.000 OA
ATOM     24  O   UNL     1     114.146 124.572 137.159  0.00  0.00    +0.000 OA
ATOM     25  C   UNL     1     112.115 124.144 136.483  0.00  0.00    +0.000 C 
ATOM     26  C   UNL     1     112.882 124.033 136.767  0.00  0.00    +0.000 C 
ATOM     27  C   UNL     1     111.846 124.903 136.307  0.00  0.00    +0.000 C 
ATOM     28  C   UNL     1     113.379 124.683 136.875  0.00  0.00    +0.000 C 
ATOM     29  C   UNL     1     113.110 125.442 136.699  0.00  0.00    +0.000 C 
BRANCH  27  31
ATOM     30  O   UNL     1     110.945 125.514 135.381  0.00  0.00    +0.000 OA
ATOM     31  C   UNL     1     111.080 125.013 136.023  0.00  0.00    +0.000 C 
ENDBRANCH  27  31
ENDBRANCH  20  29
ENDBRANCH  14  20
ENDBRANCH  10  17
BRANCH   4  32
ATOM     32  O   UNL     1     109.852 130.725 139.630  0.00  0.00    +0.000 OA
BRANCH  32  41
ATOM     33  O   UNL     1     110.110 131.793 138.717  0.00  0.00    +0.000 OA
ATOM     34  O   UNL     1     107.962 131.338 137.577  0.00  0.00    +0.000 OA
ATOM     35  O   UNL     1     108.936 132.559 137.044  0.00  0.00    +0.000 OA
ATOM     36  O   UNL     1     108.420 130.422 138.869  0.00  0.00    +0.000 OA
ATOM     37  C   UNL     1     108.678 131.490 137.957  0.00  0.00    +0.000 C 
ATOM     38  C   UNL     1     109.165 132.100 137.690  0.00  0.00    +0.000 C 
ATOM     39  C   UNL     1     108.907 131.032 138.603  0.00  0.00    +0.000 C 
ATOM     40  C   UNL     1     109.881 132.252 138.070  0.00  0.00    +0.000 C 
ATOM     41  C   UNL     1     109.623 131.183 138.983  0.00  0.00    +0.000 C 
BRANCH  40  44
ATOM     42  O   UNL     1     110.334 133.605 138.162  0.00  0.00    +0.000 OA
ATOM     43  O   UNL     1     110.892 132.729 137.179  0.00  0.00    +0.000 OA
ATOM     44  C   UNL     1     110.369 132.862 137.804  0.00  0.00    +0.000 C 
ENDBRANCH  40  44
ENDBRANCH  32  41
ENDBRANCH   4  32
TORSDOF 7
ENDMDL
MODEL 9
REMARK VINA RESULT:     -10.0      1.749      6.920
REMARK  Name = 14769209
REMARK  7 active torsions:
REMARK  status: ('A' for Active; 'I' for Inactive)
REMARK    1  A    between atoms: O_5  and  C_22
REMARK    2  A    between atoms: O_5  and  C_30
REMARK    3  A    between atoms: O_7  and  C_27
REMARK    4  A    between atoms: O_7  and  C_31
REMARK    5  A    between atoms: C_20  and  C_28
REMARK    6  A    between atoms: C_26  and  C_29
REMARK    7  A    between atoms: C_37  and  C_42
REMARK                            x       y       z     vdW  Elec       q    Type
REMARK                         _______ _______ _______ _____ _____    ______ ____
ROOT
ATOM      1  O   UNL     1     111.056 128.970 138.607  0.00  0.00    +0.000 OA
ATOM      2  O   UNL     1     110.803 131.735 139.406  0.00  0.00    +0.000 OA
ATOM      3  O   UNL     1     111.958 130.955 139.779  0.00  0.00    +0.000 OA
ATOM      4  C   UNL     1     109.423 130.442 138.206  0.00  0.00    +0.000 A 
ATOM      5  C   UNL     1     109.872 129.709 138.205  0.00  0.00    +0.000 A 
ATOM      6  C   UNL     1     109.736 131.131 138.613  0.00  0.00    +0.000 A 
ATOM      7  C   UNL     1     110.629 129.676 138.611  0.00  0.00    +0.000 A 
ATOM      8  C   UNL     1     110.930 130.338 139.002  0.00  0.00    +0.000 A 
ATOM      9  C   UNL     1     110.495 131.079 139.013  0.00  0.00    +0.000 A 
ATOM     10  C   UNL     1     111.784 128.926 138.994  0.00  0.00    +0.000 A 
ATOM     11  C   UNL     1     111.657 130.294 139.388  0.00  0.00    +0.000 A 
ATOM     12  C   UNL     1     112.084 129.588 139.384  0.00  0.00    +0.000 A 
ENDROOT
BRANCH  10  17
ATOM     13  O   UNL     1     112.423 126.412 140.195  0.00  0.00    +0.000 OA
ATOM     14  C   UNL     1     113.066 126.808 138.982  0.00  0.00    +0.000 A 
ATOM     15  C   UNL     1     112.531 126.964 139.590  0.00  0.00    +0.000 A 
ATOM     16  C   UNL     1     113.174 127.360 138.377  0.00  0.00    +0.000 A 
ATOM     17  C   UNL     1     112.212 128.220 138.990  0.00  0.00    +0.000 A 
ATOM     18  C   UNL     1     112.104 127.670 139.594  0.00  0.00    +0.000 A 
ATOM     19  C   UNL     1     112.746 128.066 138.381  0.00  0.00    +0.000 A 
BRANCH  14  20
ATOM     20  O   UNL     1     113.493 126.103 138.977  0.00  0.00    +0.000 OA
BRANCH  20  29
ATOM     21  O   UNL     1     112.802 125.413 137.933  0.00  0.00    +0.000 OA
ATOM     22  O   UNL     1     113.555 124.228 136.263  0.00  0.00    +0.000 OA
ATOM     23  O   UNL     1     114.967 124.668 136.993  0.00  0.00    +0.000 OA
ATOM     24  O   UNL     1     114.936 125.606 138.350  0.00  0.00    +0.000 OA
ATOM     25  C   UNL     1     113.539 124.697 136.942  0.00  0.00    +0.000 C 
ATOM     26  C   UNL     1     114.245 124.917 137.306  0.00  0.00    +0.000 C 
ATOM     27  C   UNL     1     112.817 124.945 137.255  0.00  0.00    +0.000 C 
ATOM     28  C   UNL     1     114.230 125.386 137.986  0.00  0.00    +0.000 C 
ATOM     29  C   UNL     1     113.508 125.634 138.299  0.00  0.00    +0.000 C 
BRANCH  27  31
ATOM     30  O   UNL     1     111.483 124.442 137.343  0.00  0.00    +0.000 OA
ATOM     31  C   UNL     1     112.112 124.725 136.890  0.00  0.00    +0.000 C 
ENDBRANCH  27  31
ENDBRANCH  20  29
ENDBRANCH  14  20
ENDBRANCH  10  17
BRANCH   4  32
ATOM     32  O   UNL     1     108.696 130.483 137.819  0.00  0.00    +0.000 OA
BRANCH  32  41
ATOM     33  O   UNL     1     109.125 130.257 136.475  0.00  0.00    +0.000 OA
ATOM     34  O   UNL     1     107.657 132.089 135.697  0.00  0.00    +0.000 OA
ATOM     35  O   UNL     1     108.576 131.252 134.612  0.00  0.00    +0.000 OA
ATOM     36  O   UNL     1     107.717 131.705 137.299  0.00  0.00    +0.000 OA
ATOM     37  C   UNL     1     108.146 131.478 135.956  0.00  0.00    +0.000 C 
ATOM     38  C   UNL     1     108.606 131.060 135.414  0.00  0.00    +0.000 C 
ATOM     39  C   UNL     1     108.177 131.286 136.758  0.00  0.00    +0.000 C 
ATOM     40  C   UNL     1     109.096 130.448 135.673  0.00  0.00    +0.000 C 
ATOM     41  C   UNL     1     108.666 130.675 137.017  0.00  0.00    +0.000 C 
BRANCH  40  44
ATOM     42  O   UNL     1     110.325 130.276 134.964  0.00  0.00    +0.000 OA
ATOM     43  O   UNL     1     109.245 129.362 134.756  0.00  0.00    +0.000 OA
ATOM     44  C   UNL     1     109.555 130.030 135.131  0.00  0.00    +0.000 C 
ENDBRANCH  40  44
ENDBRANCH  32  41
ENDBRANCH   4  32
TORSDOF 7
ENDMDL
MODEL 10
REMARK VINA RESULT:     -10.0      7.138     10.796
REMARK  Name = 14769209
REMARK  7 active torsions:
REMARK  status: ('A' for Active; 'I' for Inactive)
REMARK    1  A    between atoms: O_5  and  C_22
REMARK    2  A    between atoms: O_5  and  C_30
REMARK    3  A    between atoms: O_7  and  C_27
REMARK    4  A    between atoms: O_7  and  C_31
REMARK    5  A    between atoms: C_20  and  C_28
REMARK    6  A    between atoms: C_26  and  C_29
REMARK    7  A    between atoms: C_37  and  C_42
REMARK                            x       y       z     vdW  Elec       q    Type
REMARK                         _______ _______ _______ _____ _____    ______ ____
ROOT
ATOM      1  O   UNL     1     103.704 131.042 141.906  0.00  0.00    +0.000 OA
ATOM      2  O   UNL     1     101.221 132.506 141.705  0.00  0.00    +0.000 OA
ATOM      3  O   UNL     1     101.239 131.063 141.680  0.00  0.00    +0.000 OA
ATOM      4  C   UNL     1     103.326 133.244 141.912  0.00  0.00    +0.000 A 
ATOM      5  C   UNL     1     103.743 132.493 141.937  0.00  0.00    +0.000 A 
ATOM      6  C   UNL     1     102.470 133.252 141.834  0.00  0.00    +0.000 A 
ATOM      7  C   UNL     1     103.298 131.760 141.882  0.00  0.00    +0.000 A 
ATOM      8  C   UNL     1     102.476 131.767 141.807  0.00  0.00    +0.000 A 
ATOM      9  C   UNL     1     102.042 132.509 141.781  0.00  0.00    +0.000 A 
ATOM     10  C   UNL     1     103.288 130.331 141.855  0.00  0.00    +0.000 A 
ATOM     11  C   UNL     1     102.061 131.057 141.755  0.00  0.00    +0.000 A 
ATOM     12  C   UNL     1     102.466 130.339 141.779  0.00  0.00    +0.000 A 
ENDROOT
BRANCH  10  17
ATOM     13  O   UNL     1     104.125 127.917 140.574  0.00  0.00    +0.000 OA
ATOM     14  C   UNL     1     104.504 128.177 141.927  0.00  0.00    +0.000 A 
ATOM     15  C   UNL     1     104.112 128.406 141.239  0.00  0.00    +0.000 A 
ATOM     16  C   UNL     1     104.491 128.666 142.592  0.00  0.00    +0.000 A 
ATOM     17  C   UNL     1     103.693 129.613 141.879  0.00  0.00    +0.000 A 
ATOM     18  C   UNL     1     103.706 129.124 141.215  0.00  0.00    +0.000 A 
ATOM     19  C   UNL     1     104.086 129.384 142.568  0.00  0.00    +0.000 A 
BRANCH  14  20
ATOM     20  O   UNL     1     104.910 127.459 141.951  0.00  0.00    +0.000 OA
BRANCH  20  29
ATOM     21  O   UNL     1     106.246 127.962 141.884  0.00  0.00    +0.000 OA
ATOM     22  O   UNL     1     108.050 127.371 142.961  0.00  0.00    +0.000 OA
ATOM     23  O   UNL     1     106.949 126.321 143.599  0.00  0.00    +0.000 OA
ATOM     24  O   UNL     1     105.379 126.365 143.094  0.00  0.00    +0.000 OA
ATOM     25  C   UNL     1     107.265 127.393 142.708  0.00  0.00    +0.000 C 
ATOM     26  C   UNL     1     106.715 126.868 143.027  0.00  0.00    +0.000 C 
ATOM     27  C   UNL     1     107.030 127.940 142.136  0.00  0.00    +0.000 C 
ATOM     28  C   UNL     1     105.929 126.890 142.775  0.00  0.00    +0.000 C 
ATOM     29  C   UNL     1     105.695 127.437 142.203  0.00  0.00    +0.000 C 
BRANCH  27  31
ATOM     30  O   UNL     1     107.605 128.594 141.003  0.00  0.00    +0.000 OA
ATOM     31  C   UNL     1     107.581 128.464 141.817  0.00  0.00    +0.000 C 
ENDBRANCH  27  31
ENDBRANCH  20  29
ENDBRANCH  14  20
ENDBRANCH  10  17
BRANCH   4  32
ATOM     32  O   UNL     1     103.744 133.953 141.964  0.00  0.00    +0.000 OA
BRANCH  32  41
ATOM     33  O   UNL     1     103.763 134.088 143.386  0.00  0.00    +0.000 OA
ATOM     34  O   UNL     1     106.119 134.836 143.284  0.00  0.00    +0.000 OA
ATOM     35  O   UNL     1     105.353 134.721 144.741  0.00  0.00    +0.000 OA
ATOM     36  O   UNL     1     105.315 134.452 141.897  0.00  0.00    +0.000 OA
ATOM     37  C   UNL     1     105.334 134.586 143.318  0.00  0.00    +0.000 C 
ATOM     38  C   UNL     1     104.951 134.529 144.047  0.00  0.00    +0.000 C 
ATOM     39  C   UNL     1     104.931 134.394 142.624  0.00  0.00    +0.000 C 
ATOM     40  C   UNL     1     104.165 134.280 144.081  0.00  0.00    +0.000 C 
ATOM     41  C   UNL     1     104.147 134.145 142.658  0.00  0.00    +0.000 C 
BRANCH  40  44
ATOM     42  O   UNL     1     103.842 133.531 145.255  0.00  0.00    +0.000 OA
ATOM     43  O   UNL     1     103.335 134.857 145.091  0.00  0.00    +0.000 OA
ATOM     44  C   UNL     1     103.781 134.222 144.809  0.00  0.00    +0.000 C 
ENDBRANCH  40  44
ENDBRANCH  32  41
ENDBRANCH   4  32
TORSDOF 7
ENDMDL
