MODEL 1
REMARK VINA RESULT:      -8.8      0.000      0.000
REMARK  Name = 42607603
REMARK  5 active torsions:
REMARK  status: ('A' for Active; 'I' for Inactive)
REMARK    1  A    between atoms: O_2  and  C_13
REMARK    2  A    between atoms: O_2  and  C_15
REMARK    3  A    between atoms: C_16  and  C_20
REMARK    4  A    between atoms: C_20  and  C_22
REMARK    5  A    between atoms: C_23  and  C_24
REMARK                            x       y       z     vdW  Elec       q    Type
REMARK                         _______ _______ _______ _____ _____    ______ ____
ROOT
ATOM      1  O   UNL     1     108.537 125.542 147.513  0.00  0.00    +0.000 OA
ATOM      2  O   UNL     1     107.378 123.969 149.598  0.00  0.00    +0.000 OA
ATOM      3  C   UNL     1     106.463 124.972 147.888  0.00  0.00    +0.000 A 
ATOM      4  C   UNL     1     107.127 125.311 147.534  0.00  0.00    +0.000 A 
ATOM      5  C   UNL     1     106.547 124.524 148.577  0.00  0.00    +0.000 A 
ATOM      6  C   UNL     1     107.873 125.203 147.867  0.00  0.00    +0.000 A 
ATOM      7  C   UNL     1     107.294 124.416 148.910  0.00  0.00    +0.000 A 
ATOM      8  C   UNL     1     107.957 124.756 148.555  0.00  0.00    +0.000 A 
ENDROOT
BRANCH   4  10
ATOM      9  O   UNL     1     107.014 125.384 146.111  0.00  0.00    +0.000 OA
ATOM     10  C   UNL     1     107.043 125.758 146.846  0.00  0.00    +0.000 C 
BRANCH  10  11
ATOM     11  C   UNL     1     106.988 126.580 146.892  0.00  0.00    +0.000 C 
ATOM     12  C   UNL     1     106.878 127.025 146.206  0.00  0.00    +0.000 C 
BRANCH  12  14
ATOM     13  O   UNL     1     106.661 130.313 146.394  0.00  0.00    +0.000 OA
ATOM     14  C   UNL     1     106.823 127.848 146.254  0.00  0.00    +0.000 A 
ATOM     15  C   UNL     1     107.443 128.318 145.980  0.00  0.00    +0.000 A 
ATOM     16  C   UNL     1     106.149 128.199 146.573  0.00  0.00    +0.000 A 
ATOM     17  C   UNL     1     107.390 129.140 146.027  0.00  0.00    +0.000 A 
ATOM     18  C   UNL     1     106.094 129.021 146.621  0.00  0.00    +0.000 A 
ATOM     19  C   UNL     1     106.715 129.491 146.347  0.00  0.00    +0.000 A 
ENDBRANCH  12  14
ENDBRANCH  10  11
ENDBRANCH   4  10
BRANCH   3  20
ATOM     20  O   UNL     1     105.717 125.080 147.555  0.00  0.00    +0.000 OA
BRANCH  20  28
ATOM     21  O   UNL     1     105.000 125.480 148.725  0.00  0.00    +0.000 OA
ATOM     22  O   UNL     1     103.108 124.030 148.062  0.00  0.00    +0.000 OA
ATOM     23  O   UNL     1     104.455 124.113 147.113  0.00  0.00    +0.000 OA
ATOM     24  O   UNL     1     103.022 124.914 149.453  0.00  0.00    +0.000 OA
ATOM     25  C   UNL     1     103.739 124.513 148.283  0.00  0.00    +0.000 C 
ATOM     26  C   UNL     1     104.413 124.555 147.809  0.00  0.00    +0.000 C 
ATOM     27  C   UNL     1     103.696 124.955 148.978  0.00  0.00    +0.000 C 
ATOM     28  C   UNL     1     105.044 125.038 148.030  0.00  0.00    +0.000 C 
ATOM     29  C   UNL     1     104.327 125.439 149.199  0.00  0.00    +0.000 C 
ENDBRANCH  20  28
ENDBRANCH   3  20
TORSDOF 5
ENDMDL
MODEL 2
REMARK VINA RESULT:      -8.7     11.920     13.932
REMARK  Name = 42607603
REMARK  5 active torsions:
REMARK  status: ('A' for Active; 'I' for Inactive)
REMARK    1  A    between atoms: O_2  and  C_13
REMARK    2  A    between atoms: O_2  and  C_15
REMARK    3  A    between atoms: C_16  and  C_20
REMARK    4  A    between atoms: C_20  and  C_22
REMARK    5  A    between atoms: C_23  and  C_24
REMARK                            x       y       z     vdW  Elec       q    Type
REMARK                         _______ _______ _______ _____ _____    ______ ____
ROOT
ATOM      1  O   UNL     1     114.631 128.697 134.775  0.00  0.00    +0.000 OA
ATOM      2  O   UNL     1     114.975 131.278 135.954  0.00  0.00    +0.000 OA
ATOM      3  C   UNL     1     113.670 129.617 136.506  0.00  0.00    +0.000 A 
ATOM      4  C   UNL     1     113.868 129.064 135.926  0.00  0.00    +0.000 A 
ATOM      5  C   UNL     1     114.039 130.354 136.516  0.00  0.00    +0.000 A 
ATOM      6  C   UNL     1     114.434 129.249 135.356  0.00  0.00    +0.000 A 
ATOM      7  C   UNL     1     114.606 130.540 135.944  0.00  0.00    +0.000 A 
ATOM      8  C   UNL     1     114.803 129.987 135.365  0.00  0.00    +0.000 A 
ENDROOT
BRANCH   4  10
ATOM      9  O   UNL     1     112.770 128.234 135.539  0.00  0.00    +0.000 OA
ATOM     10  C   UNL     1     113.499 128.326 135.917  0.00  0.00    +0.000 C 
BRANCH  10  11
ATOM     11  C   UNL     1     113.857 127.681 136.285  0.00  0.00    +0.000 C 
ATOM     12  C   UNL     1     113.480 126.947 136.290  0.00  0.00    +0.000 C 
BRANCH  12  14
ATOM     13  O   UNL     1     114.919 124.367 137.761  0.00  0.00    +0.000 OA
ATOM     14  C   UNL     1     113.839 126.302 136.659  0.00  0.00    +0.000 A 
ATOM     15  C   UNL     1     114.346 125.812 136.230  0.00  0.00    +0.000 A 
ATOM     16  C   UNL     1     113.693 126.147 137.455  0.00  0.00    +0.000 A 
ATOM     17  C   UNL     1     114.706 125.167 136.597  0.00  0.00    +0.000 A 
ATOM     18  C   UNL     1     114.052 125.502 137.823  0.00  0.00    +0.000 A 
ATOM     19  C   UNL     1     114.559 125.012 137.394  0.00  0.00    +0.000 A 
ENDBRANCH  12  14
ENDBRANCH  10  11
ENDBRANCH   4  10
BRANCH   3  20
ATOM     20  O   UNL     1     113.104 129.432 137.077  0.00  0.00    +0.000 OA
BRANCH  20  28
ATOM     21  O   UNL     1     112.214 130.531 136.876  0.00  0.00    +0.000 OA
ATOM     22  O   UNL     1     111.977 130.786 139.326  0.00  0.00    +0.000 OA
ATOM     23  O   UNL     1     112.946 129.601 138.710  0.00  0.00    +0.000 OA
ATOM     24  O   UNL     1     111.166 131.801 138.309  0.00  0.00    +0.000 OA
ATOM     25  C   UNL     1     112.056 130.701 138.510  0.00  0.00    +0.000 C 
ATOM     26  C   UNL     1     112.541 130.108 138.201  0.00  0.00    +0.000 C 
ATOM     27  C   UNL     1     111.651 131.208 138.001  0.00  0.00    +0.000 C 
ATOM     28  C   UNL     1     112.620 130.024 137.384  0.00  0.00    +0.000 C 
ATOM     29  C   UNL     1     111.730 131.123 137.184  0.00  0.00    +0.000 C 
ENDBRANCH  20  28
ENDBRANCH   3  20
TORSDOF 5
ENDMDL
MODEL 3
REMARK VINA RESULT:      -8.4     11.652     12.840
REMARK  Name = 42607603
REMARK  5 active torsions:
REMARK  status: ('A' for Active; 'I' for Inactive)
REMARK    1  A    between atoms: O_2  and  C_13
REMARK    2  A    between atoms: O_2  and  C_15
REMARK    3  A    between atoms: C_16  and  C_20
REMARK    4  A    between atoms: C_20  and  C_22
REMARK    5  A    between atoms: C_23  and  C_24
REMARK                            x       y       z     vdW  Elec       q    Type
REMARK                         _______ _______ _______ _____ _____    ______ ____
ROOT
ATOM      1  O   UNL     1     113.366 128.169 137.618  0.00  0.00    +0.000 OA
ATOM      2  O   UNL     1     111.396 129.972 138.637  0.00  0.00    +0.000 OA
ATOM      3  C   UNL     1     111.300 128.522 137.007  0.00  0.00    +0.000 A 
ATOM      4  C   UNL     1     112.063 128.209 137.032  0.00  0.00    +0.000 A 
ATOM      5  C   UNL     1     111.078 129.110 137.542  0.00  0.00    +0.000 A 
ATOM      6  C   UNL     1     112.603 128.482 137.592  0.00  0.00    +0.000 A 
ATOM      7  C   UNL     1     111.618 129.384 138.102  0.00  0.00    +0.000 A 
ATOM      8  C   UNL     1     112.381 129.070 138.127  0.00  0.00    +0.000 A 
ENDROOT
BRANCH   4  10
ATOM      9  O   UNL     1     112.584 127.828 135.757  0.00  0.00    +0.000 OA
ATOM     10  C   UNL     1     112.285 127.621 136.498  0.00  0.00    +0.000 C 
BRANCH  10  11
ATOM     11  C   UNL     1     112.208 126.826 136.703  0.00  0.00    +0.000 C 
ATOM     12  C   UNL     1     112.465 126.239 136.183  0.00  0.00    +0.000 C 
BRANCH  12  14
ATOM     13  O   UNL     1     112.154 123.058 137.008  0.00  0.00    +0.000 OA
ATOM     14  C   UNL     1     112.388 125.443 136.390  0.00  0.00    +0.000 A 
ATOM     15  C   UNL     1     111.660 125.064 136.304  0.00  0.00    +0.000 A 
ATOM     16  C   UNL     1     113.038 125.027 136.681  0.00  0.00    +0.000 A 
ATOM     17  C   UNL     1     111.582 124.269 136.510  0.00  0.00    +0.000 A 
ATOM     18  C   UNL     1     112.960 124.232 136.887  0.00  0.00    +0.000 A 
ATOM     19  C   UNL     1     112.233 123.853 136.802  0.00  0.00    +0.000 A 
ENDBRANCH  12  14
ENDBRANCH  10  11
ENDBRANCH   4  10
BRANCH   3  20
ATOM     20  O   UNL     1     110.759 128.249 136.447  0.00  0.00    +0.000 OA
BRANCH  20  28
ATOM     21  O   UNL     1     110.372 129.504 135.885  0.00  0.00    +0.000 OA
ATOM     22  O   UNL     1     108.012 128.758 135.846  0.00  0.00    +0.000 OA
ATOM     23  O   UNL     1     109.186 127.752 136.422  0.00  0.00    +0.000 OA
ATOM     24  O   UNL     1     108.412 130.262 135.296  0.00  0.00    +0.000 OA
ATOM     25  C   UNL     1     108.799 129.007 135.859  0.00  0.00    +0.000 C 
ATOM     26  C   UNL     1     109.386 128.503 136.147  0.00  0.00    +0.000 C 
ATOM     27  C   UNL     1     108.999 129.758 135.584  0.00  0.00    +0.000 C 
ATOM     28  C   UNL     1     110.173 128.752 136.160  0.00  0.00    +0.000 C 
ATOM     29  C   UNL     1     109.786 130.007 135.597  0.00  0.00    +0.000 C 
ENDBRANCH  20  28
ENDBRANCH   3  20
TORSDOF 5
ENDMDL
MODEL 4
REMARK VINA RESULT:      -8.3     10.542     12.201
REMARK  Name = 42607603
REMARK  5 active torsions:
REMARK  status: ('A' for Active; 'I' for Inactive)
REMARK    1  A    between atoms: O_2  and  C_13
REMARK    2  A    between atoms: O_2  and  C_15
REMARK    3  A    between atoms: C_16  and  C_20
REMARK    4  A    between atoms: C_20  and  C_22
REMARK    5  A    between atoms: C_23  and  C_24
REMARK                            x       y       z     vdW  Elec       q    Type
REMARK                         _______ _______ _______ _____ _____    ______ ____
ROOT
ATOM      1  O   UNL     1     113.987 124.822 136.251  0.00  0.00    +0.000 OA
ATOM      2  O   UNL     1     111.673 123.260 136.859  0.00  0.00    +0.000 OA
ATOM      3  C   UNL     1     112.296 125.228 137.570  0.00  0.00    +0.000 A 
ATOM      4  C   UNL     1     113.008 125.321 137.164  0.00  0.00    +0.000 A 
ATOM      5  C   UNL     1     111.851 124.540 137.469  0.00  0.00    +0.000 A 
ATOM      6  C   UNL     1     113.275 124.729 136.657  0.00  0.00    +0.000 A 
ATOM      7  C   UNL     1     112.118 123.947 136.961  0.00  0.00    +0.000 A 
ATOM      8  C   UNL     1     112.830 124.042 136.555  0.00  0.00    +0.000 A 
ENDROOT
BRANCH   4  10
ATOM      9  O   UNL     1     113.942 126.090 137.926  0.00  0.00    +0.000 OA
ATOM     10  C   UNL     1     113.453 126.008 137.266  0.00  0.00    +0.000 C 
BRANCH  10  11
ATOM     11  C   UNL     1     113.410 126.615 136.709  0.00  0.00    +0.000 C 
ATOM     12  C   UNL     1     113.794 127.331 136.847  0.00  0.00    +0.000 C 
BRANCH  12  14
ATOM     13  O   UNL     1     113.615 129.755 134.615  0.00  0.00    +0.000 OA
ATOM     14  C   UNL     1     113.750 127.937 136.289  0.00  0.00    +0.000 A 
ATOM     15  C   UNL     1     113.065 128.393 136.229  0.00  0.00    +0.000 A 
ATOM     16  C   UNL     1     114.390 128.087 135.791  0.00  0.00    +0.000 A 
ATOM     17  C   UNL     1     113.020 128.999 135.671  0.00  0.00    +0.000 A 
ATOM     18  C   UNL     1     114.346 128.693 135.232  0.00  0.00    +0.000 A 
ATOM     19  C   UNL     1     113.661 129.149 135.173  0.00  0.00    +0.000 A 
ENDBRANCH  12  14
ENDBRANCH  10  11
ENDBRANCH   4  10
BRANCH   3  20
ATOM     20  O   UNL     1     112.029 125.820 138.078  0.00  0.00    +0.000 OA
BRANCH  20  28
ATOM     21  O   UNL     1     110.730 126.037 137.522  0.00  0.00    +0.000 OA
ATOM     22  O   UNL     1     109.769 126.120 139.801  0.00  0.00    +0.000 OA
ATOM     23  O   UNL     1     111.388 125.875 139.597  0.00  0.00    +0.000 OA
ATOM     24  O   UNL     1     108.791 126.309 138.486  0.00  0.00    +0.000 OA
ATOM     25  C   UNL     1     110.089 126.092 139.042  0.00  0.00    +0.000 C 
ATOM     26  C   UNL     1     110.900 125.970 138.939  0.00  0.00    +0.000 C 
ATOM     27  C   UNL     1     109.601 126.187 138.384  0.00  0.00    +0.000 C 
ATOM     28  C   UNL     1     111.220 125.942 138.180  0.00  0.00    +0.000 C 
ATOM     29  C   UNL     1     109.921 126.159 137.624  0.00  0.00    +0.000 C 
ENDBRANCH  20  28
ENDBRANCH   3  20
TORSDOF 5
ENDMDL
MODEL 5
REMARK VINA RESULT:      -8.2     10.965     12.785
REMARK  Name = 42607603
REMARK  5 active torsions:
REMARK  status: ('A' for Active; 'I' for Inactive)
REMARK    1  A    between atoms: O_2  and  C_13
REMARK    2  A    between atoms: O_2  and  C_15
REMARK    3  A    between atoms: C_16  and  C_20
REMARK    4  A    between atoms: C_20  and  C_22
REMARK    5  A    between atoms: C_23  and  C_24
REMARK                            x       y       z     vdW  Elec       q    Type
REMARK                         _______ _______ _______ _____ _____    ______ ____
ROOT
ATOM      1  O   UNL     1     114.581 126.096 135.605  0.00  0.00    +0.000 OA
ATOM      2  O   UNL     1     114.864 124.415 137.898  0.00  0.00    +0.000 OA
ATOM      3  C   UNL     1     113.585 126.150 137.547  0.00  0.00    +0.000 A 
ATOM      4  C   UNL     1     113.799 126.346 136.774  0.00  0.00    +0.000 A 
ATOM      5  C   UNL     1     113.940 125.506 137.921  0.00  0.00    +0.000 A 
ATOM      6  C   UNL     1     114.367 125.900 136.377  0.00  0.00    +0.000 A 
ATOM      7  C   UNL     1     114.509 125.059 137.524  0.00  0.00    +0.000 A 
ATOM      8  C   UNL     1     114.722 125.256 136.752  0.00  0.00    +0.000 A 
ENDROOT
BRANCH   4  10
ATOM      9  O   UNL     1     112.678 126.922 136.101  0.00  0.00    +0.000 OA
ATOM     10  C   UNL     1     113.444 126.990 136.400  0.00  0.00    +0.000 C 
BRANCH  10  11
ATOM     11  C   UNL     1     113.855 127.701 136.323  0.00  0.00    +0.000 C 
ATOM     12  C   UNL     1     113.503 128.342 135.941  0.00  0.00    +0.000 C 
BRANCH  12  14
ATOM     13  O   UNL     1     115.152 131.185 135.635  0.00  0.00    +0.000 OA
ATOM     14  C   UNL     1     113.915 129.053 135.865  0.00  0.00    +0.000 A 
ATOM     15  C   UNL     1     114.326 129.219 135.169  0.00  0.00    +0.000 A 
ATOM     16  C   UNL     1     113.917 129.598 136.484  0.00  0.00    +0.000 A 
ATOM     17  C   UNL     1     114.738 129.929 135.092  0.00  0.00    +0.000 A 
ATOM     18  C   UNL     1     114.328 130.309 136.408  0.00  0.00    +0.000 A 
ATOM     19  C   UNL     1     114.739 130.474 135.712  0.00  0.00    +0.000 A 
ENDBRANCH  12  14
ENDBRANCH  10  11
ENDBRANCH   4  10
BRANCH   3  20
ATOM     20  O   UNL     1     113.018 126.596 137.944  0.00  0.00    +0.000 OA
BRANCH  20  28
ATOM     21  O   UNL     1     113.730 126.912 139.142  0.00  0.00    +0.000 OA
ATOM     22  O   UNL     1     111.734 126.328 140.484  0.00  0.00    +0.000 OA
ATOM     23  O   UNL     1     111.687 126.207 138.839  0.00  0.00    +0.000 OA
ATOM     24  O   UNL     1     113.112 126.838 141.234  0.00  0.00    +0.000 OA
ATOM     25  C   UNL     1     112.400 126.523 140.036  0.00  0.00    +0.000 C 
ATOM     26  C   UNL     1     112.376 126.462 139.213  0.00  0.00    +0.000 C 
ATOM     27  C   UNL     1     113.089 126.778 140.411  0.00  0.00    +0.000 C 
ATOM     28  C   UNL     1     113.041 126.657 138.766  0.00  0.00    +0.000 C 
ATOM     29  C   UNL     1     113.754 126.972 139.964  0.00  0.00    +0.000 C 
ENDBRANCH  20  28
ENDBRANCH   3  20
TORSDOF 5
ENDMDL
MODEL 6
REMARK VINA RESULT:      -8.2     12.007     13.597
REMARK  Name = 42607603
REMARK  5 active torsions:
REMARK  status: ('A' for Active; 'I' for Inactive)
REMARK    1  A    between atoms: O_2  and  C_13
REMARK    2  A    between atoms: O_2  and  C_15
REMARK    3  A    between atoms: C_16  and  C_20
REMARK    4  A    between atoms: C_20  and  C_22
REMARK    5  A    between atoms: C_23  and  C_24
REMARK                            x       y       z     vdW  Elec       q    Type
REMARK                         _______ _______ _______ _____ _____    ______ ____
ROOT
ATOM      1  O   UNL     1     110.780 128.629 135.383  0.00  0.00    +0.000 OA
ATOM      2  O   UNL     1     109.926 126.013 134.612  0.00  0.00    +0.000 OA
ATOM      3  C   UNL     1     111.598 126.662 135.857  0.00  0.00    +0.000 A 
ATOM      4  C   UNL     1     111.500 127.481 135.835  0.00  0.00    +0.000 A 
ATOM      5  C   UNL     1     111.074 126.173 135.450  0.00  0.00    +0.000 A 
ATOM      6  C   UNL     1     110.878 127.810 135.406  0.00  0.00    +0.000 A 
ATOM      7  C   UNL     1     110.451 126.502 135.020  0.00  0.00    +0.000 A 
ATOM      8  C   UNL     1     110.353 127.321 134.998  0.00  0.00    +0.000 A 
ENDROOT
BRANCH   4  10
ATOM      9  O   UNL     1     111.944 128.074 137.057  0.00  0.00    +0.000 OA
ATOM     10  C   UNL     1     112.025 127.970 136.242  0.00  0.00    +0.000 C 
BRANCH  10  11
ATOM     11  C   UNL     1     112.630 128.355 135.836  0.00  0.00    +0.000 C 
ATOM     12  C   UNL     1     113.196 128.788 136.252  0.00  0.00    +0.000 C 
BRANCH  12  14
ATOM     13  O   UNL     1     115.616 130.331 134.623  0.00  0.00    +0.000 OA
ATOM     14  C   UNL     1     113.801 129.174 135.844  0.00  0.00    +0.000 A 
ATOM     15  C   UNL     1     113.941 129.976 135.976  0.00  0.00    +0.000 A 
ATOM     16  C   UNL     1     114.267 128.757 135.306  0.00  0.00    +0.000 A 
ATOM     17  C   UNL     1     114.546 130.362 135.569  0.00  0.00    +0.000 A 
ATOM     18  C   UNL     1     114.872 129.143 134.898  0.00  0.00    +0.000 A 
ATOM     19  C   UNL     1     115.012 129.945 135.030  0.00  0.00    +0.000 A 
ENDBRANCH  12  14
ENDBRANCH  10  11
ENDBRANCH   4  10
BRANCH   3  20
ATOM     20  O   UNL     1     112.220 126.332 136.286  0.00  0.00    +0.000 OA
BRANCH  20  28
ATOM     21  O   UNL     1     111.480 125.328 136.983  0.00  0.00    +0.000 OA
ATOM     22  O   UNL     1     113.333 123.723 136.638  0.00  0.00    +0.000 OA
ATOM     23  O   UNL     1     113.455 125.262 136.056  0.00  0.00    +0.000 OA
ATOM     24  O   UNL     1     111.975 123.254 137.450  0.00  0.00    +0.000 OA
ATOM     25  C   UNL     1     112.715 124.258 136.753  0.00  0.00    +0.000 C 
ATOM     26  C   UNL     1     112.776 125.028 136.462  0.00  0.00    +0.000 C 
ATOM     27  C   UNL     1     112.036 124.024 137.159  0.00  0.00    +0.000 C 
ATOM     28  C   UNL     1     112.159 125.563 136.577  0.00  0.00    +0.000 C 
ATOM     29  C   UNL     1     111.419 124.559 137.274  0.00  0.00    +0.000 C 
ENDBRANCH  20  28
ENDBRANCH   3  20
TORSDOF 5
ENDMDL
MODEL 7
REMARK VINA RESULT:      -8.2     10.736     12.318
REMARK  Name = 42607603
REMARK  5 active torsions:
REMARK  status: ('A' for Active; 'I' for Inactive)
REMARK    1  A    between atoms: O_2  and  C_13
REMARK    2  A    between atoms: O_2  and  C_15
REMARK    3  A    between atoms: C_16  and  C_20
REMARK    4  A    between atoms: C_20  and  C_22
REMARK    5  A    between atoms: C_23  and  C_24
REMARK                            x       y       z     vdW  Elec       q    Type
REMARK                         _______ _______ _______ _____ _____    ______ ____
ROOT
ATOM      1  O   UNL     1     114.019 126.956 140.714  0.00  0.00    +0.000 OA
ATOM      2  O   UNL     1     114.341 129.775 141.051  0.00  0.00    +0.000 OA
ATOM      3  C   UNL     1     113.328 128.629 139.494  0.00  0.00    +0.000 A 
ATOM      4  C   UNL     1     113.461 127.858 139.757  0.00  0.00    +0.000 A 
ATOM      5  C   UNL     1     113.621 129.268 139.925  0.00  0.00    +0.000 A 
ATOM      6  C   UNL     1     113.886 127.726 140.450  0.00  0.00    +0.000 A 
ATOM      7  C   UNL     1     114.048 129.136 140.620  0.00  0.00    +0.000 A 
ATOM      8  C   UNL     1     114.180 128.365 140.882  0.00  0.00    +0.000 A 
ENDROOT
BRANCH   4  10
ATOM      9  O   UNL     1     112.418 126.915 139.496  0.00  0.00    +0.000 OA
ATOM     10  C   UNL     1     113.167 127.219 139.325  0.00  0.00    +0.000 C 
BRANCH  10  11
ATOM     11  C   UNL     1     113.621 126.884 138.724  0.00  0.00    +0.000 C 
ATOM     12  C   UNL     1     113.341 126.224 138.314  0.00  0.00    +0.000 C 
BRANCH  12  14
ATOM     13  O   UNL     1     115.159 124.887 135.907  0.00  0.00    +0.000 OA
ATOM     14  C   UNL     1     113.796 125.889 137.713  0.00  0.00    +0.000 A 
ATOM     15  C   UNL     1     113.760 126.198 136.949  0.00  0.00    +0.000 A 
ATOM     16  C   UNL     1     114.286 125.247 137.875  0.00  0.00    +0.000 A 
ATOM     17  C   UNL     1     114.214 125.865 136.346  0.00  0.00    +0.000 A 
ATOM     18  C   UNL     1     114.741 124.912 137.273  0.00  0.00    +0.000 A 
ATOM     19  C   UNL     1     114.705 125.221 136.509  0.00  0.00    +0.000 A 
ENDBRANCH  12  14
ENDBRANCH  10  11
ENDBRANCH   4  10
BRANCH   3  20
ATOM     20  O   UNL     1     112.902 128.761 138.800  0.00  0.00    +0.000 OA
BRANCH  20  28
ATOM     21  O   UNL     1     111.923 129.682 139.285  0.00  0.00    +0.000 OA
ATOM     22  O   UNL     1     112.254 131.091 137.278  0.00  0.00    +0.000 OA
ATOM     23  O   UNL     1     113.123 129.700 137.462  0.00  0.00    +0.000 OA
ATOM     24  O   UNL     1     111.165 131.542 138.432  0.00  0.00    +0.000 OA
ATOM     25  C   UNL     1     112.144 130.621 137.947  0.00  0.00    +0.000 C 
ATOM     26  C   UNL     1     112.578 129.925 138.039  0.00  0.00    +0.000 C 
ATOM     27  C   UNL     1     111.599 130.846 138.524  0.00  0.00    +0.000 C 
ATOM     28  C   UNL     1     112.468 129.456 138.708  0.00  0.00    +0.000 C 
ATOM     29  C   UNL     1     111.489 130.377 139.193  0.00  0.00    +0.000 C 
ENDBRANCH  20  28
ENDBRANCH   3  20
TORSDOF 5
ENDMDL
MODEL 8
REMARK VINA RESULT:      -8.1     10.248     12.099
REMARK  Name = 42607603
REMARK  5 active torsions:
REMARK  status: ('A' for Active; 'I' for Inactive)
REMARK    1  A    between atoms: O_2  and  C_13
REMARK    2  A    between atoms: O_2  and  C_15
REMARK    3  A    between atoms: C_16  and  C_20
REMARK    4  A    between atoms: C_20  and  C_22
REMARK    5  A    between atoms: C_23  and  C_24
REMARK                            x       y       z     vdW  Elec       q    Type
REMARK                         _______ _______ _______ _____ _____    ______ ____
ROOT
ATOM      1  O   UNL     1     114.161 124.589 137.532  0.00  0.00    +0.000 OA
ATOM      2  O   UNL     1     112.019 123.074 136.399  0.00  0.00    +0.000 OA
ATOM      3  C   UNL     1     112.146 125.186 136.938  0.00  0.00    +0.000 A 
ATOM      4  C   UNL     1     112.918 125.226 137.228  0.00  0.00    +0.000 A 
ATOM      5  C   UNL     1     111.847 124.469 136.661  0.00  0.00    +0.000 A 
ATOM      6  C   UNL     1     113.389 124.550 137.242  0.00  0.00    +0.000 A 
ATOM      7  C   UNL     1     112.318 123.791 136.675  0.00  0.00    +0.000 A 
ATOM      8  C   UNL     1     113.089 123.832 136.965  0.00  0.00    +0.000 A 
ENDROOT
BRANCH   4  10
ATOM      9  O   UNL     1     113.615 126.451 136.988  0.00  0.00    +0.000 OA
ATOM     10  C   UNL     1     113.217 125.943 137.504  0.00  0.00    +0.000 C 
BRANCH  10  11
ATOM     11  C   UNL     1     113.120 126.154 138.295  0.00  0.00    +0.000 C 
ATOM     12  C   UNL     1     113.441 126.860 138.577  0.00  0.00    +0.000 C 
BRANCH  12  14
ATOM     13  O   UNL     1     113.048 127.700 141.744  0.00  0.00    +0.000 OA
ATOM     14  C   UNL     1     113.344 127.069 139.369  0.00  0.00    +0.000 A 
ATOM     15  C   UNL     1     112.667 127.476 139.607  0.00  0.00    +0.000 A 
ATOM     16  C   UNL     1     113.922 126.873 139.923  0.00  0.00    +0.000 A 
ATOM     17  C   UNL     1     112.568 127.686 140.399  0.00  0.00    +0.000 A 
ATOM     18  C   UNL     1     113.824 127.083 140.715  0.00  0.00    +0.000 A 
ATOM     19  C   UNL     1     113.147 127.489 140.953  0.00  0.00    +0.000 A 
ENDBRANCH  12  14
ENDBRANCH  10  11
ENDBRANCH   4  10
BRANCH   3  20
ATOM     20  O   UNL     1     111.675 125.862 136.924  0.00  0.00    +0.000 OA
BRANCH  20  28
ATOM     21  O   UNL     1     111.270 125.801 135.554  0.00  0.00    +0.000 OA
ATOM     22  O   UNL     1     108.983 126.494 136.199  0.00  0.00    +0.000 OA
ATOM     23  O   UNL     1     110.150 126.324 137.353  0.00  0.00    +0.000 OA
ATOM     24  O   UNL     1     109.341 126.201 134.615  0.00  0.00    +0.000 OA
ATOM     25  C   UNL     1     109.746 126.263 135.984  0.00  0.00    +0.000 C 
ATOM     26  C   UNL     1     110.330 126.178 136.562  0.00  0.00    +0.000 C 
ATOM     27  C   UNL     1     109.925 126.116 135.193  0.00  0.00    +0.000 C 
ATOM     28  C   UNL     1     111.092 125.947 136.347  0.00  0.00    +0.000 C 
ATOM     29  C   UNL     1     110.687 125.885 134.978  0.00  0.00    +0.000 C 
ENDBRANCH  20  28
ENDBRANCH   3  20
TORSDOF 5
ENDMDL
MODEL 9
REMARK VINA RESULT:      -8.1     12.645     13.578
REMARK  Name = 42607603
REMARK  5 active torsions:
REMARK  status: ('A' for Active; 'I' for Inactive)
REMARK    1  A    between atoms: O_2  and  C_13
REMARK    2  A    between atoms: O_2  and  C_15
REMARK    3  A    between atoms: C_16  and  C_20
REMARK    4  A    between atoms: C_20  and  C_22
REMARK    5  A    between atoms: C_23  and  C_24
REMARK                            x       y       z     vdW  Elec       q    Type
REMARK                         _______ _______ _______ _____ _____    ______ ____
ROOT
ATOM      1  O   UNL     1     112.786 129.684 136.212  0.00  0.00    +0.000 OA
ATOM      2  O   UNL     1     111.288 131.566 137.755  0.00  0.00    +0.000 OA
ATOM      3  C   UNL     1     110.669 130.213 136.156  0.00  0.00    +0.000 A 
ATOM      4  C   UNL     1     111.386 129.846 135.978  0.00  0.00    +0.000 A 
ATOM      5  C   UNL     1     110.636 130.787 136.749  0.00  0.00    +0.000 A 
ATOM      6  C   UNL     1     112.069 130.051 136.390  0.00  0.00    +0.000 A 
ATOM      7  C   UNL     1     111.321 130.992 137.163  0.00  0.00    +0.000 A 
ATOM      8  C   UNL     1     112.037 130.624 136.983  0.00  0.00    +0.000 A 
ENDROOT
BRANCH   4  10
ATOM      9  O   UNL     1     111.612 129.488 134.612  0.00  0.00    +0.000 OA
ATOM     10  C   UNL     1     111.418 129.273 135.385  0.00  0.00    +0.000 C 
BRANCH  10  11
ATOM     11  C   UNL     1     111.258 128.484 135.565  0.00  0.00    +0.000 C 
ATOM     12  C   UNL     1     111.325 127.905 134.980  0.00  0.00    +0.000 C 
BRANCH  12  14
ATOM     13  O   UNL     1     110.678 124.751 135.701  0.00  0.00    +0.000 OA
ATOM     14  C   UNL     1     111.163 127.116 135.161  0.00  0.00    +0.000 A 
ATOM     15  C   UNL     1     110.517 126.738 134.815  0.00  0.00    +0.000 A 
ATOM     16  C   UNL     1     111.648 126.706 135.687  0.00  0.00    +0.000 A 
ATOM     17  C   UNL     1     110.355 125.950 134.995  0.00  0.00    +0.000 A 
ATOM     18  C   UNL     1     111.487 125.917 135.867  0.00  0.00    +0.000 A 
ATOM     19  C   UNL     1     110.840 125.539 135.521  0.00  0.00    +0.000 A 
ENDBRANCH  12  14
ENDBRANCH  10  11
ENDBRANCH   4  10
BRANCH   3  20
ATOM     20  O   UNL     1     109.985 130.008 135.744  0.00  0.00    +0.000 OA
BRANCH  20  28
ATOM     21  O   UNL     1     109.579 131.304 135.299  0.00  0.00    +0.000 OA
ATOM     22  O   UNL     1     107.238 130.779 135.906  0.00  0.00    +0.000 OA
ATOM     23  O   UNL     1     108.425 129.658 136.148  0.00  0.00    +0.000 OA
ATOM     24  O   UNL     1     107.613 132.250 135.259  0.00  0.00    +0.000 OA
ATOM     25  C   UNL     1     108.019 130.954 135.704  0.00  0.00    +0.000 C 
ATOM     26  C   UNL     1     108.612 130.393 135.825  0.00  0.00    +0.000 C 
ATOM     27  C   UNL     1     108.206 131.689 135.380  0.00  0.00    +0.000 C 
ATOM     28  C   UNL     1     109.393 130.568 135.622  0.00  0.00    +0.000 C 
ATOM     29  C   UNL     1     108.987 131.864 135.178  0.00  0.00    +0.000 C 
ENDBRANCH  20  28
ENDBRANCH   3  20
TORSDOF 5
ENDMDL
MODEL 10
REMARK VINA RESULT:      -8.1     11.675     13.388
REMARK  Name = 42607603
REMARK  5 active torsions:
REMARK  status: ('A' for Active; 'I' for Inactive)
REMARK    1  A    between atoms: O_2  and  C_13
REMARK    2  A    between atoms: O_2  and  C_15
REMARK    3  A    between atoms: C_16  and  C_20
REMARK    4  A    between atoms: C_20  and  C_22
REMARK    5  A    between atoms: C_23  and  C_24
REMARK                            x       y       z     vdW  Elec       q    Type
REMARK                         _______ _______ _______ _____ _____    ______ ____
ROOT
ATOM      1  O   UNL     1     112.386 128.398 135.091  0.00  0.00    +0.000 OA
ATOM      2  O   UNL     1     111.075 130.245 136.833  0.00  0.00    +0.000 OA
ATOM      3  C   UNL     1     112.784 128.929 137.171  0.00  0.00    +0.000 A 
ATOM      4  C   UNL     1     112.848 128.565 136.433  0.00  0.00    +0.000 A 
ATOM      5  C   UNL     1     112.193 129.489 137.304  0.00  0.00    +0.000 A 
ATOM      6  C   UNL     1     112.322 128.761 135.829  0.00  0.00    +0.000 A 
ATOM      7  C   UNL     1     111.666 129.685 136.700  0.00  0.00    +0.000 A 
ATOM      8  C   UNL     1     111.731 129.321 135.962  0.00  0.00    +0.000 A 
ENDROOT
BRANCH   4  10
ATOM      9  O   UNL     1     114.152 128.233 135.951  0.00  0.00    +0.000 OA
ATOM     10  C   UNL     1     113.439 128.005 136.299  0.00  0.00    +0.000 C 
BRANCH  10  11
ATOM     11  C   UNL     1     113.318 127.218 136.513  0.00  0.00    +0.000 C 
ATOM     12  C   UNL     1     113.902 126.655 136.365  0.00  0.00    +0.000 C 
BRANCH  12  14
ATOM     13  O   UNL     1     113.416 123.506 137.225  0.00  0.00    +0.000 OA
ATOM     14  C   UNL     1     113.780 125.868 136.579  0.00  0.00    +0.000 A 
ATOM     15  C   UNL     1     114.326 125.483 137.064  0.00  0.00    +0.000 A 
ATOM     16  C   UNL     1     113.113 125.465 136.310  0.00  0.00    +0.000 A 
ATOM     17  C   UNL     1     114.205 124.696 137.279  0.00  0.00    +0.000 A 
ATOM     18  C   UNL     1     112.991 124.678 136.525  0.00  0.00    +0.000 A 
ATOM     19  C   UNL     1     113.537 124.293 137.009  0.00  0.00    +0.000 A 
ENDBRANCH  12  14
ENDBRANCH  10  11
ENDBRANCH   4  10
BRANCH   3  20
ATOM     20  O   UNL     1     113.310 128.733 137.775  0.00  0.00    +0.000 OA
BRANCH  20  28
ATOM     21  O   UNL     1     113.834 130.031 138.059  0.00  0.00    +0.000 OA
ATOM     22  O   UNL     1     113.661 129.570 140.484  0.00  0.00    +0.000 OA
ATOM     23  O   UNL     1     113.195 128.425 139.392  0.00  0.00    +0.000 OA
ATOM     24  O   UNL     1     114.244 131.023 139.960  0.00  0.00    +0.000 OA
ATOM     25  C   UNL     1     113.719 129.724 139.676  0.00  0.00    +0.000 C 
ATOM     26  C   UNL     1     113.485 129.151 139.129  0.00  0.00    +0.000 C 
ATOM     27  C   UNL     1     114.010 130.450 139.413  0.00  0.00    +0.000 C 
ATOM     28  C   UNL     1     113.543 129.305 138.321  0.00  0.00    +0.000 C 
ATOM     29  C   UNL     1     114.068 130.603 138.605  0.00  0.00    +0.000 C 
ENDBRANCH  20  28
ENDBRANCH   3  20
TORSDOF 5
ENDMDL
