MODEL 1
REMARK VINA RESULT:      -9.9      0.000      0.000
REMARK  Name = 157009725
REMARK  9 active torsions:
REMARK  status: ('A' for Active; 'I' for Inactive)
REMARK    1  A    between atoms: O_2  and  C_19
REMARK    2  A    between atoms: O_2  and  C_21
REMARK    3  A    between atoms: O_6  and  C_20
REMARK    4  A    between atoms: O_6  and  C_25
REMARK    5  A    between atoms: O_10  and  C_35
REMARK    6  A    between atoms: C_17  and  C_20
REMARK    7  A    between atoms: C_22  and  C_26
REMARK    8  A    between atoms: C_25  and  C_32
REMARK    9  A    between atoms: C_38  and  C_39
REMARK                            x       y       z     vdW  Elec       q    Type
REMARK                         _______ _______ _______ _____ _____    ______ ____
ROOT
ATOM      1  O   UNL     1     113.218 126.506 138.494  0.00  0.00    +0.000 OA
ENDROOT
BRANCH   1   5
ATOM      2  O   UNL     1     112.091 128.375 138.526  0.00  0.00    +0.000 OA
ATOM      3  O   UNL     1     113.791 128.333 136.191  0.00  0.00    +0.000 OA
ATOM      4  O   UNL     1     112.069 130.637 136.692  0.00  0.00    +0.000 OA
ATOM      5  C   UNL     1     112.935 127.249 138.276  0.00  0.00    +0.000 A 
ATOM      6  C   UNL     1     112.374 127.631 138.744  0.00  0.00    +0.000 A 
ATOM      7  C   UNL     1     113.214 127.612 137.589  0.00  0.00    +0.000 A 
ATOM      8  C   UNL     1     112.931 128.355 137.370  0.00  0.00    +0.000 A 
ATOM      9  C   UNL     1     112.369 128.736 137.839  0.00  0.00    +0.000 A 
ATOM     10  C   UNL     1     113.230 128.722 136.653  0.00  0.00    +0.000 A 
ATOM     11  C   UNL     1     112.067 129.511 137.623  0.00  0.00    +0.000 A 
ATOM     12  C   UNL     1     112.939 129.496 136.420  0.00  0.00    +0.000 A 
ATOM     13  C   UNL     1     112.353 129.894 136.908  0.00  0.00    +0.000 A 
BRANCH   6  16
ATOM     14  O   UNL     1     112.635 127.090 141.538  0.00  0.00    +0.000 OA
ATOM     15  O   UNL     1     111.258 126.181 141.491  0.00  0.00    +0.000 OA
ATOM     16  C   UNL     1     112.095 127.268 139.431  0.00  0.00    +0.000 A 
ATOM     17  C   UNL     1     111.406 126.815 139.407  0.00  0.00    +0.000 A 
ATOM     18  C   UNL     1     112.504 127.360 140.142  0.00  0.00    +0.000 A 
ATOM     19  C   UNL     1     111.128 126.452 140.094  0.00  0.00    +0.000 A 
ATOM     20  C   UNL     1     112.225 126.998 140.828  0.00  0.00    +0.000 A 
ATOM     21  C   UNL     1     111.538 126.544 140.804  0.00  0.00    +0.000 A 
BRANCH  19  22
ATOM     22  O   UNL     1     110.439 125.998 140.070  0.00  0.00    +0.000 OA
ATOM     23  C   UNL     1     109.830 126.199 139.552  0.00  0.00    +0.000 C 
ENDBRANCH  19  22
ENDBRANCH   6  16
ENDBRANCH   1   5
BRANCH   1  32
ATOM     24  O   UNL     1     112.744 125.754 137.376  0.00  0.00    +0.000 OA
ATOM     25  O   UNL     1     113.702 124.186 136.197  0.00  0.00    +0.000 OA
ATOM     26  O   UNL     1     114.893 124.530 137.286  0.00  0.00    +0.000 OA
ATOM     27  O   UNL     1     114.651 125.690 138.434  0.00  0.00    +0.000 OA
ATOM     28  C   UNL     1     113.580 124.766 136.771  0.00  0.00    +0.000 C 
ATOM     29  C   UNL     1     114.177 124.938 137.316  0.00  0.00    +0.000 C 
ATOM     30  C   UNL     1     112.864 125.174 136.801  0.00  0.00    +0.000 C 
ATOM     31  C   UNL     1     114.055 125.518 137.890  0.00  0.00    +0.000 C 
ATOM     32  C   UNL     1     113.339 125.926 137.920  0.00  0.00    +0.000 C 
BRANCH  30  33
ATOM     33  C   UNL     1     112.269 125.001 136.257  0.00  0.00    +0.000 C 
BRANCH  33  34
ATOM     34  O   UNL     1     111.489 125.219 136.416  0.00  0.00    +0.000 OA
BRANCH  34  36
ATOM     35  O   UNL     1     110.686 124.746 135.332  0.00  0.00    +0.000 OA
ATOM     36  C   UNL     1     110.968 125.369 135.795  0.00  0.00    +0.000 C 
BRANCH  36  37
ATOM     37  C   UNL     1     110.728 126.142 135.635  0.00  0.00    +0.000 C 
ATOM     38  C   UNL     1     109.957 126.379 135.806  0.00  0.00    +0.000 C 
BRANCH  38  40
ATOM     39  O   UNL     1     108.995 129.471 135.169  0.00  0.00    +0.000 OA
ATOM     40  C   UNL     1     109.717 127.152 135.646  0.00  0.00    +0.000 A 
ATOM     41  C   UNL     1     109.190 127.533 136.154  0.00  0.00    +0.000 A 
ATOM     42  C   UNL     1     110.002 127.544 134.979  0.00  0.00    +0.000 A 
ATOM     43  C   UNL     1     108.949 128.306 135.995  0.00  0.00    +0.000 A 
ATOM     44  C   UNL     1     109.762 128.316 134.820  0.00  0.00    +0.000 A 
ATOM     45  C   UNL     1     109.236 128.697 135.328  0.00  0.00    +0.000 A 
ENDBRANCH  38  40
ENDBRANCH  36  37
ENDBRANCH  34  36
ENDBRANCH  33  34
ENDBRANCH  30  33
ENDBRANCH   1  32
TORSDOF 9
ENDMDL
MODEL 2
REMARK VINA RESULT:      -9.8      1.505      4.847
REMARK  Name = 157009725
REMARK  9 active torsions:
REMARK  status: ('A' for Active; 'I' for Inactive)
REMARK    1  A    between atoms: O_2  and  C_19
REMARK    2  A    between atoms: O_2  and  C_21
REMARK    3  A    between atoms: O_6  and  C_20
REMARK    4  A    between atoms: O_6  and  C_25
REMARK    5  A    between atoms: O_10  and  C_35
REMARK    6  A    between atoms: C_17  and  C_20
REMARK    7  A    between atoms: C_22  and  C_26
REMARK    8  A    between atoms: C_25  and  C_32
REMARK    9  A    between atoms: C_38  and  C_39
REMARK                            x       y       z     vdW  Elec       q    Type
REMARK                         _______ _______ _______ _____ _____    ______ ____
ROOT
ATOM      1  O   UNL     1     110.929 129.801 137.559  0.00  0.00    +0.000 OA
ENDROOT
BRANCH   1   5
ATOM      2  O   UNL     1     111.767 129.013 135.703  0.00  0.00    +0.000 OA
ATOM      3  O   UNL     1     113.908 130.034 137.352  0.00  0.00    +0.000 OA
ATOM      4  O   UNL     1     114.513 128.863 134.745  0.00  0.00    +0.000 OA
ATOM      5  C   UNL     1     111.476 129.586 136.980  0.00  0.00    +0.000 A 
ATOM      6  C   UNL     1     111.220 129.227 136.283  0.00  0.00    +0.000 A 
ATOM      7  C   UNL     1     112.280 129.732 137.097  0.00  0.00    +0.000 A 
ATOM      8  C   UNL     1     112.827 129.517 136.518  0.00  0.00    +0.000 A 
ATOM      9  C   UNL     1     112.570 129.158 135.821  0.00  0.00    +0.000 A 
ATOM     10  C   UNL     1     113.661 129.674 136.652  0.00  0.00    +0.000 A 
ATOM     11  C   UNL     1     113.129 128.930 135.210  0.00  0.00    +0.000 A 
ATOM     12  C   UNL     1     114.235 129.453 136.052  0.00  0.00    +0.000 A 
ATOM     13  C   UNL     1     113.968 129.078 135.326  0.00  0.00    +0.000 A 
BRANCH   6  16
ATOM     14  O   UNL     1     108.658 130.090 135.355  0.00  0.00    +0.000 OA
ATOM     15  O   UNL     1     108.005 128.646 135.814  0.00  0.00    +0.000 OA
ATOM     16  C   UNL     1     110.416 129.082 136.165  0.00  0.00    +0.000 A 
ATOM     17  C   UNL     1     110.090 128.360 136.395  0.00  0.00    +0.000 A 
ATOM     18  C   UNL     1     109.938 129.659 135.819  0.00  0.00    +0.000 A 
ATOM     19  C   UNL     1     109.286 128.215 136.277  0.00  0.00    +0.000 A 
ATOM     20  C   UNL     1     109.135 129.513 135.702  0.00  0.00    +0.000 A 
ATOM     21  C   UNL     1     108.809 128.792 135.931  0.00  0.00    +0.000 A 
BRANCH  19  22
ATOM     22  O   UNL     1     108.960 127.492 136.507  0.00  0.00    +0.000 OA
ATOM     23  C   UNL     1     109.426 126.812 136.513  0.00  0.00    +0.000 C 
ENDBRANCH  19  22
ENDBRANCH   6  16
ENDBRANCH   1   5
BRANCH   1  32
ATOM     24  O   UNL     1     111.381 128.994 138.648  0.00  0.00    +0.000 OA
ATOM     25  O   UNL     1     111.698 129.480 140.752  0.00  0.00    +0.000 OA
ATOM     26  O   UNL     1     111.178 130.934 140.171  0.00  0.00    +0.000 OA
ATOM     27  O   UNL     1     110.793 131.094 138.574  0.00  0.00    +0.000 OA
ATOM     28  C   UNL     1     111.506 129.560 139.954  0.00  0.00    +0.000 C 
ATOM     29  C   UNL     1     111.246 130.287 139.663  0.00  0.00    +0.000 C 
ATOM     30  C   UNL     1     111.574 128.913 139.446  0.00  0.00    +0.000 C 
ATOM     31  C   UNL     1     111.054 130.367 138.865  0.00  0.00    +0.000 C 
ATOM     32  C   UNL     1     111.121 129.720 138.357  0.00  0.00    +0.000 C 
BRANCH  30  33
ATOM     33  C   UNL     1     111.833 128.186 139.737  0.00  0.00    +0.000 C 
BRANCH  33  34
ATOM     34  O   UNL     1     111.697 127.496 139.306  0.00  0.00    +0.000 OA
BRANCH  34  36
ATOM     35  O   UNL     1     112.083 126.372 140.098  0.00  0.00    +0.000 OA
ATOM     36  C   UNL     1     112.176 126.835 139.422  0.00  0.00    +0.000 C 
BRANCH  36  37
ATOM     37  C   UNL     1     112.749 126.637 138.862  0.00  0.00    +0.000 C 
ATOM     38  C   UNL     1     112.655 125.963 138.396  0.00  0.00    +0.000 C 
BRANCH  38  40
ATOM     39  O   UNL     1     114.943 125.169 136.155  0.00  0.00    +0.000 OA
ATOM     40  C   UNL     1     113.227 125.764 137.836  0.00  0.00    +0.000 A 
ATOM     41  C   UNL     1     113.033 125.754 137.034  0.00  0.00    +0.000 A 
ATOM     42  C   UNL     1     113.993 125.576 138.077  0.00  0.00    +0.000 A 
ATOM     43  C   UNL     1     113.605 125.556 136.474  0.00  0.00    +0.000 A 
ATOM     44  C   UNL     1     114.565 125.378 137.517  0.00  0.00    +0.000 A 
ATOM     45  C   UNL     1     114.370 125.368 136.716  0.00  0.00    +0.000 A 
ENDBRANCH  38  40
ENDBRANCH  36  37
ENDBRANCH  34  36
ENDBRANCH  33  34
ENDBRANCH  30  33
ENDBRANCH   1  32
TORSDOF 9
ENDMDL
MODEL 3
REMARK VINA RESULT:      -9.5      1.235      4.793
REMARK  Name = 157009725
REMARK  9 active torsions:
REMARK  status: ('A' for Active; 'I' for Inactive)
REMARK    1  A    between atoms: O_2  and  C_19
REMARK    2  A    between atoms: O_2  and  C_21
REMARK    3  A    between atoms: O_6  and  C_20
REMARK    4  A    between atoms: O_6  and  C_25
REMARK    5  A    between atoms: O_10  and  C_35
REMARK    6  A    between atoms: C_17  and  C_20
REMARK    7  A    between atoms: C_22  and  C_26
REMARK    8  A    between atoms: C_25  and  C_32
REMARK    9  A    between atoms: C_38  and  C_39
REMARK                            x       y       z     vdW  Elec       q    Type
REMARK                         _______ _______ _______ _____ _____    ______ ____
ROOT
ATOM      1  O   UNL     1     110.988 129.294 137.228  0.00  0.00    +0.000 OA
ENDROOT
BRANCH   1   5
ATOM      2  O   UNL     1     112.519 128.202 138.336  0.00  0.00    +0.000 OA
ATOM      3  O   UNL     1     109.910 127.279 139.165  0.00  0.00    +0.000 OA
ATOM      4  O   UNL     1     112.309 126.121 140.363  0.00  0.00    +0.000 OA
ATOM      5  C   UNL     1     111.343 128.766 137.753  0.00  0.00    +0.000 A 
ATOM      6  C   UNL     1     112.165 128.730 137.811  0.00  0.00    +0.000 A 
ATOM      7  C   UNL     1     110.875 128.273 138.222  0.00  0.00    +0.000 A 
ATOM      8  C   UNL     1     111.229 127.745 138.747  0.00  0.00    +0.000 A 
ATOM      9  C   UNL     1     112.052 127.710 138.804  0.00  0.00    +0.000 A 
ATOM     10  C   UNL     1     110.731 127.237 139.230  0.00  0.00    +0.000 A 
ATOM     11  C   UNL     1     112.433 127.165 139.348  0.00  0.00    +0.000 A 
ATOM     12  C   UNL     1     111.095 126.685 139.778  0.00  0.00    +0.000 A 
ATOM     13  C   UNL     1     111.951 126.648 139.838  0.00  0.00    +0.000 A 
BRANCH   6  16
ATOM     14  O   UNL     1     113.396 131.268 137.349  0.00  0.00    +0.000 OA
ATOM     15  O   UNL     1     114.035 130.701 135.937  0.00  0.00    +0.000 OA
ATOM     16  C   UNL     1     112.632 129.223 137.342  0.00  0.00    +0.000 A 
ATOM     17  C   UNL     1     112.952 128.939 136.637  0.00  0.00    +0.000 A 
ATOM     18  C   UNL     1     112.781 129.999 137.580  0.00  0.00    +0.000 A 
ATOM     19  C   UNL     1     113.419 129.432 136.169  0.00  0.00    +0.000 A 
ATOM     20  C   UNL     1     113.248 130.491 137.112  0.00  0.00    +0.000 A 
ATOM     21  C   UNL     1     113.567 130.208 136.406  0.00  0.00    +0.000 A 
BRANCH  19  22
ATOM     22  O   UNL     1     113.738 129.149 135.462  0.00  0.00    +0.000 OA
ATOM     23  C   UNL     1     114.154 128.436 135.454  0.00  0.00    +0.000 C 
ENDBRANCH  19  22
ENDBRANCH   6  16
ENDBRANCH   1   5
BRANCH   1  32
ATOM     24  O   UNL     1     110.220 128.381 136.440  0.00  0.00    +0.000 OA
ATOM     25  O   UNL     1     108.157 128.485 135.737  0.00  0.00    +0.000 OA
ATOM     26  O   UNL     1     108.276 129.907 136.567  0.00  0.00    +0.000 OA
ATOM     27  O   UNL     1     109.691 130.311 137.312  0.00  0.00    +0.000 OA
ATOM     28  C   UNL     1     108.865 128.687 136.110  0.00  0.00    +0.000 C 
ATOM     29  C   UNL     1     108.924 129.398 136.525  0.00  0.00    +0.000 C 
ATOM     30  C   UNL     1     109.513 128.178 136.067  0.00  0.00    +0.000 C 
ATOM     31  C   UNL     1     109.632 129.600 136.897  0.00  0.00    +0.000 C 
ATOM     32  C   UNL     1     110.280 129.091 136.855  0.00  0.00    +0.000 C 
BRANCH  30  33
ATOM     33  C   UNL     1     109.453 127.468 135.653  0.00  0.00    +0.000 C 
BRANCH  33  34
ATOM     34  O   UNL     1     110.134 127.089 135.382  0.00  0.00    +0.000 OA
BRANCH  34  36
ATOM     35  O   UNL     1     109.682 125.936 134.671  0.00  0.00    +0.000 OA
ATOM     36  C   UNL     1     110.136 126.272 135.272  0.00  0.00    +0.000 C 
BRANCH  36  37
ATOM     37  C   UNL     1     110.592 125.791 135.762  0.00  0.00    +0.000 C 
ATOM     38  C   UNL     1     111.351 125.566 135.531  0.00  0.00    +0.000 C 
BRANCH  38  40
ATOM     39  O   UNL     1     113.178 123.641 137.492  0.00  0.00    +0.000 OA
ATOM     40  C   UNL     1     111.807 125.084 136.021  0.00  0.00    +0.000 A 
ATOM     41  C   UNL     1     112.597 125.274 136.166  0.00  0.00    +0.000 A 
ATOM     42  C   UNL     1     111.475 124.414 136.367  0.00  0.00    +0.000 A 
ATOM     43  C   UNL     1     113.054 124.793 136.656  0.00  0.00    +0.000 A 
ATOM     44  C   UNL     1     111.931 123.933 136.857  0.00  0.00    +0.000 A 
ATOM     45  C   UNL     1     112.721 124.122 137.001  0.00  0.00    +0.000 A 
ENDBRANCH  38  40
ENDBRANCH  36  37
ENDBRANCH  34  36
ENDBRANCH  33  34
ENDBRANCH  30  33
ENDBRANCH   1  32
TORSDOF 9
ENDMDL
MODEL 4
REMARK VINA RESULT:      -9.4      1.403      4.066
REMARK  Name = 157009725
REMARK  9 active torsions:
REMARK  status: ('A' for Active; 'I' for Inactive)
REMARK    1  A    between atoms: O_2  and  C_19
REMARK    2  A    between atoms: O_2  and  C_21
REMARK    3  A    between atoms: O_6  and  C_20
REMARK    4  A    between atoms: O_6  and  C_25
REMARK    5  A    between atoms: O_10  and  C_35
REMARK    6  A    between atoms: C_17  and  C_20
REMARK    7  A    between atoms: C_22  and  C_26
REMARK    8  A    between atoms: C_25  and  C_32
REMARK    9  A    between atoms: C_38  and  C_39
REMARK                            x       y       z     vdW  Elec       q    Type
REMARK                         _______ _______ _______ _____ _____    ______ ____
ROOT
ATOM      1  O   UNL     1     110.568 129.243 137.267  0.00  0.00    +0.000 OA
ENDROOT
BRANCH   1   5
ATOM      2  O   UNL     1     112.747 129.298 137.386  0.00  0.00    +0.000 OA
ATOM      3  O   UNL     1     111.955 129.087 134.616  0.00  0.00    +0.000 OA
ATOM      4  O   UNL     1     114.789 129.196 135.312  0.00  0.00    +0.000 OA
ATOM      5  C   UNL     1     111.362 129.244 137.040  0.00  0.00    +0.000 A 
ATOM      6  C   UNL     1     111.954 129.296 137.612  0.00  0.00    +0.000 A 
ATOM      7  C   UNL     1     111.564 129.192 136.241  0.00  0.00    +0.000 A 
ATOM      8  C   UNL     1     112.357 129.193 136.015  0.00  0.00    +0.000 A 
ATOM      9  C   UNL     1     112.949 129.246 136.588  0.00  0.00    +0.000 A 
ATOM     10  C   UNL     1     112.554 129.139 135.180  0.00  0.00    +0.000 A 
ATOM     11  C   UNL     1     113.778 129.248 136.365  0.00  0.00    +0.000 A 
ATOM     12  C   UNL     1     113.378 129.140 134.939  0.00  0.00    +0.000 A 
ATOM     13  C   UNL     1     113.995 129.195 135.535  0.00  0.00    +0.000 A 
BRANCH   6  16
ATOM     14  O   UNL     1     111.070 130.843 139.847  0.00  0.00    +0.000 OA
ATOM     15  O   UNL     1     111.147 129.502 140.806  0.00  0.00    +0.000 OA
ATOM     16  C   UNL     1     111.752 129.348 138.411  0.00  0.00    +0.000 A 
ATOM     17  C   UNL     1     111.791 128.677 138.890  0.00  0.00    +0.000 A 
ATOM     18  C   UNL     1     111.512 130.070 138.730  0.00  0.00    +0.000 A 
ATOM     19  C   UNL     1     111.589 128.729 139.688  0.00  0.00    +0.000 A 
ATOM     20  C   UNL     1     111.310 130.121 139.528  0.00  0.00    +0.000 A 
ATOM     21  C   UNL     1     111.349 129.451 140.007  0.00  0.00    +0.000 A 
BRANCH  19  22
ATOM     22  O   UNL     1     111.628 128.058 140.167  0.00  0.00    +0.000 OA
ATOM     23  C   UNL     1     111.368 127.330 139.880  0.00  0.00    +0.000 C 
ENDBRANCH  19  22
ENDBRANCH   6  16
ENDBRANCH   1   5
BRANCH   1  32
ATOM     24  O   UNL     1     110.168 127.985 136.719  0.00  0.00    +0.000 OA
ATOM     25  O   UNL     1     108.382 127.417 135.601  0.00  0.00    +0.000 OA
ATOM     26  O   UNL     1     108.089 129.019 135.864  0.00  0.00    +0.000 OA
ATOM     27  O   UNL     1     109.182 129.932 136.696  0.00  0.00    +0.000 OA
ATOM     28  C   UNL     1     108.929 127.872 136.017  0.00  0.00    +0.000 C 
ATOM     29  C   UNL     1     108.782 128.674 136.149  0.00  0.00    +0.000 C 
ATOM     30  C   UNL     1     109.622 127.528 136.303  0.00  0.00    +0.000 C 
ATOM     31  C   UNL     1     109.329 129.130 136.565  0.00  0.00    +0.000 C 
ATOM     32  C   UNL     1     110.022 128.786 136.850  0.00  0.00    +0.000 C 
BRANCH  30  33
ATOM     33  C   UNL     1     109.768 126.727 136.171  0.00  0.00    +0.000 C 
BRANCH  33  34
ATOM     34  O   UNL     1     110.301 126.320 136.652  0.00  0.00    +0.000 OA
BRANCH  34  36
ATOM     35  O   UNL     1     110.395 125.239 135.724  0.00  0.00    +0.000 OA
ATOM     36  C   UNL     1     110.707 125.666 136.357  0.00  0.00    +0.000 C 
BRANCH  36  37
ATOM     37  C   UNL     1     111.425 125.438 136.694  0.00  0.00    +0.000 C 
ATOM     38  C   UNL     1     112.112 125.434 136.239  0.00  0.00    +0.000 C 
BRANCH  38  40
ATOM     39  O   UNL     1     114.984 124.526 137.588  0.00  0.00    +0.000 OA
ATOM     40  C   UNL     1     112.830 125.207 136.576  0.00  0.00    +0.000 A 
ATOM     41  C   UNL     1     113.329 125.775 136.905  0.00  0.00    +0.000 A 
ATOM     42  C   UNL     1     113.049 124.412 136.585  0.00  0.00    +0.000 A 
ATOM     43  C   UNL     1     114.047 125.549 137.243  0.00  0.00    +0.000 A 
ATOM     44  C   UNL     1     113.766 124.185 136.922  0.00  0.00    +0.000 A 
ATOM     45  C   UNL     1     114.265 124.753 137.251  0.00  0.00    +0.000 A 
ENDBRANCH  38  40
ENDBRANCH  36  37
ENDBRANCH  34  36
ENDBRANCH  33  34
ENDBRANCH  30  33
ENDBRANCH   1  32
TORSDOF 9
ENDMDL
MODEL 5
REMARK VINA RESULT:      -9.3      1.508      4.824
REMARK  Name = 157009725
REMARK  9 active torsions:
REMARK  status: ('A' for Active; 'I' for Inactive)
REMARK    1  A    between atoms: O_2  and  C_19
REMARK    2  A    between atoms: O_2  and  C_21
REMARK    3  A    between atoms: O_6  and  C_20
REMARK    4  A    between atoms: O_6  and  C_25
REMARK    5  A    between atoms: O_10  and  C_35
REMARK    6  A    between atoms: C_17  and  C_20
REMARK    7  A    between atoms: C_22  and  C_26
REMARK    8  A    between atoms: C_25  and  C_32
REMARK    9  A    between atoms: C_38  and  C_39
REMARK                            x       y       z     vdW  Elec       q    Type
REMARK                         _______ _______ _______ _____ _____    ______ ____
ROOT
ATOM      1  O   UNL     1     110.970 129.685 137.895  0.00  0.00    +0.000 OA
ENDROOT
BRANCH   1   5
ATOM      2  O   UNL     1     109.720 127.900 138.026  0.00  0.00    +0.000 OA
ATOM      3  O   UNL     1     111.842 127.715 139.977  0.00  0.00    +0.000 OA
ATOM      4  O   UNL     1     109.885 125.559 139.751  0.00  0.00    +0.000 OA
ATOM      5  C   UNL     1     110.680 128.952 138.140  0.00  0.00    +0.000 A 
ATOM      6  C   UNL     1     110.010 128.632 137.780  0.00  0.00    +0.000 A 
ATOM      7  C   UNL     1     111.059 128.539 138.746  0.00  0.00    +0.000 A 
ATOM      8  C   UNL     1     110.769 127.807 138.991  0.00  0.00    +0.000 A 
ATOM      9  C   UNL     1     110.099 127.488 138.631  0.00  0.00    +0.000 A 
ATOM     10  C   UNL     1     111.173 127.387 139.623  0.00  0.00    +0.000 A 
ATOM     11  C   UNL     1     109.787 126.726 138.877  0.00  0.00    +0.000 A 
ATOM     12  C   UNL     1     110.876 126.625 139.882  0.00  0.00    +0.000 A 
ATOM     13  C   UNL     1     110.178 126.291 139.507  0.00  0.00    +0.000 A 
BRANCH   6  16
ATOM     14  O   UNL     1     108.240 130.709 136.932  0.00  0.00    +0.000 OA
ATOM     15  O   UNL     1     108.492 130.282 135.358  0.00  0.00    +0.000 OA
ATOM     16  C   UNL     1     109.630 129.045 137.174  0.00  0.00    +0.000 A 
ATOM     17  C   UNL     1     109.757 128.831 136.388  0.00  0.00    +0.000 A 
ATOM     18  C   UNL     1     109.124 129.671 137.356  0.00  0.00    +0.000 A 
ATOM     19  C   UNL     1     109.377 129.244 135.783  0.00  0.00    +0.000 A 
ATOM     20  C   UNL     1     108.745 130.083 136.751  0.00  0.00    +0.000 A 
ATOM     21  C   UNL     1     108.872 129.870 135.964  0.00  0.00    +0.000 A 
BRANCH  19  22
ATOM     22  O   UNL     1     109.504 129.030 134.996  0.00  0.00    +0.000 OA
ATOM     23  C   UNL     1     109.873 128.314 134.817  0.00  0.00    +0.000 C 
ENDBRANCH  19  22
ENDBRANCH   6  16
ENDBRANCH   1   5
BRANCH   1  32
ATOM     24  O   UNL     1     112.248 129.282 137.399  0.00  0.00    +0.000 OA
ATOM     25  O   UNL     1     114.225 130.172 137.656  0.00  0.00    +0.000 OA
ATOM     26  O   UNL     1     113.295 131.220 138.528  0.00  0.00    +0.000 OA
ATOM     27  O   UNL     1     111.668 130.976 138.647  0.00  0.00    +0.000 OA
ATOM     28  C   UNL     1     113.411 130.050 137.716  0.00  0.00    +0.000 C 
ATOM     29  C   UNL     1     112.946 130.574 138.152  0.00  0.00    +0.000 C 
ATOM     30  C   UNL     1     113.062 129.404 137.339  0.00  0.00    +0.000 C 
ATOM     31  C   UNL     1     112.133 130.452 138.211  0.00  0.00    +0.000 C 
ATOM     32  C   UNL     1     111.784 129.806 137.835  0.00  0.00    +0.000 C 
BRANCH  30  33
ATOM     33  C   UNL     1     113.527 128.880 136.904  0.00  0.00    +0.000 C 
BRANCH  33  34
ATOM     34  O   UNL     1     113.171 128.279 136.465  0.00  0.00    +0.000 OA
BRANCH  34  36
ATOM     35  O   UNL     1     114.279 127.636 135.833  0.00  0.00    +0.000 OA
ATOM     36  C   UNL     1     113.592 127.592 136.288  0.00  0.00    +0.000 C 
BRANCH  36  37
ATOM     37  C   UNL     1     113.327 126.862 136.566  0.00  0.00    +0.000 C 
ATOM     38  C   UNL     1     112.797 126.417 136.118  0.00  0.00    +0.000 C 
BRANCH  38  40
ATOM     39  O   UNL     1     111.736 123.496 137.228  0.00  0.00    +0.000 OA
ATOM     40  C   UNL     1     112.532 125.687 136.396  0.00  0.00    +0.000 A 
ATOM     41  C   UNL     1     111.807 125.387 136.141  0.00  0.00    +0.000 A 
ATOM     42  C   UNL     1     112.991 125.256 136.928  0.00  0.00    +0.000 A 
ATOM     43  C   UNL     1     111.541 124.657 136.418  0.00  0.00    +0.000 A 
ATOM     44  C   UNL     1     112.726 124.527 137.206  0.00  0.00    +0.000 A 
ATOM     45  C   UNL     1     112.001 124.227 136.950  0.00  0.00    +0.000 A 
ENDBRANCH  38  40
ENDBRANCH  36  37
ENDBRANCH  34  36
ENDBRANCH  33  34
ENDBRANCH  30  33
ENDBRANCH   1  32
TORSDOF 9
ENDMDL
MODEL 6
REMARK VINA RESULT:      -9.3      1.655      4.398
REMARK  Name = 157009725
REMARK  9 active torsions:
REMARK  status: ('A' for Active; 'I' for Inactive)
REMARK    1  A    between atoms: O_2  and  C_19
REMARK    2  A    between atoms: O_2  and  C_21
REMARK    3  A    between atoms: O_6  and  C_20
REMARK    4  A    between atoms: O_6  and  C_25
REMARK    5  A    between atoms: O_10  and  C_35
REMARK    6  A    between atoms: C_17  and  C_20
REMARK    7  A    between atoms: C_22  and  C_26
REMARK    8  A    between atoms: C_25  and  C_32
REMARK    9  A    between atoms: C_38  and  C_39
REMARK                            x       y       z     vdW  Elec       q    Type
REMARK                         _______ _______ _______ _____ _____    ______ ____
ROOT
ATOM      1  O   UNL     1     111.041 127.540 136.036  0.00  0.00    +0.000 OA
ENDROOT
BRANCH   1   5
ATOM      2  O   UNL     1     111.921 129.531 136.208  0.00  0.00    +0.000 OA
ATOM      3  O   UNL     1     114.028 127.593 135.813  0.00  0.00    +0.000 OA
ATOM      4  O   UNL     1     114.692 130.422 136.103  0.00  0.00    +0.000 OA
ATOM      5  C   UNL     1     111.601 128.145 136.066  0.00  0.00    +0.000 A 
ATOM      6  C   UNL     1     111.361 128.926 136.178  0.00  0.00    +0.000 A 
ATOM      7  C   UNL     1     112.404 127.969 135.983  0.00  0.00    +0.000 A 
ATOM      8  C   UNL     1     112.964 128.573 136.013  0.00  0.00    +0.000 A 
ATOM      9  C   UNL     1     112.722 129.354 136.125  0.00  0.00    +0.000 A 
ATOM     10  C   UNL     1     113.796 128.377 135.925  0.00  0.00    +0.000 A 
ATOM     11  C   UNL     1     113.296 129.993 136.158  0.00  0.00    +0.000 A 
ATOM     12  C   UNL     1     114.384 129.002 135.955  0.00  0.00    +0.000 A 
ATOM     13  C   UNL     1     114.133 129.816 136.073  0.00  0.00    +0.000 A 
BRANCH   6  16
ATOM     14  O   UNL     1     108.819 129.503 135.006  0.00  0.00    +0.000 OA
ATOM     15  O   UNL     1     108.154 129.630 136.510  0.00  0.00    +0.000 OA
ATOM     16  C   UNL     1     110.558 129.102 136.261  0.00  0.00    +0.000 A 
ATOM     17  C   UNL     1     110.226 129.166 137.014  0.00  0.00    +0.000 A 
ATOM     18  C   UNL     1     110.089 129.215 135.592  0.00  0.00    +0.000 A 
ATOM     19  C   UNL     1     109.425 129.342 137.096  0.00  0.00    +0.000 A 
ATOM     20  C   UNL     1     109.288 129.390 135.675  0.00  0.00    +0.000 A 
ATOM     21  C   UNL     1     108.956 129.454 136.427  0.00  0.00    +0.000 A 
BRANCH  19  22
ATOM     22  O   UNL     1     109.092 129.406 137.849  0.00  0.00    +0.000 OA
ATOM     23  C   UNL     1     109.567 129.599 138.495  0.00  0.00    +0.000 C 
ENDBRANCH  19  22
ENDBRANCH   6  16
ENDBRANCH   1   5
BRANCH   1  32
ATOM     24  O   UNL     1     111.451 126.777 137.172  0.00  0.00    +0.000 OA
ATOM     25  O   UNL     1     111.686 124.623 137.437  0.00  0.00    +0.000 OA
ATOM     26  O   UNL     1     111.189 124.691 135.865  0.00  0.00    +0.000 OA
ATOM     27  O   UNL     1     110.866 126.150 135.165  0.00  0.00    +0.000 OA
ATOM     28  C   UNL     1     111.525 125.353 137.088  0.00  0.00    +0.000 C 
ATOM     29  C   UNL     1     111.276 125.387 136.301  0.00  0.00    +0.000 C 
ATOM     30  C   UNL     1     111.613 126.048 137.523  0.00  0.00    +0.000 C 
ATOM     31  C   UNL     1     111.115 126.116 135.952  0.00  0.00    +0.000 C 
ATOM     32  C   UNL     1     111.202 126.811 136.387  0.00  0.00    +0.000 C 
BRANCH  30  33
ATOM     33  C   UNL     1     111.861 126.013 138.309  0.00  0.00    +0.000 C 
BRANCH  33  34
ATOM     34  O   UNL     1     111.773 126.671 138.799  0.00  0.00    +0.000 OA
BRANCH  34  36
ATOM     35  O   UNL     1     112.126 126.197 140.100  0.00  0.00    +0.000 OA
ATOM     36  C   UNL     1     112.226 126.738 139.485  0.00  0.00    +0.000 C 
BRANCH  36  37
ATOM     37  C   UNL     1     112.779 127.346 139.557  0.00  0.00    +0.000 C 
ATOM     38  C   UNL     1     112.631 127.982 140.060  0.00  0.00    +0.000 C 
BRANCH  38  40
ATOM     39  O   UNL     1     114.846 130.411 140.350  0.00  0.00    +0.000 OA
ATOM     40  C   UNL     1     113.185 128.590 140.132  0.00  0.00    +0.000 A 
ATOM     41  C   UNL     1     113.843 128.492 140.619  0.00  0.00    +0.000 A 
ATOM     42  C   UNL     1     113.080 129.295 139.718  0.00  0.00    +0.000 A 
ATOM     43  C   UNL     1     114.397 129.099 140.692  0.00  0.00    +0.000 A 
ATOM     44  C   UNL     1     113.633 129.902 139.790  0.00  0.00    +0.000 A 
ATOM     45  C   UNL     1     114.292 129.804 140.277  0.00  0.00    +0.000 A 
ENDBRANCH  38  40
ENDBRANCH  36  37
ENDBRANCH  34  36
ENDBRANCH  33  34
ENDBRANCH  30  33
ENDBRANCH   1  32
TORSDOF 9
ENDMDL
MODEL 7
REMARK VINA RESULT:      -9.2      1.213      2.935
REMARK  Name = 157009725
REMARK  9 active torsions:
REMARK  status: ('A' for Active; 'I' for Inactive)
REMARK    1  A    between atoms: O_2  and  C_19
REMARK    2  A    between atoms: O_2  and  C_21
REMARK    3  A    between atoms: O_6  and  C_20
REMARK    4  A    between atoms: O_6  and  C_25
REMARK    5  A    between atoms: O_10  and  C_35
REMARK    6  A    between atoms: C_17  and  C_20
REMARK    7  A    between atoms: C_22  and  C_26
REMARK    8  A    between atoms: C_25  and  C_32
REMARK    9  A    between atoms: C_38  and  C_39
REMARK                            x       y       z     vdW  Elec       q    Type
REMARK                         _______ _______ _______ _____ _____    ______ ____
ROOT
ATOM      1  O   UNL     1     111.135 125.257 137.992  0.00  0.00    +0.000 OA
ENDROOT
BRANCH   1   5
ATOM      2  O   UNL     1     109.662 126.866 137.920  0.00  0.00    +0.000 OA
ATOM      3  O   UNL     1     110.013 125.783 135.265  0.00  0.00    +0.000 OA
ATOM      4  O   UNL     1     108.133 127.975 135.703  0.00  0.00    +0.000 OA
ATOM      5  C   UNL     1     110.580 125.793 137.701  0.00  0.00    +0.000 A 
ATOM      6  C   UNL     1     110.216 126.329 138.211  0.00  0.00    +0.000 A 
ATOM      7  C   UNL     1     110.389 125.794 136.898  0.00  0.00    +0.000 A 
ATOM      8  C   UNL     1     109.834 126.331 136.606  0.00  0.00    +0.000 A 
ATOM      9  C   UNL     1     109.471 126.867 137.118  0.00  0.00    +0.000 A 
ATOM     10  C   UNL     1     109.644 126.322 135.768  0.00  0.00    +0.000 A 
ATOM     11  C   UNL     1     108.892 127.431 136.827  0.00  0.00    +0.000 A 
ATOM     12  C   UNL     1     109.067 126.879 135.459  0.00  0.00    +0.000 A 
ATOM     13  C   UNL     1     108.688 127.437 135.991  0.00  0.00    +0.000 A 
BRANCH   6  16
ATOM     14  O   UNL     1     109.776 125.348 140.859  0.00  0.00    +0.000 OA
ATOM     15  O   UNL     1     110.981 126.325 141.422  0.00  0.00    +0.000 OA
ATOM     16  C   UNL     1     110.408 126.328 139.015  0.00  0.00    +0.000 A 
ATOM     17  C   UNL     1     111.010 126.817 139.295  0.00  0.00    +0.000 A 
ATOM     18  C   UNL     1     109.996 125.839 139.536  0.00  0.00    +0.000 A 
ATOM     19  C   UNL     1     111.201 126.815 140.098  0.00  0.00    +0.000 A 
ATOM     20  C   UNL     1     110.188 125.838 140.338  0.00  0.00    +0.000 A 
ATOM     21  C   UNL     1     110.789 126.326 140.619  0.00  0.00    +0.000 A 
BRANCH  19  22
ATOM     22  O   UNL     1     111.804 127.304 140.379  0.00  0.00    +0.000 OA
ATOM     23  C   UNL     1     111.869 128.079 140.103  0.00  0.00    +0.000 C 
ENDBRANCH  19  22
ENDBRANCH   6  16
ENDBRANCH   1   5
BRANCH   1  32
ATOM     24  O   UNL     1     112.275 125.673 137.239  0.00  0.00    +0.000 OA
ATOM     25  O   UNL     1     113.807 124.512 136.204  0.00  0.00    +0.000 OA
ATOM     26  O   UNL     1     112.862 123.306 136.817  0.00  0.00    +0.000 OA
ATOM     27  O   UNL     1     111.526 123.678 137.711  0.00  0.00    +0.000 OA
ATOM     28  C   UNL     1     113.139 124.699 136.651  0.00  0.00    +0.000 C 
ATOM     29  C   UNL     1     112.666 124.095 136.958  0.00  0.00    +0.000 C 
ATOM     30  C   UNL     1     112.944 125.488 136.792  0.00  0.00    +0.000 C 
ATOM     31  C   UNL     1     111.999 124.282 137.404  0.00  0.00    +0.000 C 
ATOM     32  C   UNL     1     111.803 125.071 137.545  0.00  0.00    +0.000 C 
BRANCH  30  33
ATOM     33  C   UNL     1     113.416 126.090 136.485  0.00  0.00    +0.000 C 
BRANCH  33  34
ATOM     34  O   UNL     1     113.387 126.846 136.815  0.00  0.00    +0.000 OA
BRANCH  34  36
ATOM     35  O   UNL     1     114.303 127.659 136.080  0.00  0.00    +0.000 OA
ATOM     36  C   UNL     1     113.537 127.507 136.346  0.00  0.00    +0.000 C 
BRANCH  36  37
ATOM     37  C   UNL     1     112.921 128.018 136.143  0.00  0.00    +0.000 C 
ATOM     38  C   UNL     1     112.843 128.744 136.525  0.00  0.00    +0.000 C 
BRANCH  38  40
ATOM     39  O   UNL     1     110.381 130.786 135.715  0.00  0.00    +0.000 OA
ATOM     40  C   UNL     1     112.228 129.254 136.322  0.00  0.00    +0.000 A 
ATOM     41  C   UNL     1     111.855 129.703 136.905  0.00  0.00    +0.000 A 
ATOM     42  C   UNL     1     111.984 129.316 135.537  0.00  0.00    +0.000 A 
ATOM     43  C   UNL     1     111.240 130.214 136.703  0.00  0.00    +0.000 A 
ATOM     44  C   UNL     1     111.369 129.826 135.334  0.00  0.00    +0.000 A 
ATOM     45  C   UNL     1     110.997 130.275 135.918  0.00  0.00    +0.000 A 
ENDBRANCH  38  40
ENDBRANCH  36  37
ENDBRANCH  34  36
ENDBRANCH  33  34
ENDBRANCH  30  33
ENDBRANCH   1  32
TORSDOF 9
ENDMDL
MODEL 8
REMARK VINA RESULT:      -9.2      1.840      4.278
REMARK  Name = 157009725
REMARK  9 active torsions:
REMARK  status: ('A' for Active; 'I' for Inactive)
REMARK    1  A    between atoms: O_2  and  C_19
REMARK    2  A    between atoms: O_2  and  C_21
REMARK    3  A    between atoms: O_6  and  C_20
REMARK    4  A    between atoms: O_6  and  C_25
REMARK    5  A    between atoms: O_10  and  C_35
REMARK    6  A    between atoms: C_17  and  C_20
REMARK    7  A    between atoms: C_22  and  C_26
REMARK    8  A    between atoms: C_25  and  C_32
REMARK    9  A    between atoms: C_38  and  C_39
REMARK                            x       y       z     vdW  Elec       q    Type
REMARK                         _______ _______ _______ _____ _____    ______ ____
ROOT
ATOM      1  O   UNL     1     110.771 130.353 137.487  0.00  0.00    +0.000 OA
ENDROOT
BRANCH   1   5
ATOM      2  O   UNL     1     112.388 128.926 137.825  0.00  0.00    +0.000 OA
ATOM      3  O   UNL     1     112.186 129.477 134.996  0.00  0.00    +0.000 OA
ATOM      4  O   UNL     1     114.213 127.615 135.972  0.00  0.00    +0.000 OA
ATOM      5  C   UNL     1     111.398 129.837 137.342  0.00  0.00    +0.000 A 
ATOM      6  C   UNL     1     111.761 129.443 137.969  0.00  0.00    +0.000 A 
ATOM      7  C   UNL     1     111.663 129.714 136.570  0.00  0.00    +0.000 A 
ATOM      8  C   UNL     1     112.290 129.198 136.425  0.00  0.00    +0.000 A 
ATOM      9  C   UNL     1     112.652 128.804 137.053  0.00  0.00    +0.000 A 
ATOM     10  C   UNL     1     112.555 129.079 135.617  0.00  0.00    +0.000 A 
ATOM     11  C   UNL     1     113.306 128.264 136.916  0.00  0.00    +0.000 A 
ATOM     12  C   UNL     1     113.208 128.542 135.460  0.00  0.00    +0.000 A 
ATOM     13  C   UNL     1     113.586 128.132 136.114  0.00  0.00    +0.000 A 
BRANCH   6  16
ATOM     14  O   UNL     1     111.669 131.055 140.327  0.00  0.00    +0.000 OA
ATOM     15  O   UNL     1     110.704 129.932 141.057  0.00  0.00    +0.000 OA
ATOM     16  C   UNL     1     111.497 129.565 138.742  0.00  0.00    +0.000 A 
ATOM     17  C   UNL     1     111.014 129.004 139.106  0.00  0.00    +0.000 A 
ATOM     18  C   UNL     1     111.715 130.249 139.149  0.00  0.00    +0.000 A 
ATOM     19  C   UNL     1     110.750 129.127 139.877  0.00  0.00    +0.000 A 
ATOM     20  C   UNL     1     111.451 130.371 139.920  0.00  0.00    +0.000 A 
ATOM     21  C   UNL     1     110.969 129.811 140.285  0.00  0.00    +0.000 A 
BRANCH  19  22
ATOM     22  O   UNL     1     110.268 128.565 140.242  0.00  0.00    +0.000 OA
ATOM     23  C   UNL     1     109.723 128.136 139.795  0.00  0.00    +0.000 C 
ENDBRANCH  19  22
ENDBRANCH   6  16
ENDBRANCH   1   5
BRANCH   1  32
ATOM     24  O   UNL     1     109.751 129.705 136.724  0.00  0.00    +0.000 OA
ATOM     25  O   UNL     1     108.249 130.518 135.365  0.00  0.00    +0.000 OA
ATOM     26  O   UNL     1     109.028 131.897 135.829  0.00  0.00    +0.000 OA
ATOM     27  O   UNL     1     110.289 131.814 136.890  0.00  0.00    +0.000 OA
ATOM     28  C   UNL     1     108.879 130.476 135.895  0.00  0.00    +0.000 C 
ATOM     29  C   UNL     1     109.269 131.166 136.127  0.00  0.00    +0.000 C 
ATOM     30  C   UNL     1     109.120 129.746 136.193  0.00  0.00    +0.000 C 
ATOM     31  C   UNL     1     109.899 131.124 136.658  0.00  0.00    +0.000 C 
ATOM     32  C   UNL     1     110.140 130.394 136.956  0.00  0.00    +0.000 C 
BRANCH  30  33
ATOM     33  C   UNL     1     108.731 129.057 135.961  0.00  0.00    +0.000 C 
BRANCH  33  34
ATOM     34  O   UNL     1     108.784 128.376 136.424  0.00  0.00    +0.000 OA
BRANCH  34  36
ATOM     35  O   UNL     1     107.967 127.373 135.819  0.00  0.00    +0.000 OA
ATOM     36  C   UNL     1     108.706 127.633 136.076  0.00  0.00    +0.000 C 
BRANCH  36  37
ATOM     37  C   UNL     1     109.368 127.148 135.984  0.00  0.00    +0.000 C 
ATOM     38  C   UNL     1     109.479 126.502 136.484  0.00  0.00    +0.000 C 
BRANCH  38  40
ATOM     39  O   UNL     1     112.126 124.565 136.118  0.00  0.00    +0.000 OA
ATOM     40  C   UNL     1     110.141 126.018 136.392  0.00  0.00    +0.000 A 
ATOM     41  C   UNL     1     110.574 125.782 137.053  0.00  0.00    +0.000 A 
ATOM     42  C   UNL     1     110.369 125.769 135.640  0.00  0.00    +0.000 A 
ATOM     43  C   UNL     1     111.236 125.298 136.962  0.00  0.00    +0.000 A 
ATOM     44  C   UNL     1     111.030 125.285 135.548  0.00  0.00    +0.000 A 
ATOM     45  C   UNL     1     111.464 125.050 136.209  0.00  0.00    +0.000 A 
ENDBRANCH  38  40
ENDBRANCH  36  37
ENDBRANCH  34  36
ENDBRANCH  33  34
ENDBRANCH  30  33
ENDBRANCH   1  32
TORSDOF 9
ENDMDL
MODEL 9
REMARK VINA RESULT:      -9.1      1.910      4.573
REMARK  Name = 157009725
REMARK  9 active torsions:
REMARK  status: ('A' for Active; 'I' for Inactive)
REMARK    1  A    between atoms: O_2  and  C_19
REMARK    2  A    between atoms: O_2  and  C_21
REMARK    3  A    between atoms: O_6  and  C_20
REMARK    4  A    between atoms: O_6  and  C_25
REMARK    5  A    between atoms: O_10  and  C_35
REMARK    6  A    between atoms: C_17  and  C_20
REMARK    7  A    between atoms: C_22  and  C_26
REMARK    8  A    between atoms: C_25  and  C_32
REMARK    9  A    between atoms: C_38  and  C_39
REMARK                            x       y       z     vdW  Elec       q    Type
REMARK                         _______ _______ _______ _____ _____    ______ ____
ROOT
ATOM      1  O   UNL     1     110.240 129.711 136.890  0.00  0.00    +0.000 OA
ENDROOT
BRANCH   1   5
ATOM      2  O   UNL     1     112.372 130.140 137.080  0.00  0.00    +0.000 OA
ATOM      3  O   UNL     1     111.933 128.550 134.708  0.00  0.00    +0.000 OA
ATOM      4  O   UNL     1     114.640 129.392 135.413  0.00  0.00    +0.000 OA
ATOM      5  C   UNL     1     111.049 129.726 136.731  0.00  0.00    +0.000 A 
ATOM      6  C   UNL     1     111.562 130.126 137.239  0.00  0.00    +0.000 A 
ATOM      7  C   UNL     1     111.347 129.339 136.065  0.00  0.00    +0.000 A 
ATOM      8  C   UNL     1     112.156 129.354 135.907  0.00  0.00    +0.000 A 
ATOM      9  C   UNL     1     112.669 129.754 136.415  0.00  0.00    +0.000 A 
ATOM     10  C   UNL     1     112.453 128.948 135.210  0.00  0.00    +0.000 A 
ATOM     11  C   UNL     1     113.513 129.776 136.261  0.00  0.00    +0.000 A 
ATOM     12  C   UNL     1     113.295 128.959 135.040  0.00  0.00    +0.000 A 
ATOM     13  C   UNL     1     113.830 129.376 135.569  0.00  0.00    +0.000 A 
BRANCH   6  16
ATOM     14  O   UNL     1     110.983 130.143 140.037  0.00  0.00    +0.000 OA
ATOM     15  O   UNL     1     110.374 131.670 139.902  0.00  0.00    +0.000 OA
ATOM     16  C   UNL     1     111.265 130.512 137.905  0.00  0.00    +0.000 A 
ATOM     17  C   UNL     1     110.960 131.275 137.837  0.00  0.00    +0.000 A 
ATOM     18  C   UNL     1     111.273 130.134 138.639  0.00  0.00    +0.000 A 
ATOM     19  C   UNL     1     110.663 131.661 138.503  0.00  0.00    +0.000 A 
ATOM     20  C   UNL     1     110.976 130.520 139.304  0.00  0.00    +0.000 A 
ATOM     21  C   UNL     1     110.671 131.283 139.236  0.00  0.00    +0.000 A 
BRANCH  19  22
ATOM     22  O   UNL     1     110.358 132.425 138.435  0.00  0.00    +0.000 OA
ATOM     23  C   UNL     1     110.381 132.815 137.708  0.00  0.00    +0.000 C 
ENDBRANCH  19  22
ENDBRANCH   6  16
ENDBRANCH   1   5
BRANCH   1  32
ATOM     24  O   UNL     1     110.036 128.301 136.998  0.00  0.00    +0.000 OA
ATOM     25  O   UNL     1     108.469 127.017 136.185  0.00  0.00    +0.000 OA
ATOM     26  O   UNL     1     107.991 128.490 135.616  0.00  0.00    +0.000 OA
ATOM     27  O   UNL     1     108.877 129.838 135.969  0.00  0.00    +0.000 OA
ATOM     28  C   UNL     1     108.912 127.690 136.362  0.00  0.00    +0.000 C 
ATOM     29  C   UNL     1     108.673 128.427 136.077  0.00  0.00    +0.000 C 
ATOM     30  C   UNL     1     109.594 127.627 136.822  0.00  0.00    +0.000 C 
ATOM     31  C   UNL     1     109.116 129.100 136.253  0.00  0.00    +0.000 C 
ATOM     32  C   UNL     1     109.798 129.037 136.714  0.00  0.00    +0.000 C 
BRANCH  30  33
ATOM     33  C   UNL     1     109.832 126.891 137.106  0.00  0.00    +0.000 C 
BRANCH  33  34
ATOM     34  O   UNL     1     110.519 126.825 137.559  0.00  0.00    +0.000 OA
BRANCH  34  36
ATOM     35  O   UNL     1     110.535 125.527 138.155  0.00  0.00    +0.000 OA
ATOM     36  C   UNL     1     110.879 126.090 137.660  0.00  0.00    +0.000 C 
BRANCH  36  37
ATOM     37  C   UNL     1     111.583 125.917 137.265  0.00  0.00    +0.000 C 
ATOM     38  C   UNL     1     112.276 125.794 137.694  0.00  0.00    +0.000 C 
BRANCH  38  40
ATOM     39  O   UNL     1     115.090 125.099 136.116  0.00  0.00    +0.000 OA
ATOM     40  C   UNL     1     112.980 125.620 137.299  0.00  0.00    +0.000 A 
ATOM     41  C   UNL     1     113.023 124.963 136.803  0.00  0.00    +0.000 A 
ATOM     42  C   UNL     1     113.640 126.104 137.401  0.00  0.00    +0.000 A 
ATOM     43  C   UNL     1     113.726 124.789 136.408  0.00  0.00    +0.000 A 
ATOM     44  C   UNL     1     114.343 125.930 137.007  0.00  0.00    +0.000 A 
ATOM     45  C   UNL     1     114.386 125.273 136.511  0.00  0.00    +0.000 A 
ENDBRANCH  38  40
ENDBRANCH  36  37
ENDBRANCH  34  36
ENDBRANCH  33  34
ENDBRANCH  30  33
ENDBRANCH   1  32
TORSDOF 9
ENDMDL
MODEL 10
REMARK VINA RESULT:      -9.1      1.202      3.297
REMARK  Name = 157009725
REMARK  9 active torsions:
REMARK  status: ('A' for Active; 'I' for Inactive)
REMARK    1  A    between atoms: O_2  and  C_19
REMARK    2  A    between atoms: O_2  and  C_21
REMARK    3  A    between atoms: O_6  and  C_20
REMARK    4  A    between atoms: O_6  and  C_25
REMARK    5  A    between atoms: O_10  and  C_35
REMARK    6  A    between atoms: C_17  and  C_20
REMARK    7  A    between atoms: C_22  and  C_26
REMARK    8  A    between atoms: C_25  and  C_32
REMARK    9  A    between atoms: C_38  and  C_39
REMARK                            x       y       z     vdW  Elec       q    Type
REMARK                         _______ _______ _______ _____ _____    ______ ____
ROOT
ATOM      1  O   UNL     1     113.191 126.652 138.264  0.00  0.00    +0.000 OA
ENDROOT
BRANCH   1   5
ATOM      2  O   UNL     1     113.188 127.328 136.188  0.00  0.00    +0.000 OA
ATOM      3  O   UNL     1     113.616 129.598 137.923  0.00  0.00    +0.000 OA
ATOM      4  O   UNL     1     113.527 129.978 135.029  0.00  0.00    +0.000 OA
ATOM      5  C   UNL     1     113.232 127.147 137.605  0.00  0.00    +0.000 A 
ATOM      6  C   UNL     1     113.147 126.833 136.847  0.00  0.00    +0.000 A 
ATOM      7  C   UNL     1     113.359 127.957 137.704  0.00  0.00    +0.000 A 
ATOM      8  C   UNL     1     113.400 128.451 137.045  0.00  0.00    +0.000 A 
ATOM      9  C   UNL     1     113.314 128.137 136.287  0.00  0.00    +0.000 A 
ATOM     10  C   UNL     1     113.532 129.293 137.162  0.00  0.00    +0.000 A 
ATOM     11  C   UNL     1     113.355 128.642 135.594  0.00  0.00    +0.000 A 
ATOM     12  C   UNL     1     113.575 129.813 136.480  0.00  0.00    +0.000 A 
ATOM     13  C   UNL     1     113.486 129.486 135.690  0.00  0.00    +0.000 A 
BRANCH   6  16
ATOM     14  O   UNL     1     114.160 124.162 136.755  0.00  0.00    +0.000 OA
ATOM     15  O   UNL     1     112.641 123.596 136.450  0.00  0.00    +0.000 OA
ATOM     16  C   UNL     1     113.020 126.023 136.747  0.00  0.00    +0.000 A 
ATOM     17  C   UNL     1     112.260 125.741 136.595  0.00  0.00    +0.000 A 
ATOM     18  C   UNL     1     113.654 125.497 136.801  0.00  0.00    +0.000 A 
ATOM     19  C   UNL     1     112.135 124.932 136.496  0.00  0.00    +0.000 A 
ATOM     20  C   UNL     1     113.527 124.689 136.702  0.00  0.00    +0.000 A 
ATOM     21  C   UNL     1     112.768 124.405 136.549  0.00  0.00    +0.000 A 
BRANCH  19  22
ATOM     22  O   UNL     1     111.374 124.648 136.344  0.00  0.00    +0.000 OA
ATOM     23  C   UNL     1     110.812 125.142 135.997  0.00  0.00    +0.000 C 
ENDBRANCH  19  22
ENDBRANCH   6  16
ENDBRANCH   1   5
BRANCH   1  32
ATOM     24  O   UNL     1     112.049 127.222 138.905  0.00  0.00    +0.000 OA
ATOM     25  O   UNL     1     111.668 127.678 141.005  0.00  0.00    +0.000 OA
ATOM     26  O   UNL     1     113.191 127.050 141.094  0.00  0.00    +0.000 OA
ATOM     27  O   UNL     1     113.953 126.537 139.723  0.00  0.00    +0.000 OA
ATOM     28  C   UNL     1     112.048 127.422 140.320  0.00  0.00    +0.000 C 
ATOM     29  C   UNL     1     112.811 127.108 140.364  0.00  0.00    +0.000 C 
ATOM     30  C   UNL     1     111.667 127.479 139.590  0.00  0.00    +0.000 C 
ATOM     31  C   UNL     1     113.191 126.851 139.678  0.00  0.00    +0.000 C 
ATOM     32  C   UNL     1     112.810 126.909 138.949  0.00  0.00    +0.000 C 
BRANCH  30  33
ATOM     33  C   UNL     1     110.906 127.793 139.546  0.00  0.00    +0.000 C 
BRANCH  33  34
ATOM     34  O   UNL     1     110.432 127.637 138.889  0.00  0.00    +0.000 OA
BRANCH  34  36
ATOM     35  O   UNL     1     109.170 128.270 139.103  0.00  0.00    +0.000 OA
ATOM     36  C   UNL     1     109.858 128.180 138.656  0.00  0.00    +0.000 C 
BRANCH  36  37
ATOM     37  C   UNL     1     109.970 128.634 137.976  0.00  0.00    +0.000 C 
ATOM     38  C   UNL     1     109.466 128.542 137.330  0.00  0.00    +0.000 C 
BRANCH  38  40
ATOM     39  O   UNL     1     109.915 130.359 134.612  0.00  0.00    +0.000 OA
ATOM     40  C   UNL     1     109.579 128.995 136.650  0.00  0.00    +0.000 A 
ATOM     41  C   UNL     1     109.642 129.816 136.708  0.00  0.00    +0.000 A 
ATOM     42  C   UNL     1     109.628 128.630 135.913  0.00  0.00    +0.000 A 
ATOM     43  C   UNL     1     109.754 130.271 136.029  0.00  0.00    +0.000 A 
ATOM     44  C   UNL     1     109.740 129.084 135.234  0.00  0.00    +0.000 A 
ATOM     45  C   UNL     1     109.803 129.904 135.292  0.00  0.00    +0.000 A 
ENDBRANCH  38  40
ENDBRANCH  36  37
ENDBRANCH  34  36
ENDBRANCH  33  34
ENDBRANCH  30  33
ENDBRANCH   1  32
TORSDOF 9
ENDMDL
