MODEL 1
REMARK VINA RESULT:     -10.7      0.000      0.000
REMARK  Name = 44259090
REMARK  3 active torsions:
REMARK  status: ('A' for Active; 'I' for Inactive)
REMARK    1  A    between atoms: C_15  and  C_18
REMARK    2  A    between atoms: C_17  and  C_19
REMARK    3  A    between atoms: C_27  and  C_28
REMARK                            x       y       z     vdW  Elec       q    Type
REMARK                         _______ _______ _______ _____ _____    ______ ____
ROOT
ATOM      1  O   UNL     1     106.133 124.448 141.568  0.00  0.00    +0.000 OA
ATOM      2  O   UNL     1     105.162 127.098 141.117  0.00  0.00    +0.000 OA
ATOM      3  O   UNL     1     104.296 124.959 139.392  0.00  0.00    +0.000 OA
ATOM      4  O   UNL     1     105.724 123.351 140.727  0.00  0.00    +0.000 OA
ATOM      5  O   UNL     1     104.822 122.783 139.416  0.00  0.00    +0.000 OA
ATOM      6  C   UNL     1     105.648 125.773 141.343  0.00  0.00    +0.000 A 
ATOM      7  C   UNL     1     105.669 124.975 141.135  0.00  0.00    +0.000 A 
ATOM      8  C   UNL     1     105.184 126.300 140.910  0.00  0.00    +0.000 A 
ATOM      9  C   UNL     1     105.227 124.704 140.495  0.00  0.00    +0.000 A 
ATOM     10  C   UNL     1     104.740 126.028 140.269  0.00  0.00    +0.000 A 
ATOM     11  C   UNL     1     104.762 125.230 140.062  0.00  0.00    +0.000 A 
ATOM     12  C   UNL     1     105.257 123.870 140.288  0.00  0.00    +0.000 A 
ATOM     13  C   UNL     1     104.798 123.581 139.622  0.00  0.00    +0.000 A 
ATOM     14  C   UNL     1     104.315 124.130 139.171  0.00  0.00    +0.000 A 
ENDROOT
BRANCH   6  21
ATOM     15  O   UNL     1     105.766 126.040 142.742  0.00  0.00    +0.000 OA
ATOM     16  O   UNL     1     107.184 126.328 141.109  0.00  0.00    +0.000 OA
ATOM     17  O   UNL     1     108.070 126.871 142.390  0.00  0.00    +0.000 OA
ATOM     18  O   UNL     1     107.420 126.860 143.906  0.00  0.00    +0.000 OA
ATOM     19  C   UNL     1     106.859 126.322 141.866  0.00  0.00    +0.000 C 
ATOM     20  C   UNL     1     107.302 126.594 142.508  0.00  0.00    +0.000 C 
ATOM     21  C   UNL     1     106.090 126.045 141.984  0.00  0.00    +0.000 C 
ATOM     22  C   UNL     1     106.976 126.588 143.265  0.00  0.00    +0.000 C 
ATOM     23  C   UNL     1     106.208 126.311 143.383  0.00  0.00    +0.000 C 
BRANCH  23  25
ATOM     24  O   UNL     1     105.156 125.941 144.276  0.00  0.00    +0.000 OA
ATOM     25  C   UNL     1     105.883 126.306 144.140  0.00  0.00    +0.000 C 
ENDBRANCH  23  25
ENDBRANCH   6  21
BRANCH  14  28
ATOM     26  O   UNL     1     101.787 123.462 138.014  0.00  0.00    +0.000 OA
ATOM     27  O   UNL     1     102.539 123.057 136.603  0.00  0.00    +0.000 OA
ATOM     28  C   UNL     1     103.870 123.861 138.529  0.00  0.00    +0.000 A 
ATOM     29  C   UNL     1     103.050 123.796 138.592  0.00  0.00    +0.000 A 
ATOM     30  C   UNL     1     104.247 123.659 137.823  0.00  0.00    +0.000 A 
ATOM     31  C   UNL     1     102.607 123.528 137.950  0.00  0.00    +0.000 A 
ATOM     32  C   UNL     1     103.804 123.391 137.181  0.00  0.00    +0.000 A 
ATOM     33  C   UNL     1     102.984 123.325 137.245  0.00  0.00    +0.000 A 
ENDBRANCH  14  28
TORSDOF 3
ENDMDL
MODEL 2
REMARK VINA RESULT:      -9.9      4.248      6.009
REMARK  Name = 44259090
REMARK  3 active torsions:
REMARK  status: ('A' for Active; 'I' for Inactive)
REMARK    1  A    between atoms: C_15  and  C_18
REMARK    2  A    between atoms: C_17  and  C_19
REMARK    3  A    between atoms: C_27  and  C_28
REMARK                            x       y       z     vdW  Elec       q    Type
REMARK                         _______ _______ _______ _____ _____    ______ ____
ROOT
ATOM      1  O   UNL     1     106.478 124.769 145.933  0.00  0.00    +0.000 OA
ATOM      2  O   UNL     1     106.787 127.128 147.516  0.00  0.00    +0.000 OA
ATOM      3  O   UNL     1     106.193 127.375 144.708  0.00  0.00    +0.000 OA
ATOM      4  O   UNL     1     106.180 124.850 144.524  0.00  0.00    +0.000 OA
ATOM      5  O   UNL     1     105.882 125.793 143.154  0.00  0.00    +0.000 OA
ATOM      6  C   UNL     1     106.632 125.948 146.725  0.00  0.00    +0.000 A 
ATOM      7  C   UNL     1     106.483 125.592 145.996  0.00  0.00    +0.000 A 
ATOM      8  C   UNL     1     106.637 126.771 146.788  0.00  0.00    +0.000 A 
ATOM      9  C   UNL     1     106.338 126.057 145.331  0.00  0.00    +0.000 A 
ATOM     10  C   UNL     1     106.492 127.237 146.122  0.00  0.00    +0.000 A 
ATOM     11  C   UNL     1     106.343 126.879 145.394  0.00  0.00    +0.000 A 
ATOM     12  C   UNL     1     106.183 125.673 144.577  0.00  0.00    +0.000 A 
ATOM     13  C   UNL     1     106.032 126.152 143.881  0.00  0.00    +0.000 A 
ATOM     14  C   UNL     1     106.037 127.009 143.946  0.00  0.00    +0.000 A 
ENDROOT
BRANCH   6  21
ATOM     15  O   UNL     1     106.147 125.198 147.840  0.00  0.00    +0.000 OA
ATOM     16  O   UNL     1     108.183 125.587 147.158  0.00  0.00    +0.000 OA
ATOM     17  O   UNL     1     108.473 124.657 148.489  0.00  0.00    +0.000 OA
ATOM     18  O   UNL     1     107.213 124.087 149.387  0.00  0.00    +0.000 OA
ATOM     19  C   UNL     1     107.552 125.303 147.606  0.00  0.00    +0.000 C 
ATOM     20  C   UNL     1     107.698 124.837 148.273  0.00  0.00    +0.000 C 
ATOM     21  C   UNL     1     106.777 125.483 147.390  0.00  0.00    +0.000 C 
ATOM     22  C   UNL     1     107.067 124.553 148.722  0.00  0.00    +0.000 C 
ATOM     23  C   UNL     1     106.292 124.733 148.505  0.00  0.00    +0.000 C 
BRANCH  23  25
ATOM     24  O   UNL     1     104.919 124.803 148.897  0.00  0.00    +0.000 OA
ATOM     25  C   UNL     1     105.662 124.448 148.954  0.00  0.00    +0.000 C 
ENDBRANCH  23  25
ENDBRANCH   6  21
BRANCH  14  28
ATOM     26  O   UNL     1     106.989 128.363 141.616  0.00  0.00    +0.000 OA
ATOM     27  O   UNL     1     105.457 128.884 141.292  0.00  0.00    +0.000 OA
ATOM     28  C   UNL     1     105.892 127.478 143.283  0.00  0.00    +0.000 A 
ATOM     29  C   UNL     1     106.513 127.686 142.781  0.00  0.00    +0.000 A 
ATOM     30  C   UNL     1     105.126 127.738 143.121  0.00  0.00    +0.000 A 
ATOM     31  C   UNL     1     106.368 128.155 142.118  0.00  0.00    +0.000 A 
ATOM     32  C   UNL     1     104.981 128.206 142.458  0.00  0.00    +0.000 A 
ATOM     33  C   UNL     1     105.602 128.415 141.956  0.00  0.00    +0.000 A 
ENDBRANCH  14  28
TORSDOF 3
ENDMDL
MODEL 3
REMARK VINA RESULT:      -9.8      7.791      8.965
REMARK  Name = 44259090
REMARK  3 active torsions:
REMARK  status: ('A' for Active; 'I' for Inactive)
REMARK    1  A    between atoms: C_15  and  C_18
REMARK    2  A    between atoms: C_17  and  C_19
REMARK    3  A    between atoms: C_27  and  C_28
REMARK                            x       y       z     vdW  Elec       q    Type
REMARK                         _______ _______ _______ _____ _____    ______ ____
ROOT
ATOM      1  O   UNL     1     112.926 129.177 139.026  0.00  0.00    +0.000 OA
ATOM      2  O   UNL     1     114.171 127.787 141.191  0.00  0.00    +0.000 OA
ATOM      3  O   UNL     1     113.376 126.325 138.839  0.00  0.00    +0.000 OA
ATOM      4  O   UNL     1     112.513 128.482 137.832  0.00  0.00    +0.000 OA
ATOM      5  O   UNL     1     112.387 127.039 136.961  0.00  0.00    +0.000 OA
ATOM      6  C   UNL     1     113.549 128.483 140.108  0.00  0.00    +0.000 A 
ATOM      7  C   UNL     1     113.208 128.476 139.357  0.00  0.00    +0.000 A 
ATOM      8  C   UNL     1     113.831 127.782 140.439  0.00  0.00    +0.000 A 
ATOM      9  C   UNL     1     113.149 127.769 138.937  0.00  0.00    +0.000 A 
ATOM     10  C   UNL     1     113.772 127.074 140.019  0.00  0.00    +0.000 A 
ATOM     11  C   UNL     1     113.431 127.068 139.268  0.00  0.00    +0.000 A 
ATOM     12  C   UNL     1     112.792 127.776 138.154  0.00  0.00    +0.000 A 
ATOM     13  C   UNL     1     112.729 127.042 137.712  0.00  0.00    +0.000 A 
ATOM     14  C   UNL     1     113.022 126.312 138.057  0.00  0.00    +0.000 A 
ENDROOT
BRANCH   6  21
ATOM     15  O   UNL     1     114.250 129.693 140.404  0.00  0.00    +0.000 OA
ATOM     16  O   UNL     1     112.382 128.892 141.201  0.00  0.00    +0.000 OA
ATOM     17  O   UNL     1     112.499 130.307 142.042  0.00  0.00    +0.000 OA
ATOM     18  O   UNL     1     113.783 131.311 141.791  0.00  0.00    +0.000 OA
ATOM     19  C   UNL     1     113.024 129.394 141.075  0.00  0.00    +0.000 C 
ATOM     20  C   UNL     1     113.083 130.102 141.496  0.00  0.00    +0.000 C 
ATOM     21  C   UNL     1     113.608 129.190 140.529  0.00  0.00    +0.000 C 
ATOM     22  C   UNL     1     113.725 130.604 141.370  0.00  0.00    +0.000 C 
ATOM     23  C   UNL     1     114.308 130.399 140.824  0.00  0.00    +0.000 C 
BRANCH  23  25
ATOM     24  O   UNL     1     115.710 130.590 140.621  0.00  0.00    +0.000 OA
ATOM     25  C   UNL     1     114.950 130.902 140.699  0.00  0.00    +0.000 C 
ENDBRANCH  23  25
ENDBRANCH   6  21
BRANCH  14  28
ATOM     26  O   UNL     1     111.546 123.971 137.342  0.00  0.00    +0.000 OA
ATOM     27  O   UNL     1     112.795 123.475 136.385  0.00  0.00    +0.000 OA
ATOM     28  C   UNL     1     112.965 125.602 137.639  0.00  0.00    +0.000 A 
ATOM     29  C   UNL     1     112.284 125.141 137.699  0.00  0.00    +0.000 A 
ATOM     30  C   UNL     1     113.590 125.355 137.160  0.00  0.00    +0.000 A 
ATOM     31  C   UNL     1     112.227 124.432 137.281  0.00  0.00    +0.000 A 
ATOM     32  C   UNL     1     113.534 124.646 136.742  0.00  0.00    +0.000 A 
ATOM     33  C   UNL     1     112.852 124.184 136.803  0.00  0.00    +0.000 A 
ENDBRANCH  14  28
TORSDOF 3
ENDMDL
MODEL 4
REMARK VINA RESULT:      -9.8      2.779      6.502
REMARK  Name = 44259090
REMARK  3 active torsions:
REMARK  status: ('A' for Active; 'I' for Inactive)
REMARK    1  A    between atoms: C_15  and  C_18
REMARK    2  A    between atoms: C_17  and  C_19
REMARK    3  A    between atoms: C_27  and  C_28
REMARK                            x       y       z     vdW  Elec       q    Type
REMARK                         _______ _______ _______ _____ _____    ______ ____
ROOT
ATOM      1  O   UNL     1     105.218 124.305 143.375  0.00  0.00    +0.000 OA
ATOM      2  O   UNL     1     107.012 126.528 143.452  0.00  0.00    +0.000 OA
ATOM      3  O   UNL     1     105.906 125.514 145.912  0.00  0.00    +0.000 OA
ATOM      4  O   UNL     1     104.643 123.768 144.583  0.00  0.00    +0.000 OA
ATOM      5  O   UNL     1     104.488 123.817 146.266  0.00  0.00    +0.000 OA
ATOM      6  C   UNL     1     106.115 125.416 143.413  0.00  0.00    +0.000 A 
ATOM      7  C   UNL     1     105.631 124.875 143.805  0.00  0.00    +0.000 A 
ATOM      8  C   UNL     1     106.528 125.986 143.843  0.00  0.00    +0.000 A 
ATOM      9  C   UNL     1     105.559 124.904 144.625  0.00  0.00    +0.000 A 
ATOM     10  C   UNL     1     106.456 126.016 144.665  0.00  0.00    +0.000 A 
ATOM     11  C   UNL     1     105.972 125.474 145.056  0.00  0.00    +0.000 A 
ATOM     12  C   UNL     1     105.052 124.334 145.022  0.00  0.00    +0.000 A 
ATOM     13  C   UNL     1     104.973 124.360 145.877  0.00  0.00    +0.000 A 
ATOM     14  C   UNL     1     105.403 124.953 146.325  0.00  0.00    +0.000 A 
ENDROOT
BRANCH   6  21
ATOM     15  O   UNL     1     106.697 124.842 142.240  0.00  0.00    +0.000 OA
ATOM     16  O   UNL     1     105.238 126.449 142.472  0.00  0.00    +0.000 OA
ATOM     17  O   UNL     1     105.381 126.392 140.829  0.00  0.00    +0.000 OA
ATOM     18  O   UNL     1     106.401 125.301 140.128  0.00  0.00    +0.000 OA
ATOM     19  C   UNL     1     105.748 125.904 142.121  0.00  0.00    +0.000 C 
ATOM     20  C   UNL     1     105.820 125.875 141.299  0.00  0.00    +0.000 C 
ATOM     21  C   UNL     1     106.187 125.387 142.592  0.00  0.00    +0.000 C 
ATOM     22  C   UNL     1     106.330 125.330 140.949  0.00  0.00    +0.000 C 
ATOM     23  C   UNL     1     106.768 124.813 141.420  0.00  0.00    +0.000 C 
BRANCH  23  25
ATOM     24  O   UNL     1     108.014 124.113 141.408  0.00  0.00    +0.000 OA
ATOM     25  C   UNL     1     107.278 124.268 141.069  0.00  0.00    +0.000 C 
ENDBRANCH  23  25
ENDBRANCH   6  21
BRANCH  14  28
ATOM     26  O   UNL     1     106.384 124.270 148.921  0.00  0.00    +0.000 OA
ATOM     27  O   UNL     1     105.125 125.082 149.611  0.00  0.00    +0.000 OA
ATOM     28  C   UNL     1     105.334 124.985 147.147  0.00  0.00    +0.000 A 
ATOM     29  C   UNL     1     105.894 124.612 147.623  0.00  0.00    +0.000 A 
ATOM     30  C   UNL     1     104.704 125.392 147.491  0.00  0.00    +0.000 A 
ATOM     31  C   UNL     1     105.824 124.644 148.445  0.00  0.00    +0.000 A 
ATOM     32  C   UNL     1     104.634 125.424 148.313  0.00  0.00    +0.000 A 
ATOM     33  C   UNL     1     105.194 125.050 148.789  0.00  0.00    +0.000 A 
ENDBRANCH  14  28
TORSDOF 3
ENDMDL
MODEL 5
REMARK VINA RESULT:      -9.7      3.554      5.532
REMARK  Name = 44259090
REMARK  3 active torsions:
REMARK  status: ('A' for Active; 'I' for Inactive)
REMARK    1  A    between atoms: C_15  and  C_18
REMARK    2  A    between atoms: C_17  and  C_19
REMARK    3  A    between atoms: C_27  and  C_28
REMARK                            x       y       z     vdW  Elec       q    Type
REMARK                         _______ _______ _______ _____ _____    ______ ____
ROOT
ATOM      1  O   UNL     1     104.729 127.417 141.033  0.00  0.00    +0.000 OA
ATOM      2  O   UNL     1     105.776 128.214 143.570  0.00  0.00    +0.000 OA
ATOM      3  O   UNL     1     103.778 129.845 142.286  0.00  0.00    +0.000 OA
ATOM      4  O   UNL     1     103.729 128.206 140.358  0.00  0.00    +0.000 OA
ATOM      5  O   UNL     1     102.728 129.567 140.328  0.00  0.00    +0.000 OA
ATOM      6  C   UNL     1     105.253 127.815 142.301  0.00  0.00    +0.000 A 
ATOM      7  C   UNL     1     104.748 127.949 141.663  0.00  0.00    +0.000 A 
ATOM      8  C   UNL     1     105.272 128.347 142.931  0.00  0.00    +0.000 A 
ATOM      9  C   UNL     1     104.262 128.615 141.654  0.00  0.00    +0.000 A 
ATOM     10  C   UNL     1     104.785 129.014 142.923  0.00  0.00    +0.000 A 
ATOM     11  C   UNL     1     104.280 129.147 142.284  0.00  0.00    +0.000 A 
ATOM     12  C   UNL     1     103.740 128.744 140.983  0.00  0.00    +0.000 A 
ATOM     13  C   UNL     1     103.231 129.436 140.968  0.00  0.00    +0.000 A 
ATOM     14  C   UNL     1     103.251 129.990 141.624  0.00  0.00    +0.000 A 
ENDROOT
BRANCH   6  21
ATOM     15  O   UNL     1     105.462 126.439 142.627  0.00  0.00    +0.000 OA
ATOM     16  O   UNL     1     106.782 127.901 141.686  0.00  0.00    +0.000 OA
ATOM     17  O   UNL     1     107.755 126.569 141.704  0.00  0.00    +0.000 OA
ATOM     18  O   UNL     1     107.199 125.151 142.336  0.00  0.00    +0.000 OA
ATOM     19  C   UNL     1     106.503 127.192 142.003  0.00  0.00    +0.000 C 
ATOM     20  C   UNL     1     106.990 126.525 142.011  0.00  0.00    +0.000 C 
ATOM     21  C   UNL     1     105.739 127.149 142.310  0.00  0.00    +0.000 C 
ATOM     22  C   UNL     1     106.712 125.816 142.328  0.00  0.00    +0.000 C 
ATOM     23  C   UNL     1     105.948 125.773 142.636  0.00  0.00    +0.000 C 
BRANCH  23  25
ATOM     24  O   UNL     1     105.280 125.060 143.679  0.00  0.00    +0.000 OA
ATOM     25  C   UNL     1     105.671 125.064 142.952  0.00  0.00    +0.000 C 
ENDBRANCH  23  25
ENDBRANCH   6  21
BRANCH  14  28
ATOM     26  O   UNL     1     102.869 132.770 141.080  0.00  0.00    +0.000 OA
ATOM     27  O   UNL     1     101.309 132.659 141.603  0.00  0.00    +0.000 OA
ATOM     28  C   UNL     1     102.765 130.658 141.619  0.00  0.00    +0.000 A 
ATOM     29  C   UNL     1     103.060 131.381 141.352  0.00  0.00    +0.000 A 
ATOM     30  C   UNL     1     101.985 130.602 141.881  0.00  0.00    +0.000 A 
ATOM     31  C   UNL     1     102.575 132.047 141.347  0.00  0.00    +0.000 A 
ATOM     32  C   UNL     1     101.500 131.269 141.876  0.00  0.00    +0.000 A 
ATOM     33  C   UNL     1     101.794 131.992 141.609  0.00  0.00    +0.000 A 
ENDBRANCH  14  28
TORSDOF 3
ENDMDL
MODEL 6
REMARK VINA RESULT:      -9.6      7.020      8.178
REMARK  Name = 44259090
REMARK  3 active torsions:
REMARK  status: ('A' for Active; 'I' for Inactive)
REMARK    1  A    between atoms: C_15  and  C_18
REMARK    2  A    between atoms: C_17  and  C_19
REMARK    3  A    between atoms: C_27  and  C_28
REMARK                            x       y       z     vdW  Elec       q    Type
REMARK                         _______ _______ _______ _____ _____    ______ ____
ROOT
ATOM      1  O   UNL     1     110.750 129.621 136.494  0.00  0.00    +0.000 OA
ATOM      2  O   UNL     1     108.092 128.761 135.891  0.00  0.00    +0.000 OA
ATOM      3  O   UNL     1     110.143 126.794 136.365  0.00  0.00    +0.000 OA
ATOM      4  O   UNL     1     111.805 128.668 136.738  0.00  0.00    +0.000 OA
ATOM      5  O   UNL     1     112.312 127.060 136.858  0.00  0.00    +0.000 OA
ATOM      6  C   UNL     1     109.421 129.191 136.192  0.00  0.00    +0.000 A 
ATOM      7  C   UNL     1     110.206 129.012 136.372  0.00  0.00    +0.000 A 
ATOM      8  C   UNL     1     108.877 128.583 136.070  0.00  0.00    +0.000 A 
ATOM      9  C   UNL     1     110.448 128.226 136.430  0.00  0.00    +0.000 A 
ATOM     10  C   UNL     1     109.119 127.796 136.128  0.00  0.00    +0.000 A 
ATOM     11  C   UNL     1     109.904 127.618 136.308  0.00  0.00    +0.000 A 
ATOM     12  C   UNL     1     111.269 128.053 136.617  0.00  0.00    +0.000 A 
ATOM     13  C   UNL     1     111.526 127.236 136.679  0.00  0.00    +0.000 A 
ATOM     14  C   UNL     1     110.960 126.602 136.552  0.00  0.00    +0.000 A 
ENDROOT
BRANCH   6  21
ATOM     15  O   UNL     1     108.928 130.383 136.808  0.00  0.00    +0.000 OA
ATOM     16  O   UNL     1     109.441 129.955 134.730  0.00  0.00    +0.000 OA
ATOM     17  O   UNL     1     108.958 131.529 134.614  0.00  0.00    +0.000 OA
ATOM     18  O   UNL     1     108.455 132.338 135.961  0.00  0.00    +0.000 OA
ATOM     19  C   UNL     1     109.190 130.359 135.404  0.00  0.00    +0.000 C 
ATOM     20  C   UNL     1     108.948 131.147 135.345  0.00  0.00    +0.000 C 
ATOM     21  C   UNL     1     109.180 129.978 136.135  0.00  0.00    +0.000 C 
ATOM     22  C   UNL     1     108.697 131.551 136.019  0.00  0.00    +0.000 C 
ATOM     23  C   UNL     1     108.687 131.169 136.750  0.00  0.00    +0.000 C 
BRANCH  23  25
ATOM     24  O   UNL     1     108.294 131.163 138.124  0.00  0.00    +0.000 OA
ATOM     25  C   UNL     1     108.435 131.574 137.423  0.00  0.00    +0.000 C 
ENDBRANCH  23  25
ENDBRANCH   6  21
BRANCH  14  28
ATOM     26  O   UNL     1     111.414 124.259 138.126  0.00  0.00    +0.000 OA
ATOM     27  O   UNL     1     111.912 123.450 136.777  0.00  0.00    +0.000 OA
ATOM     28  C   UNL     1     111.198 125.814 136.609  0.00  0.00    +0.000 A 
ATOM     29  C   UNL     1     111.187 125.431 137.339  0.00  0.00    +0.000 A 
ATOM     30  C   UNL     1     111.447 125.409 135.934  0.00  0.00    +0.000 A 
ATOM     31  C   UNL     1     111.425 124.643 137.395  0.00  0.00    +0.000 A 
ATOM     32  C   UNL     1     111.685 124.621 135.990  0.00  0.00    +0.000 A 
ATOM     33  C   UNL     1     111.674 124.238 136.721  0.00  0.00    +0.000 A 
ENDBRANCH  14  28
TORSDOF 3
ENDMDL
MODEL 7
REMARK VINA RESULT:      -9.6      7.558      8.651
REMARK  Name = 44259090
REMARK  3 active torsions:
REMARK  status: ('A' for Active; 'I' for Inactive)
REMARK    1  A    between atoms: C_15  and  C_18
REMARK    2  A    between atoms: C_17  and  C_19
REMARK    3  A    between atoms: C_27  and  C_28
REMARK                            x       y       z     vdW  Elec       q    Type
REMARK                         _______ _______ _______ _____ _____    ______ ____
ROOT
ATOM      1  O   UNL     1     111.963 126.890 137.300  0.00  0.00    +0.000 OA
ATOM      2  O   UNL     1     110.938 125.329 135.137  0.00  0.00    +0.000 OA
ATOM      3  O   UNL     1     110.080 128.063 135.441  0.00  0.00    +0.000 OA
ATOM      4  O   UNL     1     111.558 128.262 137.488  0.00  0.00    +0.000 OA
ATOM      5  O   UNL     1     110.643 129.589 136.980  0.00  0.00    +0.000 OA
ATOM      6  C   UNL     1     111.451 126.109 136.219  0.00  0.00    +0.000 A 
ATOM      7  C   UNL     1     111.482 126.822 136.633  0.00  0.00    +0.000 A 
ATOM      8  C   UNL     1     110.970 126.041 135.552  0.00  0.00    +0.000 A 
ATOM      9  C   UNL     1     111.033 127.466 136.381  0.00  0.00    +0.000 A 
ATOM     10  C   UNL     1     110.521 126.686 135.299  0.00  0.00    +0.000 A 
ATOM     11  C   UNL     1     110.553 127.398 135.714  0.00  0.00    +0.000 A 
ATOM     12  C   UNL     1     111.075 128.204 136.822  0.00  0.00    +0.000 A 
ATOM     13  C   UNL     1     110.610 128.878 136.564  0.00  0.00    +0.000 A 
ATOM     14  C   UNL     1     110.109 128.807 135.869  0.00  0.00    +0.000 A 
ENDROOT
BRANCH   6  21
ATOM     15  O   UNL     1     112.685 125.389 136.231  0.00  0.00    +0.000 OA
ATOM     16  O   UNL     1     110.777 124.971 137.205  0.00  0.00    +0.000 OA
ATOM     17  O   UNL     1     111.675 123.681 137.710  0.00  0.00    +0.000 OA
ATOM     18  O   UNL     1     113.245 123.531 137.229  0.00  0.00    +0.000 OA
ATOM     19  C   UNL     1     111.562 124.896 136.964  0.00  0.00    +0.000 C 
ATOM     20  C   UNL     1     112.011 124.251 137.217  0.00  0.00    +0.000 C 
ATOM     21  C   UNL     1     111.899 125.465 136.471  0.00  0.00    +0.000 C 
ATOM     22  C   UNL     1     112.797 124.176 136.976  0.00  0.00    +0.000 C 
ATOM     23  C   UNL     1     113.133 124.745 136.483  0.00  0.00    +0.000 C 
BRANCH  23  25
ATOM     24  O   UNL     1     114.385 125.342 136.136  0.00  0.00    +0.000 OA
ATOM     25  C   UNL     1     113.918 124.670 136.242  0.00  0.00    +0.000 C 
ENDBRANCH  23  25
ENDBRANCH   6  21
BRANCH  14  28
ATOM     26  O   UNL     1     107.686 130.322 135.950  0.00  0.00    +0.000 OA
ATOM     27  O   UNL     1     108.309 131.378 134.847  0.00  0.00    +0.000 OA
ATOM     28  C   UNL     1     109.659 129.450 135.614  0.00  0.00    +0.000 A 
ATOM     29  C   UNL     1     108.897 129.564 135.910  0.00  0.00    +0.000 A 
ATOM     30  C   UNL     1     109.971 129.978 135.062  0.00  0.00    +0.000 A 
ATOM     31  C   UNL     1     108.448 130.207 135.654  0.00  0.00    +0.000 A 
ATOM     32  C   UNL     1     109.521 130.621 134.806  0.00  0.00    +0.000 A 
ATOM     33  C   UNL     1     108.759 130.735 135.102  0.00  0.00    +0.000 A 
ENDBRANCH  14  28
TORSDOF 3
ENDMDL
MODEL 8
REMARK VINA RESULT:      -9.5      7.111      8.774
REMARK  Name = 44259090
REMARK  3 active torsions:
REMARK  status: ('A' for Active; 'I' for Inactive)
REMARK    1  A    between atoms: C_15  and  C_18
REMARK    2  A    between atoms: C_17  and  C_19
REMARK    3  A    between atoms: C_27  and  C_28
REMARK                            x       y       z     vdW  Elec       q    Type
REMARK                         _______ _______ _______ _____ _____    ______ ____
ROOT
ATOM      1  O   UNL     1     111.208 129.330 136.375  0.00  0.00    +0.000 OA
ATOM      2  O   UNL     1     109.182 127.736 137.609  0.00  0.00    +0.000 OA
ATOM      3  O   UNL     1     111.843 126.671 137.322  0.00  0.00    +0.000 OA
ATOM      4  O   UNL     1     112.552 128.834 136.213  0.00  0.00    +0.000 OA
ATOM      5  O   UNL     1     113.678 127.591 136.426  0.00  0.00    +0.000 OA
ATOM      6  C   UNL     1     110.195 128.534 136.992  0.00  0.00    +0.000 A 
ATOM      7  C   UNL     1     110.974 128.627 136.737  0.00  0.00    +0.000 A 
ATOM      8  C   UNL     1     109.961 127.830 137.353  0.00  0.00    +0.000 A 
ATOM      9  C   UNL     1     111.519 128.017 136.843  0.00  0.00    +0.000 A 
ATOM     10  C   UNL     1     110.506 127.220 137.460  0.00  0.00    +0.000 A 
ATOM     11  C   UNL     1     111.285 127.314 137.205  0.00  0.00    +0.000 A 
ATOM     12  C   UNL     1     112.327 128.127 136.573  0.00  0.00    +0.000 A 
ATOM     13  C   UNL     1     112.899 127.495 136.682  0.00  0.00    +0.000 A 
ATOM     14  C   UNL     1     112.656 126.762 137.058  0.00  0.00    +0.000 A 
ENDROOT
BRANCH   6  21
ATOM     15  O   UNL     1     109.574 129.735 137.456  0.00  0.00    +0.000 OA
ATOM     16  O   UNL     1     109.255 128.572 135.636  0.00  0.00    +0.000 OA
ATOM     17  O   UNL     1     108.164 129.792 135.422  0.00  0.00    +0.000 OA
ATOM     18  O   UNL     1     108.014 130.973 136.564  0.00  0.00    +0.000 OA
ATOM     19  C   UNL     1     109.180 129.163 136.207  0.00  0.00    +0.000 C 
ATOM     20  C   UNL     1     108.634 129.773 136.100  0.00  0.00    +0.000 C 
ATOM     21  C   UNL     1     109.650 129.143 136.885  0.00  0.00    +0.000 C 
ATOM     22  C   UNL     1     108.559 130.363 136.671  0.00  0.00    +0.000 C 
ATOM     23  C   UNL     1     109.029 130.344 137.349  0.00  0.00    +0.000 C 
BRANCH  23  25
ATOM     24  O   UNL     1     108.782 130.734 138.701  0.00  0.00    +0.000 OA
ATOM     25  C   UNL     1     108.954 130.934 137.920  0.00  0.00    +0.000 C 
ENDBRANCH  23  25
ENDBRANCH   6  21
BRANCH  14  28
ATOM     26  O   UNL     1     113.832 124.310 136.177  0.00  0.00    +0.000 OA
ATOM     27  O   UNL     1     114.826 124.314 137.494  0.00  0.00    +0.000 OA
ATOM     28  C   UNL     1     113.198 126.150 137.167  0.00  0.00    +0.000 A 
ATOM     29  C   UNL     1     113.244 125.536 136.618  0.00  0.00    +0.000 A 
ATOM     30  C   UNL     1     113.696 126.152 137.825  0.00  0.00    +0.000 A 
ATOM     31  C   UNL     1     113.786 124.924 136.727  0.00  0.00    +0.000 A 
ATOM     32  C   UNL     1     114.238 125.540 137.934  0.00  0.00    +0.000 A 
ATOM     33  C   UNL     1     114.284 124.926 137.385  0.00  0.00    +0.000 A 
ENDBRANCH  14  28
TORSDOF 3
ENDMDL
MODEL 9
REMARK VINA RESULT:      -9.4      7.749     10.359
REMARK  Name = 44259090
REMARK  3 active torsions:
REMARK  status: ('A' for Active; 'I' for Inactive)
REMARK    1  A    between atoms: C_15  and  C_18
REMARK    2  A    between atoms: C_17  and  C_19
REMARK    3  A    between atoms: C_27  and  C_28
REMARK                            x       y       z     vdW  Elec       q    Type
REMARK                         _______ _______ _______ _____ _____    ______ ____
ROOT
ATOM      1  O   UNL     1     113.570 126.006 139.240  0.00  0.00    +0.000 OA
ATOM      2  O   UNL     1     112.466 127.483 137.057  0.00  0.00    +0.000 OA
ATOM      3  O   UNL     1     113.396 128.890 139.393  0.00  0.00    +0.000 OA
ATOM      4  O   UNL     1     114.047 126.673 140.427  0.00  0.00    +0.000 OA
ATOM      5  O   UNL     1     114.310 128.107 141.281  0.00  0.00    +0.000 OA
ATOM      6  C   UNL     1     113.018 126.744 138.148  0.00  0.00    +0.000 A 
ATOM      7  C   UNL     1     113.357 126.727 138.900  0.00  0.00    +0.000 A 
ATOM      8  C   UNL     1     112.805 127.465 137.809  0.00  0.00    +0.000 A 
ATOM      9  C   UNL     1     113.483 127.430 139.312  0.00  0.00    +0.000 A 
ATOM     10  C   UNL     1     112.931 128.169 138.221  0.00  0.00    +0.000 A 
ATOM     11  C   UNL     1     113.270 128.151 138.973  0.00  0.00    +0.000 A 
ATOM     12  C   UNL     1     113.837 127.399 140.095  0.00  0.00    +0.000 A 
ATOM     13  C   UNL     1     113.970 128.128 140.529  0.00  0.00    +0.000 A 
ATOM     14  C   UNL     1     113.748 128.879 140.176  0.00  0.00    +0.000 A 
ENDROOT
BRANCH   6  21
ATOM     15  O   UNL     1     113.495 125.720 137.272  0.00  0.00    +0.000 OA
ATOM     16  O   UNL     1     111.560 125.978 138.250  0.00  0.00    +0.000 OA
ATOM     17  O   UNL     1     111.308 124.571 137.426  0.00  0.00    +0.000 OA
ATOM     18  O   UNL     1     112.514 123.931 136.499  0.00  0.00    +0.000 OA
ATOM     19  C   UNL     1     112.164 125.658 137.787  0.00  0.00    +0.000 C 
ATOM     20  C   UNL     1     112.037 124.954 137.375  0.00  0.00    +0.000 C 
ATOM     21  C   UNL     1     112.892 126.041 137.736  0.00  0.00    +0.000 C 
ATOM     22  C   UNL     1     112.640 124.634 136.911  0.00  0.00    +0.000 C 
ATOM     23  C   UNL     1     113.369 125.018 136.860  0.00  0.00    +0.000 C 
BRANCH  23  25
ATOM     24  O   UNL     1     114.619 125.162 136.183  0.00  0.00    +0.000 OA
ATOM     25  C   UNL     1     113.971 124.697 136.397  0.00  0.00    +0.000 C 
ENDBRANCH  23  25
ENDBRANCH   6  21
BRANCH  14  28
ATOM     26  O   UNL     1     115.386 131.147 140.760  0.00  0.00    +0.000 OA
ATOM     27  O   UNL     1     114.244 131.701 141.815  0.00  0.00    +0.000 OA
ATOM     28  C   UNL     1     113.873 129.584 140.585  0.00  0.00    +0.000 A 
ATOM     29  C   UNL     1     114.568 130.013 140.468  0.00  0.00    +0.000 A 
ATOM     30  C   UNL     1     113.301 129.861 141.112  0.00  0.00    +0.000 A 
ATOM     31  C   UNL     1     114.691 130.718 140.878  0.00  0.00    +0.000 A 
ATOM     32  C   UNL     1     113.425 130.566 141.522  0.00  0.00    +0.000 A 
ATOM     33  C   UNL     1     114.120 130.995 141.405  0.00  0.00    +0.000 A 
ENDBRANCH  14  28
TORSDOF 3
ENDMDL
MODEL 10
REMARK VINA RESULT:      -9.4      4.443      6.931
REMARK  Name = 44259090
REMARK  3 active torsions:
REMARK  status: ('A' for Active; 'I' for Inactive)
REMARK    1  A    between atoms: C_15  and  C_18
REMARK    2  A    between atoms: C_17  and  C_19
REMARK    3  A    between atoms: C_27  and  C_28
REMARK                            x       y       z     vdW  Elec       q    Type
REMARK                         _______ _______ _______ _____ _____    ______ ____
ROOT
ATOM      1  O   UNL     1     105.724 126.183 143.816  0.00  0.00    +0.000 OA
ATOM      2  O   UNL     1     106.794 128.671 144.728  0.00  0.00    +0.000 OA
ATOM      3  O   UNL     1     106.749 126.410 146.512  0.00  0.00    +0.000 OA
ATOM      4  O   UNL     1     105.683 125.027 144.678  0.00  0.00    +0.000 OA
ATOM      5  O   UNL     1     106.006 124.324 146.181  0.00  0.00    +0.000 OA
ATOM      6  C   UNL     1     106.259 127.427 144.271  0.00  0.00    +0.000 A 
ATOM      7  C   UNL     1     106.071 126.636 144.412  0.00  0.00    +0.000 A 
ATOM      8  C   UNL     1     106.606 127.880 144.867  0.00  0.00    +0.000 A 
ATOM      9  C   UNL     1     106.231 126.298 145.146  0.00  0.00    +0.000 A 
ATOM     10  C   UNL     1     106.766 127.542 145.603  0.00  0.00    +0.000 A 
ATOM     11  C   UNL     1     106.578 126.751 145.742  0.00  0.00    +0.000 A 
ATOM     12  C   UNL     1     106.031 125.472 145.280  0.00  0.00    +0.000 A 
ATOM     13  C   UNL     1     106.195 125.115 146.044  0.00  0.00    +0.000 A 
ATOM     14  C   UNL     1     106.556 125.587 146.664  0.00  0.00    +0.000 A 
ENDROOT
BRANCH   6  21
ATOM     15  O   UNL     1     105.361 128.102 143.388  0.00  0.00    +0.000 OA
ATOM     16  O   UNL     1     107.417 127.430 143.096  0.00  0.00    +0.000 OA
ATOM     17  O   UNL     1     107.098 128.106 141.625  0.00  0.00    +0.000 OA
ATOM     18  O   UNL     1     105.622 128.780 141.330  0.00  0.00    +0.000 OA
ATOM     19  C   UNL     1     106.678 127.766 142.949  0.00  0.00    +0.000 C 
ATOM     20  C   UNL     1     106.519 128.105 142.213  0.00  0.00    +0.000 C 
ATOM     21  C   UNL     1     106.099 127.765 143.537  0.00  0.00    +0.000 C 
ATOM     22  C   UNL     1     105.780 128.442 142.066  0.00  0.00    +0.000 C 
ATOM     23  C   UNL     1     105.201 128.440 142.653  0.00  0.00    +0.000 C 
BRANCH  23  25
ATOM     24  O   UNL     1     104.075 129.197 143.100  0.00  0.00    +0.000 OA
ATOM     25  C   UNL     1     104.464 128.777 142.506  0.00  0.00    +0.000 C 
ENDBRANCH  23  25
ENDBRANCH   6  21
BRANCH  14  28
ATOM     26  O   UNL     1     108.439 124.649 148.600  0.00  0.00    +0.000 OA
ATOM     27  O   UNL     1     107.199 124.247 149.611  0.00  0.00    +0.000 OA
ATOM     28  C   UNL     1     106.717 125.251 147.401  0.00  0.00    +0.000 A 
ATOM     29  C   UNL     1     107.498 125.118 147.632  0.00  0.00    +0.000 A 
ATOM     30  C   UNL     1     106.097 125.050 147.906  0.00  0.00    +0.000 A 
ATOM     31  C   UNL     1     107.658 124.783 148.369  0.00  0.00    +0.000 A 
ATOM     32  C   UNL     1     106.257 124.715 148.643  0.00  0.00    +0.000 A 
ATOM     33  C   UNL     1     107.038 124.582 148.874  0.00  0.00    +0.000 A 
ENDBRANCH  14  28
TORSDOF 3
ENDMDL
