MODEL 1
REMARK VINA RESULT:      -7.5      0.000      0.000
REMARK  Name = 136417
REMARK  7 active torsions:
REMARK  status: ('A' for Active; 'I' for Inactive)
REMARK    1  A    between atoms: O_2  and  C_13
REMARK    2  A    between atoms: O_3  and  C_16
REMARK    3  A    between atoms: O_4  and  C_18
REMARK    4  A    between atoms: O_5  and  C_19
REMARK    5  A    between atoms: O_8  and  C_22
REMARK    6  A    between atoms: O_9  and  C_23
REMARK    7  A    between atoms: C_12  and  C_17
REMARK                            x       y       z     vdW  Elec       q    Type
REMARK                         _______ _______ _______ _____ _____    ______ ____
ROOT
ATOM      1  O   UNL     1     104.529 124.984 146.910  0.00  0.00    +0.000 OA
ATOM      2  O   UNL     1     103.293 122.855 145.387  0.00  0.00    +0.000 OA
ATOM      3  O   UNL     1     104.507 123.457 144.891  0.00  0.00    +0.000 OA
ATOM      4  C   UNL     1     103.902 123.907 146.141  0.00  0.00    +0.000 A 
ATOM      5  C   UNL     1     103.906 124.403 146.800  0.00  0.00    +0.000 A 
ATOM      6  C   UNL     1     105.156 125.050 146.326  0.00  0.00    +0.000 A 
ATOM      7  C   UNL     1     103.307 124.344 147.364  0.00  0.00    +0.000 A 
ATOM      8  C   UNL     1     104.519 123.957 145.547  0.00  0.00    +0.000 A 
ATOM      9  C   UNL     1     103.298 123.352 146.046  0.00  0.00    +0.000 A 
ATOM     10  C   UNL     1     105.151 124.533 145.639  0.00  0.00    +0.000 A 
ATOM     11  C   UNL     1     102.703 123.790 147.270  0.00  0.00    +0.000 A 
ATOM     12  C   UNL     1     102.699 123.294 146.611  0.00  0.00    +0.000 A 
ENDROOT
BRANCH   6  13
ATOM     13  C   UNL     1     105.758 125.605 146.423  0.00  0.00    +0.000 A 
ATOM     14  C   UNL     1     106.452 125.396 146.818  0.00  0.00    +0.000 A 
ATOM     15  C   UNL     1     105.667 126.369 146.124  0.00  0.00    +0.000 A 
ATOM     16  C   UNL     1     107.054 125.951 146.916  0.00  0.00    +0.000 A 
ATOM     17  C   UNL     1     106.964 126.715 146.618  0.00  0.00    +0.000 A 
ATOM     18  C   UNL     1     106.271 126.924 146.222  0.00  0.00    +0.000 A 
BRANCH  16  19
ATOM     19  O   UNL     1     107.747 125.742 147.311  0.00  0.00    +0.000 OA
ATOM     20  C   UNL     1     107.745 125.113 147.845  0.00  0.00    +0.000 C 
ENDBRANCH  16  19
BRANCH  17  21
ATOM     21  O   UNL     1     107.566 127.269 146.715  0.00  0.00    +0.000 OA
ATOM     22  C   UNL     1     107.486 128.025 146.393  0.00  0.00    +0.000 C 
ENDBRANCH  17  21
ENDBRANCH   6  13
BRANCH   7  23
ATOM     23  O   UNL     1     103.311 124.841 148.023  0.00  0.00    +0.000 OA
ATOM     24  C   UNL     1     102.817 125.501 148.046  0.00  0.00    +0.000 C 
ENDBRANCH   7  23
BRANCH  10  25
ATOM     25  O   UNL     1     105.749 124.588 145.073  0.00  0.00    +0.000 OA
ATOM     26  C   UNL     1     105.593 124.393 144.287  0.00  0.00    +0.000 C 
ENDBRANCH  10  25
BRANCH  11  27
ATOM     27  O   UNL     1     102.104 123.732 147.834  0.00  0.00    +0.000 OA
ATOM     28  C   UNL     1     102.171 123.193 148.453  0.00  0.00    +0.000 C 
ENDBRANCH  11  27
BRANCH  12  29
ATOM     29  O   UNL     1     102.095 122.739 146.516  0.00  0.00    +0.000 OA
ATOM     30  C   UNL     1     101.507 122.863 145.951  0.00  0.00    +0.000 C 
ENDBRANCH  12  29
TORSDOF 7
ENDMDL
MODEL 2
REMARK VINA RESULT:      -7.3     11.956     13.893
REMARK  Name = 136417
REMARK  7 active torsions:
REMARK  status: ('A' for Active; 'I' for Inactive)
REMARK    1  A    between atoms: O_2  and  C_13
REMARK    2  A    between atoms: O_3  and  C_16
REMARK    3  A    between atoms: O_4  and  C_18
REMARK    4  A    between atoms: O_5  and  C_19
REMARK    5  A    between atoms: O_8  and  C_22
REMARK    6  A    between atoms: O_9  and  C_23
REMARK    7  A    between atoms: C_12  and  C_17
REMARK                            x       y       z     vdW  Elec       q    Type
REMARK                         _______ _______ _______ _____ _____    ______ ____
ROOT
ATOM      1  O   UNL     1     113.332 127.812 136.193  0.00  0.00    +0.000 OA
ATOM      2  O   UNL     1     110.696 126.763 135.619  0.00  0.00    +0.000 OA
ATOM      3  O   UNL     1     111.041 128.082 135.147  0.00  0.00    +0.000 OA
ATOM      4  C   UNL     1     111.998 127.279 135.904  0.00  0.00    +0.000 A 
ATOM      5  C   UNL     1     112.744 127.188 136.245  0.00  0.00    +0.000 A 
ATOM      6  C   UNL     1     113.141 128.541 135.779  0.00  0.00    +0.000 A 
ATOM      7  C   UNL     1     112.932 126.491 136.644  0.00  0.00    +0.000 A 
ATOM      8  C   UNL     1     111.789 128.000 135.486  0.00  0.00    +0.000 A 
ATOM      9  C   UNL     1     111.441 126.672 135.961  0.00  0.00    +0.000 A 
ATOM     10  C   UNL     1     112.364 128.636 135.423  0.00  0.00    +0.000 A 
ATOM     11  C   UNL     1     112.376 125.885 136.701  0.00  0.00    +0.000 A 
ATOM     12  C   UNL     1     111.631 125.975 136.359  0.00  0.00    +0.000 A 
ENDROOT
BRANCH   6  13
ATOM     13  C   UNL     1     113.699 129.146 135.724  0.00  0.00    +0.000 A 
ATOM     14  C   UNL     1     113.788 129.683 136.344  0.00  0.00    +0.000 A 
ATOM     15  C   UNL     1     114.168 129.214 135.048  0.00  0.00    +0.000 A 
ATOM     16  C   UNL     1     114.346 130.287 136.289  0.00  0.00    +0.000 A 
ATOM     17  C   UNL     1     114.815 130.357 135.613  0.00  0.00    +0.000 A 
ATOM     18  C   UNL     1     114.726 129.820 134.993  0.00  0.00    +0.000 A 
BRANCH  16  19
ATOM     19  O   UNL     1     114.435 130.824 136.909  0.00  0.00    +0.000 OA
ATOM     20  C   UNL     1     114.095 130.666 137.644  0.00  0.00    +0.000 C 
ENDBRANCH  16  19
BRANCH  17  21
ATOM     21  O   UNL     1     115.373 130.961 135.559  0.00  0.00    +0.000 OA
ATOM     22  C   UNL     1     115.710 131.146 134.828  0.00  0.00    +0.000 C 
ENDBRANCH  17  21
ENDBRANCH   6  13
BRANCH   7  23
ATOM     23  O   UNL     1     113.678 126.400 136.985  0.00  0.00    +0.000 OA
ATOM     24  C   UNL     1     114.248 125.934 136.614  0.00  0.00    +0.000 C 
ENDBRANCH   7  23
BRANCH  10  25
ATOM     25  O   UNL     1     112.172 129.332 135.024  0.00  0.00    +0.000 OA
ATOM     26  C   UNL     1     111.384 129.567 134.960  0.00  0.00    +0.000 C 
ENDBRANCH  10  25
BRANCH  11  27
ATOM     27  O   UNL     1     112.565 125.187 137.099  0.00  0.00    +0.000 OA
ATOM     28  C   UNL     1     112.372 125.101 137.896  0.00  0.00    +0.000 C 
ENDBRANCH  11  27
BRANCH  12  29
ATOM     29  O   UNL     1     111.074 125.368 136.416  0.00  0.00    +0.000 OA
ATOM     30  C   UNL     1     110.873 124.930 135.747  0.00  0.00    +0.000 C 
ENDBRANCH  12  29
TORSDOF 7
ENDMDL
MODEL 3
REMARK VINA RESULT:      -7.3      8.648     10.578
REMARK  Name = 136417
REMARK  7 active torsions:
REMARK  status: ('A' for Active; 'I' for Inactive)
REMARK    1  A    between atoms: O_2  and  C_13
REMARK    2  A    between atoms: O_3  and  C_16
REMARK    3  A    between atoms: O_4  and  C_18
REMARK    4  A    between atoms: O_5  and  C_19
REMARK    5  A    between atoms: O_8  and  C_22
REMARK    6  A    between atoms: O_9  and  C_23
REMARK    7  A    between atoms: C_12  and  C_17
REMARK                            x       y       z     vdW  Elec       q    Type
REMARK                         _______ _______ _______ _____ _____    ______ ____
ROOT
ATOM      1  O   UNL     1     111.561 131.464 145.182  0.00  0.00    +0.000 OA
ATOM      2  O   UNL     1     112.378 131.819 142.428  0.00  0.00    +0.000 OA
ATOM      3  O   UNL     1     112.425 132.950 143.324  0.00  0.00    +0.000 OA
ATOM      4  C   UNL     1     111.974 131.641 143.788  0.00  0.00    +0.000 A 
ATOM      5  C   UNL     1     111.693 131.155 144.392  0.00  0.00    +0.000 A 
ATOM      6  C   UNL     1     111.726 132.292 145.347  0.00  0.00    +0.000 A 
ATOM      7  C   UNL     1     111.533 130.359 144.240  0.00  0.00    +0.000 A 
ATOM      8  C   UNL     1     112.144 132.471 143.933  0.00  0.00    +0.000 A 
ATOM      9  C   UNL     1     112.096 131.332 143.032  0.00  0.00    +0.000 A 
ATOM     10  C   UNL     1     112.019 132.798 144.718  0.00  0.00    +0.000 A 
ATOM     11  C   UNL     1     111.655 130.051 143.485  0.00  0.00    +0.000 A 
ATOM     12  C   UNL     1     111.937 130.537 142.881  0.00  0.00    +0.000 A 
ENDROOT
BRANCH   6  13
ATOM     13  C   UNL     1     111.603 132.597 146.103  0.00  0.00    +0.000 A 
ATOM     14  C   UNL     1     110.871 132.922 146.302  0.00  0.00    +0.000 A 
ATOM     15  C   UNL     1     112.211 132.578 146.660  0.00  0.00    +0.000 A 
ATOM     16  C   UNL     1     110.748 133.228 147.058  0.00  0.00    +0.000 A 
ATOM     17  C   UNL     1     111.356 133.210 147.616  0.00  0.00    +0.000 A 
ATOM     18  C   UNL     1     112.087 132.885 147.416  0.00  0.00    +0.000 A 
BRANCH  16  19
ATOM     19  O   UNL     1     110.016 133.553 147.257  0.00  0.00    +0.000 OA
ATOM     20  C   UNL     1     109.336 133.319 146.852  0.00  0.00    +0.000 C 
ENDBRANCH  16  19
BRANCH  17  21
ATOM     21  O   UNL     1     111.232 133.516 148.371  0.00  0.00    +0.000 OA
ATOM     22  C   UNL     1     111.804 133.411 148.956  0.00  0.00    +0.000 C 
ENDBRANCH  17  21
ENDBRANCH   6  13
BRANCH   7  23
ATOM     23  O   UNL     1     111.252 129.873 144.844  0.00  0.00    +0.000 OA
ATOM     24  C   UNL     1     111.762 129.346 145.222  0.00  0.00    +0.000 C 
ENDBRANCH   7  23
BRANCH  10  25
ATOM     25  O   UNL     1     112.179 133.594 144.866  0.00  0.00    +0.000 OA
ATOM     26  C   UNL     1     112.108 134.150 144.260  0.00  0.00    +0.000 C 
ENDBRANCH  10  25
BRANCH  11  27
ATOM     27  O   UNL     1     111.496 129.256 143.333  0.00  0.00    +0.000 OA
ATOM     28  C   UNL     1     110.760 129.031 143.037  0.00  0.00    +0.000 C 
ENDBRANCH  11  27
BRANCH  12  29
ATOM     29  O   UNL     1     112.059 130.229 142.125  0.00  0.00    +0.000 OA
ATOM     30  C   UNL     1     112.827 130.114 141.847  0.00  0.00    +0.000 C 
ENDBRANCH  12  29
TORSDOF 7
ENDMDL
MODEL 4
REMARK VINA RESULT:      -7.2     12.268     13.070
REMARK  Name = 136417
REMARK  7 active torsions:
REMARK  status: ('A' for Active; 'I' for Inactive)
REMARK    1  A    between atoms: O_2  and  C_13
REMARK    2  A    between atoms: O_3  and  C_16
REMARK    3  A    between atoms: O_4  and  C_18
REMARK    4  A    between atoms: O_5  and  C_19
REMARK    5  A    between atoms: O_8  and  C_22
REMARK    6  A    between atoms: O_9  and  C_23
REMARK    7  A    between atoms: C_12  and  C_17
REMARK                            x       y       z     vdW  Elec       q    Type
REMARK                         _______ _______ _______ _____ _____    ______ ____
ROOT
ATOM      1  O   UNL     1     112.178 126.776 136.533  0.00  0.00    +0.000 OA
ATOM      2  O   UNL     1     111.516 124.016 135.969  0.00  0.00    +0.000 OA
ATOM      3  O   UNL     1     110.712 125.061 135.384  0.00  0.00    +0.000 OA
ATOM      4  C   UNL     1     111.845 125.378 136.249  0.00  0.00    +0.000 A 
ATOM      5  C   UNL     1     112.324 125.935 136.625  0.00  0.00    +0.000 A 
ATOM      6  C   UNL     1     111.523 127.042 136.043  0.00  0.00    +0.000 A 
ATOM      7  C   UNL     1     112.954 125.686 137.096  0.00  0.00    +0.000 A 
ATOM      8  C   UNL     1     111.186 125.625 135.756  0.00  0.00    +0.000 A 
ATOM      9  C   UNL     1     111.995 124.572 136.345  0.00  0.00    +0.000 A 
ATOM     10  C   UNL     1     111.024 126.463 135.652  0.00  0.00    +0.000 A 
ATOM     11  C   UNL     1     113.104 124.881 137.192  0.00  0.00    +0.000 A 
ATOM     12  C   UNL     1     112.625 124.324 136.816  0.00  0.00    +0.000 A 
ENDROOT
BRANCH   6  13
ATOM     13  C   UNL     1     111.375 127.848 135.949  0.00  0.00    +0.000 A 
ATOM     14  C   UNL     1     111.836 128.295 135.431  0.00  0.00    +0.000 A 
ATOM     15  C   UNL     1     110.766 128.208 136.374  0.00  0.00    +0.000 A 
ATOM     16  C   UNL     1     111.688 129.100 135.337  0.00  0.00    +0.000 A 
ATOM     17  C   UNL     1     111.079 129.461 135.761  0.00  0.00    +0.000 A 
ATOM     18  C   UNL     1     110.618 129.015 136.279  0.00  0.00    +0.000 A 
BRANCH  16  19
ATOM     19  O   UNL     1     112.149 129.546 134.818  0.00  0.00    +0.000 OA
ATOM     20  C   UNL     1     112.906 129.290 134.613  0.00  0.00    +0.000 C 
ENDBRANCH  16  19
BRANCH  17  21
ATOM     21  O   UNL     1     110.931 130.266 135.667  0.00  0.00    +0.000 OA
ATOM     22  C   UNL     1     110.286 130.614 136.045  0.00  0.00    +0.000 C 
ENDBRANCH  17  21
ENDBRANCH   6  13
BRANCH   7  23
ATOM     23  O   UNL     1     113.433 126.242 137.472  0.00  0.00    +0.000 OA
ATOM     24  C   UNL     1     113.334 126.397 138.276  0.00  0.00    +0.000 C 
ENDBRANCH   7  23
BRANCH  10  25
ATOM     25  O   UNL     1     110.393 126.708 135.180  0.00  0.00    +0.000 OA
ATOM     26  C   UNL     1     110.062 126.189 134.631  0.00  0.00    +0.000 C 
ENDBRANCH  10  25
BRANCH  11  27
ATOM     27  O   UNL     1     113.734 124.631 137.663  0.00  0.00    +0.000 OA
ATOM     28  C   UNL     1     114.486 124.546 137.337  0.00  0.00    +0.000 C 
ENDBRANCH  11  27
BRANCH  12  29
ATOM     29  O   UNL     1     112.776 123.518 136.912  0.00  0.00    +0.000 OA
ATOM     30  C   UNL     1     112.229 123.041 137.304  0.00  0.00    +0.000 C 
ENDBRANCH  12  29
TORSDOF 7
ENDMDL
MODEL 5
REMARK VINA RESULT:      -7.1      6.516      7.838
REMARK  Name = 136417
REMARK  7 active torsions:
REMARK  status: ('A' for Active; 'I' for Inactive)
REMARK    1  A    between atoms: O_2  and  C_13
REMARK    2  A    between atoms: O_3  and  C_16
REMARK    3  A    between atoms: O_4  and  C_18
REMARK    4  A    between atoms: O_5  and  C_19
REMARK    5  A    between atoms: O_8  and  C_22
REMARK    6  A    between atoms: O_9  and  C_23
REMARK    7  A    between atoms: C_12  and  C_17
REMARK                            x       y       z     vdW  Elec       q    Type
REMARK                         _______ _______ _______ _____ _____    ______ ____
ROOT
ATOM      1  O   UNL     1     103.656 130.111 142.319  0.00  0.00    +0.000 OA
ATOM      2  O   UNL     1     104.383 127.614 141.049  0.00  0.00    +0.000 OA
ATOM      3  O   UNL     1     103.449 128.491 140.384  0.00  0.00    +0.000 OA
ATOM      4  C   UNL     1     104.025 128.847 141.678  0.00  0.00    +0.000 A 
ATOM      5  C   UNL     1     104.095 129.373 142.310  0.00  0.00    +0.000 A 
ATOM      6  C   UNL     1     103.137 130.305 141.661  0.00  0.00    +0.000 A 
ATOM      7  C   UNL     1     104.591 129.192 142.944  0.00  0.00    +0.000 A 
ATOM      8  C   UNL     1     103.513 129.023 141.012  0.00  0.00    +0.000 A 
ATOM      9  C   UNL     1     104.452 128.140 141.681  0.00  0.00    +0.000 A 
ATOM     10  C   UNL     1     103.065 129.757 141.003  0.00  0.00    +0.000 A 
ATOM     11  C   UNL     1     105.017 128.487 142.947  0.00  0.00    +0.000 A 
ATOM     12  C   UNL     1     104.948 127.961 142.315  0.00  0.00    +0.000 A 
ENDROOT
BRANCH   6  13
ATOM     13  C   UNL     1     102.712 131.011 141.661  0.00  0.00    +0.000 A 
ATOM     14  C   UNL     1     103.037 131.688 141.319  0.00  0.00    +0.000 A 
ATOM     15  C   UNL     1     101.962 131.041 142.003  0.00  0.00    +0.000 A 
ATOM     16  C   UNL     1     102.612 132.395 141.318  0.00  0.00    +0.000 A 
ATOM     17  C   UNL     1     101.861 132.426 141.660  0.00  0.00    +0.000 A 
ATOM     18  C   UNL     1     101.537 131.749 142.002  0.00  0.00    +0.000 A 
BRANCH  16  19
ATOM     19  O   UNL     1     102.937 133.071 140.976  0.00  0.00    +0.000 OA
ATOM     20  C   UNL     1     103.747 133.110 140.825  0.00  0.00    +0.000 C 
ENDBRANCH  16  19
BRANCH  17  21
ATOM     21  O   UNL     1     101.437 133.132 141.660  0.00  0.00    +0.000 OA
ATOM     22  C   UNL     1     100.712 133.177 142.051  0.00  0.00    +0.000 C 
ENDBRANCH  17  21
ENDBRANCH   6  13
BRANCH   7  23
ATOM     23  O   UNL     1     104.660 129.718 143.576  0.00  0.00    +0.000 OA
ATOM     24  C   UNL     1     105.312 130.222 143.625  0.00  0.00    +0.000 C 
ENDBRANCH   7  23
BRANCH  10  25
ATOM     25  O   UNL     1     102.570 129.934 140.367  0.00  0.00    +0.000 OA
ATOM     26  C   UNL     1     102.357 129.342 139.832  0.00  0.00    +0.000 C 
ENDBRANCH  10  25
BRANCH  11  27
ATOM     27  O   UNL     1     105.513 128.306 143.581  0.00  0.00    +0.000 OA
ATOM     28  C   UNL     1     105.231 127.854 144.210  0.00  0.00    +0.000 C 
ENDBRANCH  11  27
BRANCH  12  29
ATOM     29  O   UNL     1     105.375 127.254 142.318  0.00  0.00    +0.000 OA
ATOM     30  C   UNL     1     106.022 127.162 141.815  0.00  0.00    +0.000 C 
ENDBRANCH  12  29
TORSDOF 7
ENDMDL
MODEL 6
REMARK VINA RESULT:      -7.1      2.097      4.393
REMARK  Name = 136417
REMARK  7 active torsions:
REMARK  status: ('A' for Active; 'I' for Inactive)
REMARK    1  A    between atoms: O_2  and  C_13
REMARK    2  A    between atoms: O_3  and  C_16
REMARK    3  A    between atoms: O_4  and  C_18
REMARK    4  A    between atoms: O_5  and  C_19
REMARK    5  A    between atoms: O_8  and  C_22
REMARK    6  A    between atoms: O_9  and  C_23
REMARK    7  A    between atoms: C_12  and  C_17
REMARK                            x       y       z     vdW  Elec       q    Type
REMARK                         _______ _______ _______ _____ _____    ______ ____
ROOT
ATOM      1  O   UNL     1     106.777 126.525 146.082  0.00  0.00    +0.000 OA
ATOM      2  O   UNL     1     105.367 126.034 143.602  0.00  0.00    +0.000 OA
ATOM      3  O   UNL     1     105.245 125.079 144.678  0.00  0.00    +0.000 OA
ATOM      4  C   UNL     1     106.064 126.278 144.826  0.00  0.00    +0.000 A 
ATOM      5  C   UNL     1     106.564 126.752 145.282  0.00  0.00    +0.000 A 
ATOM      6  C   UNL     1     106.465 125.795 146.414  0.00  0.00    +0.000 A 
ATOM      7  C   UNL     1     106.865 127.453 144.969  0.00  0.00    +0.000 A 
ATOM      8  C   UNL     1     105.743 125.546 145.140  0.00  0.00    +0.000 A 
ATOM      9  C   UNL     1     105.867 126.507 144.058  0.00  0.00    +0.000 A 
ATOM     10  C   UNL     1     105.945 125.303 145.939  0.00  0.00    +0.000 A 
ATOM     11  C   UNL     1     106.668 127.681 144.202  0.00  0.00    +0.000 A 
ATOM     12  C   UNL     1     106.169 127.208 143.746  0.00  0.00    +0.000 A 
ENDROOT
BRANCH   6  13
ATOM     13  C   UNL     1     106.664 125.569 147.182  0.00  0.00    +0.000 A 
ATOM     14  C   UNL     1     106.196 125.809 147.817  0.00  0.00    +0.000 A 
ATOM     15  C   UNL     1     107.332 125.103 147.315  0.00  0.00    +0.000 A 
ATOM     16  C   UNL     1     106.394 125.584 148.584  0.00  0.00    +0.000 A 
ATOM     17  C   UNL     1     107.062 125.117 148.719  0.00  0.00    +0.000 A 
ATOM     18  C   UNL     1     107.531 124.878 148.083  0.00  0.00    +0.000 A 
BRANCH  16  19
ATOM     19  O   UNL     1     105.925 125.823 149.219  0.00  0.00    +0.000 OA
ATOM     20  C   UNL     1     105.522 126.543 149.187  0.00  0.00    +0.000 C 
ENDBRANCH  16  19
BRANCH  17  21
ATOM     21  O   UNL     1     107.261 124.892 149.486  0.00  0.00    +0.000 OA
ATOM     22  C   UNL     1     107.864 124.344 149.611  0.00  0.00    +0.000 C 
ENDBRANCH  17  21
ENDBRANCH   6  13
BRANCH   7  23
ATOM     23  O   UNL     1     107.365 127.926 145.424  0.00  0.00    +0.000 OA
ATOM     24  C   UNL     1     107.066 128.593 145.807  0.00  0.00    +0.000 C 
ENDBRANCH   7  23
BRANCH  10  25
ATOM     25  O   UNL     1     105.642 124.600 146.249  0.00  0.00    +0.000 OA
ATOM     26  C   UNL     1     104.933 124.293 145.957  0.00  0.00    +0.000 C 
ENDBRANCH  10  25
BRANCH  11  27
ATOM     27  O   UNL     1     106.970 128.383 143.889  0.00  0.00    +0.000 OA
ATOM     28  C   UNL     1     107.652 128.369 143.426  0.00  0.00    +0.000 C 
ENDBRANCH  11  27
BRANCH  12  29
ATOM     29  O   UNL     1     105.971 127.437 142.978  0.00  0.00    +0.000 OA
ATOM     30  C   UNL     1     105.216 127.725 142.816  0.00  0.00    +0.000 C 
ENDBRANCH  12  29
TORSDOF 7
ENDMDL
MODEL 7
REMARK VINA RESULT:      -7.0     11.845     13.169
REMARK  Name = 136417
REMARK  7 active torsions:
REMARK  status: ('A' for Active; 'I' for Inactive)
REMARK    1  A    between atoms: O_2  and  C_13
REMARK    2  A    between atoms: O_3  and  C_16
REMARK    3  A    between atoms: O_4  and  C_18
REMARK    4  A    between atoms: O_5  and  C_19
REMARK    5  A    between atoms: O_8  and  C_22
REMARK    6  A    between atoms: O_9  and  C_23
REMARK    7  A    between atoms: C_12  and  C_17
REMARK                            x       y       z     vdW  Elec       q    Type
REMARK                         _______ _______ _______ _____ _____    ______ ____
ROOT
ATOM      1  O   UNL     1     111.903 127.123 136.755  0.00  0.00    +0.000 OA
ATOM      2  O   UNL     1     110.593 128.953 134.934  0.00  0.00    +0.000 OA
ATOM      3  O   UNL     1     110.565 127.539 134.646  0.00  0.00    +0.000 OA
ATOM      4  C   UNL     1     111.241 128.051 135.835  0.00  0.00    +0.000 A 
ATOM      5  C   UNL     1     111.677 127.919 136.522  0.00  0.00    +0.000 A 
ATOM      6  C   UNL     1     111.672 126.456 136.264  0.00  0.00    +0.000 A 
ATOM      7  C   UNL     1     111.901 128.555 136.997  0.00  0.00    +0.000 A 
ATOM      8  C   UNL     1     111.001 127.397 135.332  0.00  0.00    +0.000 A 
ATOM      9  C   UNL     1     111.029 128.820 135.622  0.00  0.00    +0.000 A 
ATOM     10  C   UNL     1     111.218 126.594 135.548  0.00  0.00    +0.000 A 
ATOM     11  C   UNL     1     111.690 129.323 136.784  0.00  0.00    +0.000 A 
ATOM     12  C   UNL     1     111.254 129.456 136.097  0.00  0.00    +0.000 A 
ENDROOT
BRANCH   6  13
ATOM     13  C   UNL     1     111.885 125.689 136.479  0.00  0.00    +0.000 A 
ATOM     14  C   UNL     1     112.640 125.406 136.306  0.00  0.00    +0.000 A 
ATOM     15  C   UNL     1     111.342 125.204 136.867  0.00  0.00    +0.000 A 
ATOM     16  C   UNL     1     112.853 124.640 136.521  0.00  0.00    +0.000 A 
ATOM     17  C   UNL     1     112.311 124.153 136.909  0.00  0.00    +0.000 A 
ATOM     18  C   UNL     1     111.556 124.436 137.082  0.00  0.00    +0.000 A 
BRANCH  16  19
ATOM     19  O   UNL     1     113.609 124.357 136.348  0.00  0.00    +0.000 OA
ATOM     20  C   UNL     1     114.250 124.877 136.329  0.00  0.00    +0.000 C 
ENDBRANCH  16  19
BRANCH  17  21
ATOM     21  O   UNL     1     112.524 123.387 137.124  0.00  0.00    +0.000 OA
ATOM     22  C   UNL     1     111.947 122.855 137.380  0.00  0.00    +0.000 C 
ENDBRANCH  17  21
ENDBRANCH   6  13
BRANCH   7  23
ATOM     23  O   UNL     1     112.337 128.423 137.684  0.00  0.00    +0.000 OA
ATOM     24  C   UNL     1     111.963 128.434 138.419  0.00  0.00    +0.000 C 
ENDBRANCH   7  23
BRANCH  10  25
ATOM     25  O   UNL     1     110.991 125.960 135.071  0.00  0.00    +0.000 OA
ATOM     26  C   UNL     1     110.305 126.010 134.616  0.00  0.00    +0.000 C 
ENDBRANCH  10  25
BRANCH  11  27
ATOM     27  O   UNL     1     111.915 129.960 137.259  0.00  0.00    +0.000 OA
ATOM     28  C   UNL     1     112.616 130.364 137.103  0.00  0.00    +0.000 C 
ENDBRANCH  11  27
BRANCH  12  29
ATOM     29  O   UNL     1     111.042 130.225 135.884  0.00  0.00    +0.000 OA
ATOM     30  C   UNL     1     110.261 130.476 135.970  0.00  0.00    +0.000 C 
ENDBRANCH  12  29
TORSDOF 7
ENDMDL
MODEL 8
REMARK VINA RESULT:      -7.0      0.996      2.295
REMARK  Name = 136417
REMARK  7 active torsions:
REMARK  status: ('A' for Active; 'I' for Inactive)
REMARK    1  A    between atoms: O_2  and  C_13
REMARK    2  A    between atoms: O_3  and  C_16
REMARK    3  A    between atoms: O_4  and  C_18
REMARK    4  A    between atoms: O_5  and  C_19
REMARK    5  A    between atoms: O_8  and  C_22
REMARK    6  A    between atoms: O_9  and  C_23
REMARK    7  A    between atoms: C_12  and  C_17
REMARK                            x       y       z     vdW  Elec       q    Type
REMARK                         _______ _______ _______ _____ _____    ______ ____
ROOT
ATOM      1  O   UNL     1     104.446 125.091 146.891  0.00  0.00    +0.000 OA
ATOM      2  O   UNL     1     102.474 124.360 148.879  0.00  0.00    +0.000 OA
ATOM      3  O   UNL     1     103.516 125.291 149.237  0.00  0.00    +0.000 OA
ATOM      4  C   UNL     1     103.447 124.719 147.895  0.00  0.00    +0.000 A 
ATOM      5  C   UNL     1     103.747 124.652 147.130  0.00  0.00    +0.000 A 
ATOM      6  C   UNL     1     104.837 125.607 147.456  0.00  0.00    +0.000 A 
ATOM      7  C   UNL     1     103.376 124.158 146.583  0.00  0.00    +0.000 A 
ATOM      8  C   UNL     1     103.824 125.230 148.474  0.00  0.00    +0.000 A 
ATOM      9  C   UNL     1     102.775 124.292 148.114  0.00  0.00    +0.000 A 
ATOM     10  C   UNL     1     104.524 125.677 148.253  0.00  0.00    +0.000 A 
ATOM     11  C   UNL     1     102.705 123.732 146.801  0.00  0.00    +0.000 A 
ATOM     12  C   UNL     1     102.404 123.799 147.566  0.00  0.00    +0.000 A 
ENDROOT
BRANCH   6  13
ATOM     13  C   UNL     1     105.508 126.033 147.235  0.00  0.00    +0.000 A 
ATOM     14  C   UNL     1     106.252 125.676 147.267  0.00  0.00    +0.000 A 
ATOM     15  C   UNL     1     105.436 126.815 146.982  0.00  0.00    +0.000 A 
ATOM     16  C   UNL     1     106.923 126.101 147.047  0.00  0.00    +0.000 A 
ATOM     17  C   UNL     1     106.852 126.884 146.794  0.00  0.00    +0.000 A 
ATOM     18  C   UNL     1     106.109 127.240 146.762  0.00  0.00    +0.000 A 
BRANCH  16  19
ATOM     19  O   UNL     1     107.666 125.744 147.079  0.00  0.00    +0.000 OA
ATOM     20  C   UNL     1     107.822 125.164 147.645  0.00  0.00    +0.000 C 
ENDBRANCH  16  19
BRANCH  17  21
ATOM     21  O   UNL     1     107.523 127.308 146.573  0.00  0.00    +0.000 OA
ATOM     22  C   UNL     1     107.450 128.088 146.313  0.00  0.00    +0.000 C 
ENDBRANCH  17  21
ENDBRANCH   6  13
BRANCH   7  23
ATOM     23  O   UNL     1     103.677 124.091 145.818  0.00  0.00    +0.000 OA
ATOM     24  C   UNL     1     104.094 123.415 145.596  0.00  0.00    +0.000 C 
ENDBRANCH   7  23
BRANCH  10  25
ATOM     25  O   UNL     1     104.892 126.170 148.803  0.00  0.00    +0.000 OA
ATOM     26  C   UNL     1     104.794 126.034 149.611  0.00  0.00    +0.000 C 
ENDBRANCH  10  25
BRANCH  11  27
ATOM     27  O   UNL     1     102.334 123.238 146.254  0.00  0.00    +0.000 OA
ATOM     28  C   UNL     1     101.664 123.499 145.850  0.00  0.00    +0.000 C 
ENDBRANCH  11  27
BRANCH  12  29
ATOM     29  O   UNL     1     101.732 123.372 147.785  0.00  0.00    +0.000 OA
ATOM     30  C   UNL     1     101.799 122.741 148.311  0.00  0.00    +0.000 C 
ENDBRANCH  12  29
TORSDOF 7
ENDMDL
MODEL 9
REMARK VINA RESULT:      -7.0     11.451     14.074
REMARK  Name = 136417
REMARK  7 active torsions:
REMARK  status: ('A' for Active; 'I' for Inactive)
REMARK    1  A    between atoms: O_2  and  C_13
REMARK    2  A    between atoms: O_3  and  C_16
REMARK    3  A    between atoms: O_4  and  C_18
REMARK    4  A    between atoms: O_5  and  C_19
REMARK    5  A    between atoms: O_8  and  C_22
REMARK    6  A    between atoms: O_9  and  C_23
REMARK    7  A    between atoms: C_12  and  C_17
REMARK                            x       y       z     vdW  Elec       q    Type
REMARK                         _______ _______ _______ _____ _____    ______ ____
ROOT
ATOM      1  O   UNL     1     113.455 127.845 136.454  0.00  0.00    +0.000 OA
ATOM      2  O   UNL     1     113.100 130.151 138.168  0.00  0.00    +0.000 OA
ATOM      3  O   UNL     1     112.609 128.868 138.611  0.00  0.00    +0.000 OA
ATOM      4  C   UNL     1     113.277 129.013 137.320  0.00  0.00    +0.000 A 
ATOM      5  C   UNL     1     113.553 128.683 136.616  0.00  0.00    +0.000 A 
ATOM      6  C   UNL     1     113.063 127.344 137.033  0.00  0.00    +0.000 A 
ATOM      7  C   UNL     1     113.930 129.159 136.058  0.00  0.00    +0.000 A 
ATOM      8  C   UNL     1     112.883 128.529 137.910  0.00  0.00    +0.000 A 
ATOM      9  C   UNL     1     113.377 129.820 137.465  0.00  0.00    +0.000 A 
ATOM     10  C   UNL     1     112.775 127.688 137.765  0.00  0.00    +0.000 A 
ATOM     11  C   UNL     1     114.030 129.965 136.202  0.00  0.00    +0.000 A 
ATOM     12  C   UNL     1     113.753 130.295 136.905  0.00  0.00    +0.000 A 
ENDROOT
BRANCH   6  13
ATOM     13  C   UNL     1     112.964 126.539 136.886  0.00  0.00    +0.000 A 
ATOM     14  C   UNL     1     113.568 126.008 137.074  0.00  0.00    +0.000 A 
ATOM     15  C   UNL     1     112.262 126.263 136.551  0.00  0.00    +0.000 A 
ATOM     16  C   UNL     1     113.469 125.203 136.927  0.00  0.00    +0.000 A 
ATOM     17  C   UNL     1     112.767 124.926 136.592  0.00  0.00    +0.000 A 
ATOM     18  C   UNL     1     112.164 125.457 136.404  0.00  0.00    +0.000 A 
BRANCH  16  19
ATOM     19  O   UNL     1     114.073 124.672 137.115  0.00  0.00    +0.000 OA
ATOM     20  C   UNL     1     114.834 124.951 137.270  0.00  0.00    +0.000 C 
ENDBRANCH  16  19
BRANCH  17  21
ATOM     21  O   UNL     1     112.669 124.121 136.445  0.00  0.00    +0.000 OA
ATOM     22  C   UNL     1     111.911 123.807 136.365  0.00  0.00    +0.000 C 
ENDBRANCH  17  21
ENDBRANCH   6  13
BRANCH   7  23
ATOM     23  O   UNL     1     114.206 128.829 135.354  0.00  0.00    +0.000 OA
ATOM     24  C   UNL     1     113.799 128.959 134.648  0.00  0.00    +0.000 C 
ENDBRANCH   7  23
BRANCH  10  25
ATOM     25  O   UNL     1     112.398 127.215 138.327  0.00  0.00    +0.000 OA
ATOM     26  C   UNL     1     112.380 127.449 139.118  0.00  0.00    +0.000 C 
ENDBRANCH  10  25
BRANCH  11  27
ATOM     27  O   UNL     1     114.406 130.441 135.643  0.00  0.00    +0.000 OA
ATOM     28  C   UNL     1     115.218 130.576 135.695  0.00  0.00    +0.000 C 
ENDBRANCH  11  27
BRANCH  12  29
ATOM     29  O   UNL     1     113.853 131.102 137.050  0.00  0.00    +0.000 OA
ATOM     30  C   UNL     1     113.209 131.614 136.993  0.00  0.00    +0.000 C 
ENDBRANCH  12  29
TORSDOF 7
ENDMDL
MODEL 10
REMARK VINA RESULT:      -7.0      2.170      4.358
REMARK  Name = 136417
REMARK  7 active torsions:
REMARK  status: ('A' for Active; 'I' for Inactive)
REMARK    1  A    between atoms: O_2  and  C_13
REMARK    2  A    between atoms: O_3  and  C_16
REMARK    3  A    between atoms: O_4  and  C_18
REMARK    4  A    between atoms: O_5  and  C_19
REMARK    5  A    between atoms: O_8  and  C_22
REMARK    6  A    between atoms: O_9  and  C_23
REMARK    7  A    between atoms: C_12  and  C_17
REMARK                            x       y       z     vdW  Elec       q    Type
REMARK                         _______ _______ _______ _____ _____    ______ ____
ROOT
ATOM      1  O   UNL     1     106.389 125.384 145.582  0.00  0.00    +0.000 OA
ATOM      2  O   UNL     1     106.309 127.769 143.944  0.00  0.00    +0.000 OA
ATOM      3  O   UNL     1     106.638 127.892 145.344  0.00  0.00    +0.000 OA
ATOM      4  C   UNL     1     106.348 126.589 144.751  0.00  0.00    +0.000 A 
ATOM      5  C   UNL     1     106.266 125.772 144.826  0.00  0.00    +0.000 A 
ATOM      6  C   UNL     1     106.601 125.853 146.270  0.00  0.00    +0.000 A 
ATOM      7  C   UNL     1     106.064 125.316 144.168  0.00  0.00    +0.000 A 
ATOM      8  C   UNL     1     106.558 127.075 145.427  0.00  0.00    +0.000 A 
ATOM      9  C   UNL     1     106.227 126.951 144.019  0.00  0.00    +0.000 A 
ATOM     10  C   UNL     1     106.686 126.705 146.193  0.00  0.00    +0.000 A 
ATOM     11  C   UNL     1     105.943 125.677 143.437  0.00  0.00    +0.000 A 
ATOM     12  C   UNL     1     106.025 126.495 143.362  0.00  0.00    +0.000 A 
ENDROOT
BRANCH   6  13
ATOM     13  C   UNL     1     106.721 125.489 147.001  0.00  0.00    +0.000 A 
ATOM     14  C   UNL     1     106.074 125.277 147.467  0.00  0.00    +0.000 A 
ATOM     15  C   UNL     1     107.487 125.338 147.265  0.00  0.00    +0.000 A 
ATOM     16  C   UNL     1     106.194 124.913 148.197  0.00  0.00    +0.000 A 
ATOM     17  C   UNL     1     106.960 124.761 148.462  0.00  0.00    +0.000 A 
ATOM     18  C   UNL     1     107.607 124.974 147.996  0.00  0.00    +0.000 A 
BRANCH  16  19
ATOM     19  O   UNL     1     105.547 124.701 148.663  0.00  0.00    +0.000 OA
ATOM     20  C   UNL     1     104.779 124.845 148.396  0.00  0.00    +0.000 C 
ENDBRANCH  16  19
BRANCH  17  21
ATOM     21  O   UNL     1     107.080 124.397 149.192  0.00  0.00    +0.000 OA
ATOM     22  C   UNL     1     107.843 124.332 149.500  0.00  0.00    +0.000 C 
ENDBRANCH  17  21
ENDBRANCH   6  13
BRANCH   7  23
ATOM     23  O   UNL     1     105.982 124.499 144.243  0.00  0.00    +0.000 OA
ATOM     24  C   UNL     1     105.231 124.162 144.305  0.00  0.00    +0.000 C 
ENDBRANCH   7  23
BRANCH  10  25
ATOM     25  O   UNL     1     106.888 127.164 146.848  0.00  0.00    +0.000 OA
ATOM     26  C   UNL     1     106.684 127.963 146.871  0.00  0.00    +0.000 C 
ENDBRANCH  10  25
BRANCH  11  27
ATOM     27  O   UNL     1     105.741 125.221 142.779  0.00  0.00    +0.000 OA
ATOM     28  C   UNL     1     106.326 124.961 142.261  0.00  0.00    +0.000 C 
ENDBRANCH  11  27
BRANCH  12  29
ATOM     29  O   UNL     1     105.904 126.856 142.630  0.00  0.00    +0.000 OA
ATOM     30  C   UNL     1     105.265 127.368 142.524  0.00  0.00    +0.000 C 
ENDBRANCH  12  29
TORSDOF 7
ENDMDL
