MODEL 1
REMARK VINA RESULT:     -10.4      0.000      0.000
REMARK  Name = 131752186
REMARK  6 active torsions:
REMARK  status: ('A' for Active; 'I' for Inactive)
REMARK    1  A    between atoms: O_9  and  C_28
REMARK    2  A    between atoms: C_16  and  C_25
REMARK    3  A    between atoms: C_17  and  C_27
REMARK    4  A    between atoms: C_24  and  C_32
REMARK    5  A    between atoms: C_26  and  C_33
REMARK    6  A    between atoms: C_35  and  C_38
REMARK                            x       y       z     vdW  Elec       q    Type
REMARK                         _______ _______ _______ _____ _____    ______ ____
ROOT
ATOM      1  O   UNL     1     113.260 127.157 138.183  0.00  0.00    +0.000 OA
ATOM      2  O   UNL     1     113.946 128.110 140.829  0.00  0.00    +0.000 OA
ATOM      3  O   UNL     1     114.104 126.708 140.528  0.00  0.00    +0.000 OA
ATOM      4  C   UNL     1     113.120 128.558 138.539  0.00  0.00    +0.000 A 
ATOM      5  C   UNL     1     113.459 129.026 139.846  0.00  0.00    +0.000 A 
ATOM      6  C   UNL     1     113.184 129.176 139.082  0.00  0.00    +0.000 A 
ATOM      7  C   UNL     1     113.331 127.792 138.759  0.00  0.00    +0.000 A 
ATOM      8  C   UNL     1     113.671 128.259 140.066  0.00  0.00    +0.000 A 
ATOM      9  C   UNL     1     113.606 127.642 139.522  0.00  0.00    +0.000 A 
ATOM     10  C   UNL     1     113.830 126.848 139.762  0.00  0.00    +0.000 A 
ATOM     11  C   UNL     1     113.478 126.357 138.406  0.00  0.00    +0.000 A 
ATOM     12  C   UNL     1     113.765 126.201 139.201  0.00  0.00    +0.000 A 
ENDROOT
BRANCH   4  17
ATOM     13  O   UNL     1     113.379 128.851 137.165  0.00  0.00    +0.000 OA
ATOM     14  O   UNL     1     111.498 128.570 138.235  0.00  0.00    +0.000 OA
ATOM     15  O   UNL     1     110.948 128.868 136.709  0.00  0.00    +0.000 OA
ATOM     16  O   UNL     1     112.018 129.155 135.486  0.00  0.00    +0.000 OA
ATOM     17  C   UNL     1     112.845 128.707 137.776  0.00  0.00    +0.000 C 
ATOM     18  C   UNL     1     112.033 128.713 137.624  0.00  0.00    +0.000 C 
ATOM     19  C   UNL     1     111.758 128.863 136.860  0.00  0.00    +0.000 C 
ATOM     20  C   UNL     1     112.294 129.006 136.250  0.00  0.00    +0.000 C 
ATOM     21  C   UNL     1     113.104 129.000 136.402  0.00  0.00    +0.000 C 
BRANCH  21  23
ATOM     22  O   UNL     1     114.291 128.647 135.689  0.00  0.00    +0.000 OA
ATOM     23  C   UNL     1     113.640 129.144 135.791  0.00  0.00    +0.000 C 
ENDBRANCH  21  23
ENDBRANCH   4  17
BRANCH   5  28
ATOM     24  O   UNL     1     114.218 130.088 140.428  0.00  0.00    +0.000 OA
ATOM     25  O   UNL     1     112.201 129.372 140.856  0.00  0.00    +0.000 OA
ATOM     26  O   UNL     1     112.331 130.606 141.944  0.00  0.00    +0.000 OA
ATOM     27  O   UNL     1     113.719 131.494 142.021  0.00  0.00    +0.000 OA
ATOM     28  C   UNL     1     113.524 129.643 140.390  0.00  0.00    +0.000 C 
ATOM     29  C   UNL     1     112.895 129.816 140.895  0.00  0.00    +0.000 C 
ATOM     30  C   UNL     1     112.960 130.433 141.438  0.00  0.00    +0.000 C 
ATOM     31  C   UNL     1     113.654 130.877 141.477  0.00  0.00    +0.000 C 
ATOM     32  C   UNL     1     114.283 130.704 140.972  0.00  0.00    +0.000 C 
BRANCH  32  34
ATOM     33  O   UNL     1     115.709 130.778 140.915  0.00  0.00    +0.000 OA
ATOM     34  C   UNL     1     114.977 131.148 141.010  0.00  0.00    +0.000 C 
ENDBRANCH  32  34
ENDBRANCH   5  28
BRANCH  11  36
ATOM     35  O   UNL     1     113.217 123.895 136.224  0.00  0.00    +0.000 OA
ATOM     36  C   UNL     1     113.413 125.741 137.861  0.00  0.00    +0.000 A 
ATOM     37  C   UNL     1     114.066 125.523 137.405  0.00  0.00    +0.000 A 
ATOM     38  C   UNL     1     112.695 125.344 137.770  0.00  0.00    +0.000 A 
ATOM     39  C   UNL     1     114.000 124.907 136.860  0.00  0.00    +0.000 A 
ATOM     40  C   UNL     1     112.630 124.729 137.225  0.00  0.00    +0.000 A 
ATOM     41  C   UNL     1     113.282 124.510 136.769  0.00  0.00    +0.000 A 
ENDBRANCH  11  36
BRANCH   6  42
ATOM     42  O   UNL     1     112.973 129.942 138.863  0.00  0.00    +0.000 OA
ATOM     43  C   UNL     1     113.533 130.444 138.524  0.00  0.00    +0.000 C 
ENDBRANCH   6  42
TORSDOF 6
ENDMDL
MODEL 2
REMARK VINA RESULT:     -10.3      1.137      4.725
REMARK  Name = 131752186
REMARK  6 active torsions:
REMARK  status: ('A' for Active; 'I' for Inactive)
REMARK    1  A    between atoms: O_9  and  C_28
REMARK    2  A    between atoms: C_16  and  C_25
REMARK    3  A    between atoms: C_17  and  C_27
REMARK    4  A    between atoms: C_24  and  C_32
REMARK    5  A    between atoms: C_26  and  C_33
REMARK    6  A    between atoms: C_35  and  C_38
REMARK                            x       y       z     vdW  Elec       q    Type
REMARK                         _______ _______ _______ _____ _____    ______ ____
ROOT
ATOM      1  O   UNL     1     113.469 128.924 139.434  0.00  0.00    +0.000 OA
ATOM      2  O   UNL     1     113.529 126.031 139.345  0.00  0.00    +0.000 OA
ATOM      3  O   UNL     1     114.029 126.705 140.518  0.00  0.00    +0.000 OA
ATOM      4  C   UNL     1     112.979 128.195 138.278  0.00  0.00    +0.000 A 
ATOM      5  C   UNL     1     113.010 126.767 138.235  0.00  0.00    +0.000 A 
ATOM      6  C   UNL     1     112.826 127.489 137.880  0.00  0.00    +0.000 A 
ATOM      7  C   UNL     1     113.315 128.181 139.030  0.00  0.00    +0.000 A 
ATOM      8  C   UNL     1     113.346 126.752 138.989  0.00  0.00    +0.000 A 
ATOM      9  C   UNL     1     113.498 127.459 139.386  0.00  0.00    +0.000 A 
ATOM     10  C   UNL     1     113.849 127.431 140.171  0.00  0.00    +0.000 A 
ATOM     11  C   UNL     1     113.819 128.915 140.219  0.00  0.00    +0.000 A 
ATOM     12  C   UNL     1     114.010 128.164 140.589  0.00  0.00    +0.000 A 
ENDROOT
BRANCH   4  17
ATOM     13  O   UNL     1     113.370 129.322 137.490  0.00  0.00    +0.000 OA
ATOM     14  O   UNL     1     111.463 128.828 138.430  0.00  0.00    +0.000 OA
ATOM     15  O   UNL     1     111.096 130.271 137.718  0.00  0.00    +0.000 OA
ATOM     16  O   UNL     1     112.245 131.080 136.854  0.00  0.00    +0.000 OA
ATOM     17  C   UNL     1     112.796 128.916 137.922  0.00  0.00    +0.000 C 
ATOM     18  C   UNL     1     112.037 129.233 137.998  0.00  0.00    +0.000 C 
ATOM     19  C   UNL     1     111.854 129.955 137.642  0.00  0.00    +0.000 C 
ATOM     20  C   UNL     1     112.429 130.359 137.210  0.00  0.00    +0.000 C 
ATOM     21  C   UNL     1     113.186 130.043 137.134  0.00  0.00    +0.000 C 
BRANCH  21  23
ATOM     22  O   UNL     1     114.507 130.577 137.029  0.00  0.00    +0.000 OA
ATOM     23  C   UNL     1     113.761 130.447 136.702  0.00  0.00    +0.000 C 
ENDBRANCH  21  23
ENDBRANCH   4  17
BRANCH   5  28
ATOM     24  O   UNL     1     113.430 125.735 137.341  0.00  0.00    +0.000 OA
ATOM     25  O   UNL     1     111.561 126.003 138.435  0.00  0.00    +0.000 OA
ATOM     26  O   UNL     1     111.257 124.589 137.641  0.00  0.00    +0.000 OA
ATOM     27  O   UNL     1     112.402 123.940 136.647  0.00  0.00    +0.000 OA
ATOM     28  C   UNL     1     112.857 126.060 137.839  0.00  0.00    +0.000 C 
ATOM     29  C   UNL     1     112.133 125.679 137.938  0.00  0.00    +0.000 C 
ATOM     30  C   UNL     1     111.982 124.971 137.541  0.00  0.00    +0.000 C 
ATOM     31  C   UNL     1     112.554 124.646 137.044  0.00  0.00    +0.000 C 
ATOM     32  C   UNL     1     113.278 125.028 136.944  0.00  0.00    +0.000 C 
BRANCH  32  34
ATOM     33  O   UNL     1     114.642 124.692 136.683  0.00  0.00    +0.000 OA
ATOM     34  C   UNL     1     113.851 124.704 136.447  0.00  0.00    +0.000 C 
ENDBRANCH  32  34
ENDBRANCH   5  28
BRANCH  11  36
ATOM     35  O   UNL     1     114.426 131.748 141.799  0.00  0.00    +0.000 OA
ATOM     36  C   UNL     1     113.971 129.623 140.614  0.00  0.00    +0.000 A 
ATOM     37  C   UNL     1     113.411 129.933 141.135  0.00  0.00    +0.000 A 
ATOM     38  C   UNL     1     114.682 130.021 140.488  0.00  0.00    +0.000 A 
ATOM     39  C   UNL     1     113.563 130.641 141.530  0.00  0.00    +0.000 A 
ATOM     40  C   UNL     1     114.834 130.729 140.883  0.00  0.00    +0.000 A 
ATOM     41  C   UNL     1     114.275 131.040 141.404  0.00  0.00    +0.000 A 
ENDBRANCH  11  36
BRANCH   6  42
ATOM     42  O   UNL     1     112.490 127.503 137.127  0.00  0.00    +0.000 OA
ATOM     43  C   UNL     1     112.974 127.543 136.459  0.00  0.00    +0.000 C 
ENDBRANCH   6  42
TORSDOF 6
ENDMDL
MODEL 3
REMARK VINA RESULT:     -10.1      2.944      4.913
REMARK  Name = 131752186
REMARK  6 active torsions:
REMARK  status: ('A' for Active; 'I' for Inactive)
REMARK    1  A    between atoms: O_9  and  C_28
REMARK    2  A    between atoms: C_16  and  C_25
REMARK    3  A    between atoms: C_17  and  C_27
REMARK    4  A    between atoms: C_24  and  C_32
REMARK    5  A    between atoms: C_26  and  C_33
REMARK    6  A    between atoms: C_35  and  C_38
REMARK                            x       y       z     vdW  Elec       q    Type
REMARK                         _______ _______ _______ _____ _____    ______ ____
ROOT
ATOM      1  O   UNL     1     110.990 126.703 136.909  0.00  0.00    +0.000 OA
ATOM      2  O   UNL     1     110.277 128.923 135.194  0.00  0.00    +0.000 OA
ATOM      3  O   UNL     1     111.114 127.874 134.668  0.00  0.00    +0.000 OA
ATOM      4  C   UNL     1     110.149 127.786 137.389  0.00  0.00    +0.000 A 
ATOM      5  C   UNL     1     109.798 128.881 136.541  0.00  0.00    +0.000 A 
ATOM      6  C   UNL     1     109.756 128.502 137.272  0.00  0.00    +0.000 A 
ATOM      7  C   UNL     1     110.584 127.450 136.775  0.00  0.00    +0.000 A 
ATOM      8  C   UNL     1     110.234 128.544 135.926  0.00  0.00    +0.000 A 
ATOM      9  C   UNL     1     110.627 127.829 136.044  0.00  0.00    +0.000 A 
ATOM     10  C   UNL     1     111.077 127.488 135.396  0.00  0.00    +0.000 A 
ATOM     11  C   UNL     1     111.445 126.348 136.274  0.00  0.00    +0.000 A 
ATOM     12  C   UNL     1     111.489 126.742 135.512  0.00  0.00    +0.000 A 
ENDROOT
BRANCH   4  17
ATOM     13  O   UNL     1     110.693 127.535 138.687  0.00  0.00    +0.000 OA
ATOM     14  O   UNL     1     108.891 126.772 137.721  0.00  0.00    +0.000 OA
ATOM     15  O   UNL     1     108.806 126.014 139.184  0.00  0.00    +0.000 OA
ATOM     16  O   UNL     1     109.979 126.270 140.315  0.00  0.00    +0.000 OA
ATOM     17  C   UNL     1     110.107 127.407 138.121  0.00  0.00    +0.000 C 
ATOM     18  C   UNL     1     109.477 126.900 138.287  0.00  0.00    +0.000 C 
ATOM     19  C   UNL     1     109.434 126.521 139.018  0.00  0.00    +0.000 C 
ATOM     20  C   UNL     1     110.022 126.649 139.584  0.00  0.00    +0.000 C 
ATOM     21  C   UNL     1     110.650 127.156 139.418  0.00  0.00    +0.000 C 
BRANCH  21  23
ATOM     22  O   UNL     1     112.033 127.229 139.771  0.00  0.00    +0.000 OA
ATOM     23  C   UNL     1     111.238 127.285 139.983  0.00  0.00    +0.000 C 
ENDBRANCH  21  23
ENDBRANCH   4  17
BRANCH   5  28
ATOM     24  O   UNL     1     109.788 130.310 136.590  0.00  0.00    +0.000 OA
ATOM     25  O   UNL     1     108.249 128.890 135.973  0.00  0.00    +0.000 OA
ATOM     26  O   UNL     1     107.465 130.323 135.738  0.00  0.00    +0.000 OA
ATOM     27  O   UNL     1     108.229 131.745 136.070  0.00  0.00    +0.000 OA
ATOM     28  C   UNL     1     109.406 129.597 136.423  0.00  0.00    +0.000 C 
ATOM     29  C   UNL     1     108.631 129.602 136.139  0.00  0.00    +0.000 C 
ATOM     30  C   UNL     1     108.239 130.318 136.022  0.00  0.00    +0.000 C 
ATOM     31  C   UNL     1     108.621 131.030 136.188  0.00  0.00    +0.000 C 
ATOM     32  C   UNL     1     109.396 131.025 136.472  0.00  0.00    +0.000 C 
BRANCH  32  34
ATOM     33  O   UNL     1     110.582 131.821 136.470  0.00  0.00    +0.000 OA
ATOM     34  C   UNL     1     109.779 131.737 136.638  0.00  0.00    +0.000 C 
ENDBRANCH  32  34
ENDBRANCH   5  28
BRANCH  11  36
ATOM     35  O   UNL     1     113.014 123.484 136.753  0.00  0.00    +0.000 OA
ATOM     36  C   UNL     1     111.837 125.632 136.393  0.00  0.00    +0.000 A 
ATOM     37  C   UNL     1     111.445 124.919 136.255  0.00  0.00    +0.000 A 
ATOM     38  C   UNL     1     112.620 125.629 136.651  0.00  0.00    +0.000 A 
ATOM     39  C   UNL     1     111.838 124.203 136.375  0.00  0.00    +0.000 A 
ATOM     40  C   UNL     1     113.012 124.913 136.771  0.00  0.00    +0.000 A 
ATOM     41  C   UNL     1     112.622 124.200 136.634  0.00  0.00    +0.000 A 
ENDBRANCH  11  36
BRANCH   6  42
ATOM     42  O   UNL     1     109.321 128.839 137.886  0.00  0.00    +0.000 OA
ATOM     43  C   UNL     1     109.686 129.352 138.419  0.00  0.00    +0.000 C 
ENDBRANCH   6  42
TORSDOF 6
ENDMDL
MODEL 4
REMARK VINA RESULT:     -10.0      2.331      4.321
REMARK  Name = 131752186
REMARK  6 active torsions:
REMARK  status: ('A' for Active; 'I' for Inactive)
REMARK    1  A    between atoms: O_9  and  C_28
REMARK    2  A    between atoms: C_16  and  C_25
REMARK    3  A    between atoms: C_17  and  C_27
REMARK    4  A    between atoms: C_24  and  C_32
REMARK    5  A    between atoms: C_26  and  C_33
REMARK    6  A    between atoms: C_35  and  C_38
REMARK                            x       y       z     vdW  Elec       q    Type
REMARK                         _______ _______ _______ _____ _____    ______ ____
ROOT
ATOM      1  O   UNL     1     112.005 128.076 137.287  0.00  0.00    +0.000 OA
ATOM      2  O   UNL     1     109.201 128.716 137.615  0.00  0.00    +0.000 OA
ATOM      3  O   UNL     1     109.694 127.454 138.111  0.00  0.00    +0.000 OA
ATOM      4  C   UNL     1     111.458 129.333 136.806  0.00  0.00    +0.000 A 
ATOM      5  C   UNL     1     110.073 129.646 136.969  0.00  0.00    +0.000 A 
ATOM      6  C   UNL     1     110.825 129.852 136.699  0.00  0.00    +0.000 A 
ATOM      7  C   UNL     1     111.338 128.609 137.182  0.00  0.00    +0.000 A 
ATOM      8  C   UNL     1     109.954 128.921 137.346  0.00  0.00    +0.000 A 
ATOM      9  C   UNL     1     110.586 128.403 137.452  0.00  0.00    +0.000 A 
ATOM     10  C   UNL     1     110.449 127.651 137.845  0.00  0.00    +0.000 A 
ATOM     11  C   UNL     1     111.887 127.321 137.678  0.00  0.00    +0.000 A 
ATOM     12  C   UNL     1     111.104 127.107 137.959  0.00  0.00    +0.000 A 
ENDROOT
BRANCH   4  17
ATOM     13  O   UNL     1     112.745 129.905 137.046  0.00  0.00    +0.000 OA
ATOM     14  O   UNL     1     111.891 129.011 135.247  0.00  0.00    +0.000 OA
ATOM     15  O   UNL     1     113.395 129.422 134.707  0.00  0.00    +0.000 OA
ATOM     16  O   UNL     1     114.466 130.155 135.727  0.00  0.00    +0.000 OA
ATOM     17  C   UNL     1     112.210 129.538 136.536  0.00  0.00    +0.000 C 
ATOM     18  C   UNL     1     112.427 129.377 135.756  0.00  0.00    +0.000 C 
ATOM     19  C   UNL     1     113.179 129.583 135.486  0.00  0.00    +0.000 C 
ATOM     20  C   UNL     1     113.714 129.950 135.997  0.00  0.00    +0.000 C 
ATOM     21  C   UNL     1     113.497 130.110 136.776  0.00  0.00    +0.000 C 
BRANCH  21  23
ATOM     22  O   UNL     1     114.074 130.242 138.076  0.00  0.00    +0.000 OA
ATOM     23  C   UNL     1     114.032 130.477 137.286  0.00  0.00    +0.000 C 
ENDBRANCH  21  23
ENDBRANCH   4  17
BRANCH   5  28
ATOM     24  O   UNL     1     109.286 130.747 137.427  0.00  0.00    +0.000 OA
ATOM     25  O   UNL     1     109.117 129.520 135.631  0.00  0.00    +0.000 OA
ATOM     26  O   UNL     1     107.851 130.557 135.420  0.00  0.00    +0.000 OA
ATOM     27  O   UNL     1     107.543 131.721 136.547  0.00  0.00    +0.000 OA
ATOM     28  C   UNL     1     109.440 130.165 136.863  0.00  0.00    +0.000 C 
ATOM     29  C   UNL     1     108.962 130.101 136.194  0.00  0.00    +0.000 C 
ATOM     30  C   UNL     1     108.329 130.620 136.089  0.00  0.00    +0.000 C 
ATOM     31  C   UNL     1     108.175 131.202 136.652  0.00  0.00    +0.000 C 
ATOM     32  C   UNL     1     108.653 131.266 137.321  0.00  0.00    +0.000 C 
BRANCH  32  34
ATOM     33  O   UNL     1     108.309 131.631 138.659  0.00  0.00    +0.000 OA
ATOM     34  C   UNL     1     108.499 131.847 137.885  0.00  0.00    +0.000 C 
ENDBRANCH  32  34
ENDBRANCH   5  28
BRANCH  11  36
ATOM     35  O   UNL     1     114.425 125.253 138.099  0.00  0.00    +0.000 OA
ATOM     36  C   UNL     1     112.521 126.804 137.783  0.00  0.00    +0.000 A 
ATOM     37  C   UNL     1     112.715 126.262 137.191  0.00  0.00    +0.000 A 
ATOM     38  C   UNL     1     112.962 126.828 138.480  0.00  0.00    +0.000 A 
ATOM     39  C   UNL     1     113.350 125.746 137.297  0.00  0.00    +0.000 A 
ATOM     40  C   UNL     1     113.597 126.312 138.585  0.00  0.00    +0.000 A 
ATOM     41  C   UNL     1     113.790 125.770 137.994  0.00  0.00    +0.000 A 
ENDBRANCH  11  36
BRANCH   6  42
ATOM     42  O   UNL     1     110.945 130.576 136.324  0.00  0.00    +0.000 OA
ATOM     43  C   UNL     1     111.150 131.242 136.765  0.00  0.00    +0.000 C 
ENDBRANCH   6  42
TORSDOF 6
ENDMDL
MODEL 5
REMARK VINA RESULT:      -9.9      2.643      5.878
REMARK  Name = 131752186
REMARK  6 active torsions:
REMARK  status: ('A' for Active; 'I' for Inactive)
REMARK    1  A    between atoms: O_9  and  C_28
REMARK    2  A    between atoms: C_16  and  C_25
REMARK    3  A    between atoms: C_17  and  C_27
REMARK    4  A    between atoms: C_24  and  C_32
REMARK    5  A    between atoms: C_26  and  C_33
REMARK    6  A    between atoms: C_35  and  C_38
REMARK                            x       y       z     vdW  Elec       q    Type
REMARK                         _______ _______ _______ _____ _____    ______ ____
ROOT
ATOM      1  O   UNL     1     110.335 129.465 135.953  0.00  0.00    +0.000 OA
ATOM      2  O   UNL     1     109.451 126.758 136.472  0.00  0.00    +0.000 OA
ATOM      3  O   UNL     1     108.472 127.760 136.130  0.00  0.00    +0.000 OA
ATOM      4  C   UNL     1     111.279 128.418 136.301  0.00  0.00    +0.000 A 
ATOM      5  C   UNL     1     110.841 127.082 136.557  0.00  0.00    +0.000 A 
ATOM      6  C   UNL     1     111.450 127.635 136.500  0.00  0.00    +0.000 A 
ATOM      7  C   UNL     1     110.500 128.647 136.159  0.00  0.00    +0.000 A 
ATOM      8  C   UNL     1     110.060 127.311 136.415  0.00  0.00    +0.000 A 
ATOM      9  C   UNL     1     109.891 128.094 136.216  0.00  0.00    +0.000 A 
ATOM     10  C   UNL     1     109.074 128.321 136.070  0.00  0.00    +0.000 A 
ATOM     11  C   UNL     1     109.526 129.710 135.804  0.00  0.00    +0.000 A 
ATOM     12  C   UNL     1     108.891 129.134 135.863  0.00  0.00    +0.000 A 
ENDROOT
BRANCH   4  17
ATOM     13  O   UNL     1     112.078 129.445 136.892  0.00  0.00    +0.000 OA
ATOM     14  O   UNL     1     112.120 128.577 134.890  0.00  0.00    +0.000 OA
ATOM     15  O   UNL     1     113.339 129.683 134.776  0.00  0.00    +0.000 OA
ATOM     16  O   UNL     1     113.717 130.630 136.073  0.00  0.00    +0.000 OA
ATOM     17  C   UNL     1     111.889 128.971 136.244  0.00  0.00    +0.000 C 
ATOM     18  C   UNL     1     112.310 129.051 135.538  0.00  0.00    +0.000 C 
ATOM     19  C   UNL     1     112.919 129.604 135.481  0.00  0.00    +0.000 C 
ATOM     20  C   UNL     1     113.108 130.077 136.130  0.00  0.00    +0.000 C 
ATOM     21  C   UNL     1     112.688 129.998 136.835  0.00  0.00    +0.000 C 
BRANCH  21  23
ATOM     22  O   UNL     1     112.277 130.850 137.906  0.00  0.00    +0.000 OA
ATOM     23  C   UNL     1     112.876 130.471 137.484  0.00  0.00    +0.000 C 
ENDBRANCH  21  23
ENDBRANCH   4  17
BRANCH   5  28
ATOM     24  O   UNL     1     111.040 126.073 137.549  0.00  0.00    +0.000 OA
ATOM     25  O   UNL     1     111.121 125.970 135.370  0.00  0.00    +0.000 OA
ATOM     26  O   UNL     1     111.460 124.406 135.769  0.00  0.00    +0.000 OA
ATOM     27  O   UNL     1     111.519 123.953 137.354  0.00  0.00    +0.000 OA
ATOM     28  C   UNL     1     111.010 126.300 136.756  0.00  0.00    +0.000 C 
ATOM     29  C   UNL     1     111.150 125.744 136.162  0.00  0.00    +0.000 C 
ATOM     30  C   UNL     1     111.320 124.962 136.362  0.00  0.00    +0.000 C 
ATOM     31  C   UNL     1     111.349 124.735 137.154  0.00  0.00    +0.000 C 
ATOM     32  C   UNL     1     111.210 125.291 137.748  0.00  0.00    +0.000 C 
BRANCH  32  34
ATOM     33  O   UNL     1     110.600 125.225 139.039  0.00  0.00    +0.000 OA
ATOM     34  C   UNL     1     111.239 125.065 138.541  0.00  0.00    +0.000 C 
ENDBRANCH  32  34
ENDBRANCH   5  28
BRANCH  11  36
ATOM     35  O   UNL     1     108.856 132.842 135.008  0.00  0.00    +0.000 OA
ATOM     36  C   UNL     1     109.358 130.493 135.605  0.00  0.00    +0.000 A 
ATOM     37  C   UNL     1     109.209 131.046 136.199  0.00  0.00    +0.000 A 
ATOM     38  C   UNL     1     109.339 130.722 134.813  0.00  0.00    +0.000 A 
ATOM     39  C   UNL     1     109.042 131.829 135.999  0.00  0.00    +0.000 A 
ATOM     40  C   UNL     1     109.172 131.505 134.614  0.00  0.00    +0.000 A 
ATOM     41  C   UNL     1     109.023 132.059 135.207  0.00  0.00    +0.000 A 
ENDBRANCH  11  36
BRANCH   6  42
ATOM     42  O   UNL     1     112.229 127.406 136.642  0.00  0.00    +0.000 OA
ATOM     43  C   UNL     1     112.540 127.449 137.405  0.00  0.00    +0.000 C 
ENDBRANCH   6  42
TORSDOF 6
ENDMDL
MODEL 6
REMARK VINA RESULT:      -9.9      1.745      2.605
REMARK  Name = 131752186
REMARK  6 active torsions:
REMARK  status: ('A' for Active; 'I' for Inactive)
REMARK    1  A    between atoms: O_9  and  C_28
REMARK    2  A    between atoms: C_16  and  C_25
REMARK    3  A    between atoms: C_17  and  C_27
REMARK    4  A    between atoms: C_24  and  C_32
REMARK    5  A    between atoms: C_26  and  C_33
REMARK    6  A    between atoms: C_35  and  C_38
REMARK                            x       y       z     vdW  Elec       q    Type
REMARK                         _______ _______ _______ _____ _____    ______ ____
ROOT
ATOM      1  O   UNL     1     112.691 127.307 138.095  0.00  0.00    +0.000 OA
ATOM      2  O   UNL     1     111.183 128.243 140.382  0.00  0.00    +0.000 OA
ATOM      3  O   UNL     1     111.762 126.922 140.419  0.00  0.00    +0.000 OA
ATOM      4  C   UNL     1     112.087 128.628 138.110  0.00  0.00    +0.000 A 
ATOM      5  C   UNL     1     111.343 129.088 139.240  0.00  0.00    +0.000 A 
ATOM      6  C   UNL     1     111.644 129.216 138.483  0.00  0.00    +0.000 A 
ATOM      7  C   UNL     1     112.228 127.912 138.494  0.00  0.00    +0.000 A 
ATOM      8  C   UNL     1     111.485 128.371 139.625  0.00  0.00    +0.000 A 
ATOM      9  C   UNL     1     111.927 127.784 139.251  0.00  0.00    +0.000 A 
ATOM     10  C   UNL     1     112.068 127.041 139.662  0.00  0.00    +0.000 A 
ATOM     11  C   UNL     1     112.841 126.559 138.490  0.00  0.00    +0.000 A 
ATOM     12  C   UNL     1     112.527 126.426 139.278  0.00  0.00    +0.000 A 
ENDROOT
BRANCH   4  17
ATOM     13  O   UNL     1     111.963 128.506 136.691  0.00  0.00    +0.000 OA
ATOM     14  O   UNL     1     113.541 129.383 137.917  0.00  0.00    +0.000 OA
ATOM     15  O   UNL     1     114.143 129.640 136.403  0.00  0.00    +0.000 OA
ATOM     16  O   UNL     1     113.291 129.140 135.081  0.00  0.00    +0.000 OA
ATOM     17  C   UNL     1     112.388 128.756 137.353  0.00  0.00    +0.000 C 
ATOM     18  C   UNL     1     113.116 129.134 137.256  0.00  0.00    +0.000 C 
ATOM     19  C   UNL     1     113.417 129.262 136.499  0.00  0.00    +0.000 C 
ATOM     20  C   UNL     1     112.990 129.012 135.838  0.00  0.00    +0.000 C 
ATOM     21  C   UNL     1     112.264 128.635 135.934  0.00  0.00    +0.000 C 
BRANCH  21  23
ATOM     22  O   UNL     1     111.486 127.638 135.268  0.00  0.00    +0.000 OA
ATOM     23  C   UNL     1     111.837 128.385 135.273  0.00  0.00    +0.000 C 
ENDBRANCH  21  23
ENDBRANCH   4  17
BRANCH   5  28
ATOM     24  O   UNL     1     110.083 129.707 139.505  0.00  0.00    +0.000 OA
ATOM     25  O   UNL     1     112.092 130.199 140.203  0.00  0.00    +0.000 OA
ATOM     26  O   UNL     1     111.205 131.374 140.949  0.00  0.00    +0.000 OA
ATOM     27  O   UNL     1     109.572 131.437 140.733  0.00  0.00    +0.000 OA
ATOM     28  C   UNL     1     110.901 129.675 139.613  0.00  0.00    +0.000 C 
ATOM     29  C   UNL     1     111.275 130.231 140.095  0.00  0.00    +0.000 C 
ATOM     30  C   UNL     1     110.831 130.818 140.468  0.00  0.00    +0.000 C 
ATOM     31  C   UNL     1     110.015 130.850 140.360  0.00  0.00    +0.000 C 
ATOM     32  C   UNL     1     109.640 130.294 139.878  0.00  0.00    +0.000 C 
BRANCH  32  34
ATOM     33  O   UNL     1     108.368 129.644 139.870  0.00  0.00    +0.000 OA
ATOM     34  C   UNL     1     108.823 130.325 139.770  0.00  0.00    +0.000 C 
ENDBRANCH  32  34
ENDBRANCH   5  28
BRANCH  11  36
ATOM     35  O   UNL     1     114.613 124.214 136.989  0.00  0.00    +0.000 OA
ATOM     36  C   UNL     1     113.284 125.973 138.115  0.00  0.00    +0.000 A 
ATOM     37  C   UNL     1     112.911 125.427 137.620  0.00  0.00    +0.000 A 
ATOM     38  C   UNL     1     114.099 125.932 138.234  0.00  0.00    +0.000 A 
ATOM     39  C   UNL     1     113.355 124.841 137.245  0.00  0.00    +0.000 A 
ATOM     40  C   UNL     1     114.542 125.346 137.858  0.00  0.00    +0.000 A 
ATOM     41  C   UNL     1     114.170 124.800 137.364  0.00  0.00    +0.000 A 
ENDBRANCH  11  36
BRANCH   6  42
ATOM     42  O   UNL     1     111.503 129.932 138.099  0.00  0.00    +0.000 OA
ATOM     43  C   UNL     1     110.838 130.019 137.618  0.00  0.00    +0.000 C 
ENDBRANCH   6  42
TORSDOF 6
ENDMDL
MODEL 7
REMARK VINA RESULT:      -9.8      2.478      4.577
REMARK  Name = 131752186
REMARK  6 active torsions:
REMARK  status: ('A' for Active; 'I' for Inactive)
REMARK    1  A    between atoms: O_9  and  C_28
REMARK    2  A    between atoms: C_16  and  C_25
REMARK    3  A    between atoms: C_17  and  C_27
REMARK    4  A    between atoms: C_24  and  C_32
REMARK    5  A    between atoms: C_26  and  C_33
REMARK    6  A    between atoms: C_35  and  C_38
REMARK                            x       y       z     vdW  Elec       q    Type
REMARK                         _______ _______ _______ _____ _____    ______ ____
ROOT
ATOM      1  O   UNL     1     112.040 126.752 137.475  0.00  0.00    +0.000 OA
ATOM      2  O   UNL     1     110.914 128.746 135.705  0.00  0.00    +0.000 OA
ATOM      3  O   UNL     1     112.038 127.964 135.252  0.00  0.00    +0.000 OA
ATOM      4  C   UNL     1     110.909 127.567 137.881  0.00  0.00    +0.000 A 
ATOM      5  C   UNL     1     110.354 128.551 137.006  0.00  0.00    +0.000 A 
ATOM      6  C   UNL     1     110.352 128.158 137.731  0.00  0.00    +0.000 A 
ATOM      7  C   UNL     1     111.466 127.369 137.307  0.00  0.00    +0.000 A 
ATOM      8  C   UNL     1     110.912 128.353 136.430  0.00  0.00    +0.000 A 
ATOM      9  C   UNL     1     111.468 127.762 136.581  0.00  0.00    +0.000 A 
ATOM     10  C   UNL     1     112.044 127.565 135.975  0.00  0.00    +0.000 A 
ATOM     11  C   UNL     1     112.623 126.542 136.881  0.00  0.00    +0.000 A 
ATOM     12  C   UNL     1     112.625 126.951 136.126  0.00  0.00    +0.000 A 
ENDROOT
BRANCH   4  17
ATOM     13  O   UNL     1     111.386 127.441 139.222  0.00  0.00    +0.000 OA
ATOM     14  O   UNL     1     109.946 126.245 138.101  0.00  0.00    +0.000 OA
ATOM     15  O   UNL     1     109.943 125.459 139.551  0.00  0.00    +0.000 OA
ATOM     16  O   UNL     1     110.902 125.995 140.783  0.00  0.00    +0.000 OA
ATOM     17  C   UNL     1     110.907 127.174 138.607  0.00  0.00    +0.000 C 
ATOM     18  C   UNL     1     110.425 126.512 138.717  0.00  0.00    +0.000 C 
ATOM     19  C   UNL     1     110.424 126.119 139.442  0.00  0.00    +0.000 C 
ATOM     20  C   UNL     1     110.903 126.388 140.057  0.00  0.00    +0.000 C 
ATOM     21  C   UNL     1     111.384 127.048 139.948  0.00  0.00    +0.000 C 
BRANCH  21  23
ATOM     22  O   UNL     1     112.645 127.536 140.411  0.00  0.00    +0.000 OA
ATOM     23  C   UNL     1     111.864 127.317 140.563  0.00  0.00    +0.000 C 
ENDBRANCH  21  23
ENDBRANCH   4  17
BRANCH   5  28
ATOM     24  O   UNL     1     109.960 129.923 137.067  0.00  0.00    +0.000 OA
ATOM     25  O   UNL     1     108.921 128.171 136.281  0.00  0.00    +0.000 OA
ATOM     26  O   UNL     1     107.811 129.353 135.979  0.00  0.00    +0.000 OA
ATOM     27  O   UNL     1     108.133 130.914 136.402  0.00  0.00    +0.000 OA
ATOM     28  C   UNL     1     109.798 129.141 136.855  0.00  0.00    +0.000 C 
ATOM     29  C   UNL     1     109.082 128.951 136.492  0.00  0.00    +0.000 C 
ATOM     30  C   UNL     1     108.527 129.543 136.342  0.00  0.00    +0.000 C 
ATOM     31  C   UNL     1     108.688 130.324 136.553  0.00  0.00    +0.000 C 
ATOM     32  C   UNL     1     109.404 130.513 136.916  0.00  0.00    +0.000 C 
BRANCH  32  34
ATOM     33  O   UNL     1     110.272 131.649 136.887  0.00  0.00    +0.000 OA
ATOM     34  C   UNL     1     109.566 131.294 137.127  0.00  0.00    +0.000 C 
ENDBRANCH  32  34
ENDBRANCH   5  28
BRANCH  11  36
ATOM     35  O   UNL     1     114.844 124.178 137.494  0.00  0.00    +0.000 OA
ATOM     36  C   UNL     1     113.178 125.951 137.034  0.00  0.00    +0.000 A 
ATOM     37  C   UNL     1     113.033 125.176 136.792  0.00  0.00    +0.000 A 
ATOM     38  C   UNL     1     113.879 126.135 137.429  0.00  0.00    +0.000 A 
ATOM     39  C   UNL     1     113.589 124.585 136.945  0.00  0.00    +0.000 A 
ATOM     40  C   UNL     1     114.433 125.544 137.582  0.00  0.00    +0.000 A 
ATOM     41  C   UNL     1     114.289 124.769 137.341  0.00  0.00    +0.000 A 
ENDBRANCH  11  36
BRANCH   6  42
ATOM     42  O   UNL     1     109.795 128.355 138.306  0.00  0.00    +0.000 OA
ATOM     43  C   UNL     1     109.964 128.941 138.862  0.00  0.00    +0.000 C 
ENDBRANCH   6  42
TORSDOF 6
ENDMDL
MODEL 8
REMARK VINA RESULT:      -9.8      1.761      3.930
REMARK  Name = 131752186
REMARK  6 active torsions:
REMARK  status: ('A' for Active; 'I' for Inactive)
REMARK    1  A    between atoms: O_9  and  C_28
REMARK    2  A    between atoms: C_16  and  C_25
REMARK    3  A    between atoms: C_17  and  C_27
REMARK    4  A    between atoms: C_24  and  C_32
REMARK    5  A    between atoms: C_26  and  C_33
REMARK    6  A    between atoms: C_35  and  C_38
REMARK                            x       y       z     vdW  Elec       q    Type
REMARK                         _______ _______ _______ _____ _____    ______ ____
ROOT
ATOM      1  O   UNL     1     112.786 127.267 137.860  0.00  0.00    +0.000 OA
ATOM      2  O   UNL     1     111.368 129.300 136.365  0.00  0.00    +0.000 OA
ATOM      3  O   UNL     1     111.913 128.166 135.660  0.00  0.00    +0.000 OA
ATOM      4  C   UNL     1     112.217 128.429 138.521  0.00  0.00    +0.000 A 
ATOM      5  C   UNL     1     111.518 129.432 137.781  0.00  0.00    +0.000 A 
ATOM      6  C   UNL     1     111.801 129.141 138.499  0.00  0.00    +0.000 A 
ATOM      7  C   UNL     1     112.350 128.008 137.825  0.00  0.00    +0.000 A 
ATOM      8  C   UNL     1     111.651 129.010 137.084  0.00  0.00    +0.000 A 
ATOM      9  C   UNL     1     112.067 128.298 137.106  0.00  0.00    +0.000 A 
ATOM     10  C   UNL     1     112.200 127.868 136.374  0.00  0.00    +0.000 A 
ATOM     11  C   UNL     1     112.927 126.824 137.138  0.00  0.00    +0.000 A 
ATOM     12  C   UNL     1     112.633 127.126 136.390  0.00  0.00    +0.000 A 
ENDROOT
BRANCH   4  17
ATOM     13  O   UNL     1     112.053 127.596 139.670  0.00  0.00    +0.000 OA
ATOM     14  O   UNL     1     113.679 128.934 139.096  0.00  0.00    +0.000 OA
ATOM     15  O   UNL     1     114.245 128.353 140.533  0.00  0.00    +0.000 OA
ATOM     16  O   UNL     1     113.350 127.267 141.394  0.00  0.00    +0.000 OA
ATOM     17  C   UNL     1     112.500 128.139 139.239  0.00  0.00    +0.000 C 
ATOM     18  C   UNL     1     113.232 128.391 139.527  0.00  0.00    +0.000 C 
ATOM     19  C   UNL     1     113.515 128.101 140.246  0.00  0.00    +0.000 C 
ATOM     20  C   UNL     1     113.067 127.558 140.676  0.00  0.00    +0.000 C 
ATOM     21  C   UNL     1     112.336 127.305 140.388  0.00  0.00    +0.000 C 
BRANCH  21  23
ATOM     22  O   UNL     1     111.549 126.114 140.437  0.00  0.00    +0.000 OA
ATOM     23  C   UNL     1     111.888 126.762 140.819  0.00  0.00    +0.000 C 
ENDBRANCH  21  23
ENDBRANCH   4  17
BRANCH   5  28
ATOM     24  O   UNL     1     110.282 130.145 137.860  0.00  0.00    +0.000 OA
ATOM     25  O   UNL     1     112.321 130.851 137.533  0.00  0.00    +0.000 OA
ATOM     26  O   UNL     1     111.487 132.274 137.488  0.00  0.00    +0.000 OA
ATOM     27  O   UNL     1     109.851 132.277 137.691  0.00  0.00    +0.000 OA
ATOM     28  C   UNL     1     111.101 130.143 137.758  0.00  0.00    +0.000 C 
ATOM     29  C   UNL     1     111.503 130.853 137.634  0.00  0.00    +0.000 C 
ATOM     30  C   UNL     1     111.085 131.564 137.612  0.00  0.00    +0.000 C 
ATOM     31  C   UNL     1     110.267 131.566 137.714  0.00  0.00    +0.000 C 
ATOM     32  C   UNL     1     109.866 130.857 137.838  0.00  0.00    +0.000 C 
BRANCH  32  34
ATOM     33  O   UNL     1     108.585 130.281 137.570  0.00  0.00    +0.000 OA
ATOM     34  C   UNL     1     109.047 130.858 137.939  0.00  0.00    +0.000 C 
ENDBRANCH  32  34
ENDBRANCH   5  28
BRANCH  11  36
ATOM     35  O   UNL     1     114.595 123.977 137.237  0.00  0.00    +0.000 OA
ATOM     36  C   UNL     1     113.344 126.112 137.163  0.00  0.00    +0.000 A 
ATOM     37  C   UNL     1     112.939 125.400 137.256  0.00  0.00    +0.000 A 
ATOM     38  C   UNL     1     114.166 126.113 137.095  0.00  0.00    +0.000 A 
ATOM     39  C   UNL     1     113.356 124.688 137.280  0.00  0.00    +0.000 A 
ATOM     40  C   UNL     1     114.583 125.402 137.119  0.00  0.00    +0.000 A 
ATOM     41  C   UNL     1     114.178 124.689 137.212  0.00  0.00    +0.000 A 
ENDBRANCH  11  36
BRANCH   6  42
ATOM     42  O   UNL     1     111.668 129.562 139.195  0.00  0.00    +0.000 OA
ATOM     43  C   UNL     1     110.996 129.408 139.650  0.00  0.00    +0.000 C 
ENDBRANCH   6  42
TORSDOF 6
ENDMDL
