MODEL 1
REMARK VINA RESULT:      -8.3      0.000      0.000
REMARK  Name = 591624
REMARK  3 active torsions:
REMARK  status: ('A' for Active; 'I' for Inactive)
REMARK    1  A    between atoms: O_3  and  C_16
REMARK    2  A    between atoms: O_4  and  C_19
REMARK    3  A    between atoms: C_5  and  C_9
REMARK                            x       y       z     vdW  Elec       q    Type
REMARK                         _______ _______ _______ _____ _____    ______ ____
ROOT
ATOM      1  O   UNL     1     102.785 123.762 138.317  0.00  0.00    +0.000 OA
ATOM      2  C   UNL     1     104.095 123.814 138.885  0.00  0.00    +0.000 C 
ATOM      3  C   UNL     1     104.413 123.538 138.175  0.00  0.00    +0.000 C 
ATOM      4  C   UNL     1     103.280 123.926 138.956  0.00  0.00    +0.000 C 
ATOM      5  C   UNL     1     103.917 123.374 137.537  0.00  0.00    +0.000 A 
ATOM      6  C   UNL     1     103.102 123.486 137.608  0.00  0.00    +0.000 A 
ATOM      7  C   UNL     1     104.260 123.088 136.803  0.00  0.00    +0.000 A 
ATOM      8  C   UNL     1     102.575 123.319 136.950  0.00  0.00    +0.000 A 
ATOM      9  C   UNL     1     103.748 122.915 136.135  0.00  0.00    +0.000 A 
ATOM     10  C   UNL     1     102.901 123.032 136.209  0.00  0.00    +0.000 A 
ENDROOT
BRANCH   2  12
ATOM     11  O   UNL     1     104.167 122.773 140.163  0.00  0.00    +0.000 OA
ATOM     12  C   UNL     1     104.591 123.977 139.523  0.00  0.00    +0.000 A 
ATOM     13  C   UNL     1     104.628 123.457 140.162  0.00  0.00    +0.000 A 
ATOM     14  C   UNL     1     105.052 124.662 139.522  0.00  0.00    +0.000 A 
ATOM     15  C   UNL     1     105.125 123.622 140.800  0.00  0.00    +0.000 A 
ATOM     16  C   UNL     1     105.549 124.826 140.160  0.00  0.00    +0.000 A 
ATOM     17  C   UNL     1     105.585 124.306 140.799  0.00  0.00    +0.000 A 
BRANCH  17  18
ATOM     18  O   UNL     1     106.082 124.470 141.436  0.00  0.00    +0.000 OA
ATOM     19  C   UNL     1     105.891 125.074 141.964  0.00  0.00    +0.000 C 
ENDBRANCH  17  18
ENDBRANCH   2  12
BRANCH  10  20
ATOM     20  O   UNL     1     102.402 122.869 135.572  0.00  0.00    +0.000 OA
ATOM     21  C   UNL     1     102.579 123.166 134.823  0.00  0.00    +0.000 C 
ENDBRANCH  10  20
TORSDOF 3
ENDMDL
MODEL 2
REMARK VINA RESULT:      -7.5      7.580      9.209
REMARK  Name = 591624
REMARK  3 active torsions:
REMARK  status: ('A' for Active; 'I' for Inactive)
REMARK    1  A    between atoms: O_3  and  C_16
REMARK    2  A    between atoms: O_4  and  C_19
REMARK    3  A    between atoms: C_5  and  C_9
REMARK                            x       y       z     vdW  Elec       q    Type
REMARK                         _______ _______ _______ _____ _____    ______ ____
ROOT
ATOM      1  O   UNL     1     105.578 124.927 145.881  0.00  0.00    +0.000 OA
ATOM      2  C   UNL     1     104.433 124.293 146.454  0.00  0.00    +0.000 C 
ATOM      3  C   UNL     1     104.806 124.285 147.191  0.00  0.00    +0.000 C 
ATOM      4  C   UNL     1     104.819 124.614 145.799  0.00  0.00    +0.000 C 
ATOM      5  C   UNL     1     105.565 124.599 147.271  0.00  0.00    +0.000 A 
ATOM      6  C   UNL     1     105.951 124.919 146.616  0.00  0.00    +0.000 A 
ATOM      7  C   UNL     1     105.943 124.585 148.043  0.00  0.00    +0.000 A 
ATOM      8  C   UNL     1     106.742 125.249 146.688  0.00  0.00    +0.000 A 
ATOM      9  C   UNL     1     106.733 124.909 148.133  0.00  0.00    +0.000 A 
ATOM     10  C   UNL     1     107.135 125.243 147.452  0.00  0.00    +0.000 A 
ENDROOT
BRANCH   2  12
ATOM     11  O   UNL     1     104.217 122.823 145.737  0.00  0.00    +0.000 OA
ATOM     12  C   UNL     1     103.674 123.980 146.374  0.00  0.00    +0.000 A 
ATOM     13  C   UNL     1     103.566 123.245 146.015  0.00  0.00    +0.000 A 
ATOM     14  C   UNL     1     103.022 124.403 146.653  0.00  0.00    +0.000 A 
ATOM     15  C   UNL     1     102.806 122.933 145.935  0.00  0.00    +0.000 A 
ATOM     16  C   UNL     1     102.263 124.090 146.572  0.00  0.00    +0.000 A 
ATOM     17  C   UNL     1     102.155 123.355 146.213  0.00  0.00    +0.000 A 
BRANCH  17  18
ATOM     18  O   UNL     1     101.395 123.043 146.134  0.00  0.00    +0.000 OA
ATOM     19  C   UNL     1     100.918 122.944 146.798  0.00  0.00    +0.000 C 
ENDBRANCH  17  18
ENDBRANCH   2  12
BRANCH  10  20
ATOM     20  O   UNL     1     107.894 125.557 147.530  0.00  0.00    +0.000 OA
ATOM     21  C   UNL     1     108.517 125.073 147.771  0.00  0.00    +0.000 C 
ENDBRANCH  10  20
TORSDOF 3
ENDMDL
MODEL 3
REMARK VINA RESULT:      -7.4      6.730      8.392
REMARK  Name = 591624
REMARK  3 active torsions:
REMARK  status: ('A' for Active; 'I' for Inactive)
REMARK    1  A    between atoms: O_3  and  C_16
REMARK    2  A    between atoms: O_4  and  C_19
REMARK    3  A    between atoms: C_5  and  C_9
REMARK                            x       y       z     vdW  Elec       q    Type
REMARK                         _______ _______ _______ _____ _____    ______ ____
ROOT
ATOM      1  O   UNL     1     103.130 129.537 140.730  0.00  0.00    +0.000 OA
ATOM      2  C   UNL     1     102.694 130.646 141.519  0.00  0.00    +0.000 C 
ATOM      3  C   UNL     1     103.127 130.359 142.161  0.00  0.00    +0.000 C 
ATOM      4  C   UNL     1     102.695 130.235 140.803  0.00  0.00    +0.000 C 
ATOM      5  C   UNL     1     103.560 129.662 142.086  0.00  0.00    +0.000 A 
ATOM      6  C   UNL     1     103.562 129.251 141.371  0.00  0.00    +0.000 A 
ATOM      7  C   UNL     1     104.007 129.373 142.762  0.00  0.00    +0.000 A 
ATOM      8  C   UNL     1     104.010 128.522 141.282  0.00  0.00    +0.000 A 
ATOM      9  C   UNL     1     104.460 128.647 142.691  0.00  0.00    +0.000 A 
ATOM     10  C   UNL     1     104.462 128.219 141.946  0.00  0.00    +0.000 A 
ENDROOT
BRANCH   2  12
ATOM     11  O   UNL     1     103.351 132.082 141.039  0.00  0.00    +0.000 OA
ATOM     12  C   UNL     1     102.261 131.344 141.593  0.00  0.00    +0.000 A 
ATOM     13  C   UNL     1     102.589 132.062 141.353  0.00  0.00    +0.000 A 
ATOM     14  C   UNL     1     101.498 131.324 141.908  0.00  0.00    +0.000 A 
ATOM     15  C   UNL     1     102.154 132.759 141.428  0.00  0.00    +0.000 A 
ATOM     16  C   UNL     1     101.064 132.022 141.983  0.00  0.00    +0.000 A 
ATOM     17  C   UNL     1     101.393 132.739 141.743  0.00  0.00    +0.000 A 
BRANCH  17  18
ATOM     18  O   UNL     1     100.958 133.437 141.818  0.00  0.00    +0.000 OA
ATOM     19  C   UNL     1     100.769 133.727 142.566  0.00  0.00    +0.000 C 
ENDBRANCH  17  18
ENDBRANCH   2  12
BRANCH  10  20
ATOM     20  O   UNL     1     104.895 127.521 141.869  0.00  0.00    +0.000 OA
ATOM     21  C   UNL     1     105.718 127.539 141.915  0.00  0.00    +0.000 C 
ENDBRANCH  10  20
TORSDOF 3
ENDMDL
MODEL 4
REMARK VINA RESULT:      -7.4      9.241     10.432
REMARK  Name = 591624
REMARK  3 active torsions:
REMARK  status: ('A' for Active; 'I' for Inactive)
REMARK    1  A    between atoms: O_3  and  C_16
REMARK    2  A    between atoms: O_4  and  C_19
REMARK    3  A    between atoms: C_5  and  C_9
REMARK                            x       y       z     vdW  Elec       q    Type
REMARK                         _______ _______ _______ _____ _____    ______ ____
ROOT
ATOM      1  O   UNL     1     112.198 126.332 136.202  0.00  0.00    +0.000 OA
ATOM      2  C   UNL     1     113.217 127.320 136.365  0.00  0.00    +0.000 C 
ATOM      3  C   UNL     1     113.747 126.734 136.604  0.00  0.00    +0.000 C 
ATOM      4  C   UNL     1     112.442 127.119 136.164  0.00  0.00    +0.000 C 
ATOM      5  C   UNL     1     113.501 125.947 136.641  0.00  0.00    +0.000 A 
ATOM      6  C   UNL     1     112.727 125.746 136.440  0.00  0.00    +0.000 A 
ATOM      7  C   UNL     1     114.062 125.346 136.891  0.00  0.00    +0.000 A 
ATOM      8  C   UNL     1     112.460 124.930 136.475  0.00  0.00    +0.000 A 
ATOM      9  C   UNL     1     113.813 124.525 136.932  0.00  0.00    +0.000 A 
ATOM     10  C   UNL     1     113.007 124.315 136.723  0.00  0.00    +0.000 A 
ENDROOT
BRANCH   2  12
ATOM     11  O   UNL     1     112.882 128.350 137.610  0.00  0.00    +0.000 OA
ATOM     12  C   UNL     1     113.462 128.107 136.328  0.00  0.00    +0.000 A 
ATOM     13  C   UNL     1     113.295 128.621 136.950  0.00  0.00    +0.000 A 
ATOM     14  C   UNL     1     113.875 128.378 135.667  0.00  0.00    +0.000 A 
ATOM     15  C   UNL     1     113.541 129.408 136.912  0.00  0.00    +0.000 A 
ATOM     16  C   UNL     1     114.121 129.165 135.629  0.00  0.00    +0.000 A 
ATOM     17  C   UNL     1     113.953 129.680 136.252  0.00  0.00    +0.000 A 
BRANCH  17  18
ATOM     18  O   UNL     1     114.200 130.467 136.213  0.00  0.00    +0.000 OA
ATOM     19  C   UNL     1     114.972 130.647 135.990  0.00  0.00    +0.000 C 
ENDBRANCH  17  18
ENDBRANCH   2  12
BRANCH  10  20
ATOM     20  O   UNL     1     112.759 123.529 136.760  0.00  0.00    +0.000 OA
ATOM     21  C   UNL     1     112.084 123.329 137.190  0.00  0.00    +0.000 C 
ENDBRANCH  10  20
TORSDOF 3
ENDMDL
MODEL 5
REMARK VINA RESULT:      -7.3      7.620      8.253
REMARK  Name = 591624
REMARK  3 active torsions:
REMARK  status: ('A' for Active; 'I' for Inactive)
REMARK    1  A    between atoms: O_3  and  C_16
REMARK    2  A    between atoms: O_4  and  C_19
REMARK    3  A    between atoms: C_5  and  C_9
REMARK                            x       y       z     vdW  Elec       q    Type
REMARK                         _______ _______ _______ _____ _____    ______ ____
ROOT
ATOM      1  O   UNL     1     103.043 124.915 146.960  0.00  0.00    +0.000 OA
ATOM      2  C   UNL     1     104.432 124.661 146.744  0.00  0.00    +0.000 C 
ATOM      3  C   UNL     1     104.244 123.951 146.368  0.00  0.00    +0.000 C 
ATOM      4  C   UNL     1     103.832 125.144 147.040  0.00  0.00    +0.000 C 
ATOM      5  C   UNL     1     103.455 123.723 146.289  0.00  0.00    +0.000 A 
ATOM      6  C   UNL     1     102.854 124.206 146.585  0.00  0.00    +0.000 A 
ATOM      7  C   UNL     1     103.271 122.981 145.896  0.00  0.00    +0.000 A 
ATOM      8  C   UNL     1     102.028 123.979 146.508  0.00  0.00    +0.000 A 
ATOM      9  C   UNL     1     102.451 122.739 145.810  0.00  0.00    +0.000 A 
ATOM     10  C   UNL     1     101.826 123.241 146.118  0.00  0.00    +0.000 A 
ENDROOT
BRANCH   2  12
ATOM     11  O   UNL     1     105.123 125.654 145.621  0.00  0.00    +0.000 OA
ATOM     12  C   UNL     1     105.221 124.888 146.823  0.00  0.00    +0.000 A 
ATOM     13  C   UNL     1     105.566 125.385 146.262  0.00  0.00    +0.000 A 
ATOM     14  C   UNL     1     105.665 124.619 147.465  0.00  0.00    +0.000 A 
ATOM     15  C   UNL     1     106.356 125.611 146.342  0.00  0.00    +0.000 A 
ATOM     16  C   UNL     1     106.454 124.846 147.544  0.00  0.00    +0.000 A 
ATOM     17  C   UNL     1     106.799 125.342 146.983  0.00  0.00    +0.000 A 
BRANCH  17  18
ATOM     18  O   UNL     1     107.589 125.568 147.063  0.00  0.00    +0.000 OA
ATOM     19  C   UNL     1     108.016 125.346 147.732  0.00  0.00    +0.000 C 
ENDBRANCH  17  18
ENDBRANCH   2  12
BRANCH  10  20
ATOM     20  O   UNL     1     101.036 123.016 146.040  0.00  0.00    +0.000 OA
ATOM     21  C   UNL     1     100.710 122.909 145.289  0.00  0.00    +0.000 C 
ENDBRANCH  10  20
TORSDOF 3
ENDMDL
MODEL 6
REMARK VINA RESULT:      -7.3      6.837      8.412
REMARK  Name = 591624
REMARK  3 active torsions:
REMARK  status: ('A' for Active; 'I' for Inactive)
REMARK    1  A    between atoms: O_3  and  C_16
REMARK    2  A    between atoms: O_4  and  C_19
REMARK    3  A    between atoms: C_5  and  C_9
REMARK                            x       y       z     vdW  Elec       q    Type
REMARK                         _______ _______ _______ _____ _____    ______ ____
ROOT
ATOM      1  O   UNL     1     103.317 131.901 141.312  0.00  0.00    +0.000 OA
ATOM      2  C   UNL     1     103.268 130.538 141.740  0.00  0.00    +0.000 C 
ATOM      3  C   UNL     1     102.489 130.646 141.993  0.00  0.00    +0.000 C 
ATOM      4  C   UNL     1     103.682 131.166 141.399  0.00  0.00    +0.000 C 
ATOM      5  C   UNL     1     102.126 131.381 141.905  0.00  0.00    +0.000 A 
ATOM      6  C   UNL     1     102.540 132.009 141.565  0.00  0.00    +0.000 A 
ATOM      7  C   UNL     1     101.315 131.481 142.173  0.00  0.00    +0.000 A 
ATOM      8  C   UNL     1     102.172 132.779 141.469  0.00  0.00    +0.000 A 
ATOM      9  C   UNL     1     100.931 132.245 142.085  0.00  0.00    +0.000 A 
ATOM     10  C   UNL     1     101.362 132.898 141.731  0.00  0.00    +0.000 A 
ENDROOT
BRANCH   2  12
ATOM     11  O   UNL     1     103.251 129.455 140.495  0.00  0.00    +0.000 OA
ATOM     12  C   UNL     1     103.631 129.803 141.827  0.00  0.00    +0.000 A 
ATOM     13  C   UNL     1     103.623 129.261 141.205  0.00  0.00    +0.000 A 
ATOM     14  C   UNL     1     104.004 129.609 142.538  0.00  0.00    +0.000 A 
ATOM     15  C   UNL     1     103.987 128.526 141.293  0.00  0.00    +0.000 A 
ATOM     16  C   UNL     1     104.367 128.874 142.626  0.00  0.00    +0.000 A 
ATOM     17  C   UNL     1     104.358 128.332 142.003  0.00  0.00    +0.000 A 
BRANCH  17  18
ATOM     18  O   UNL     1     104.722 127.597 142.092  0.00  0.00    +0.000 OA
ATOM     19  C   UNL     1     105.543 127.535 142.050  0.00  0.00    +0.000 C 
ENDBRANCH  17  18
ENDBRANCH   2  12
BRANCH  10  20
ATOM     20  O   UNL     1     101.000 133.634 141.642  0.00  0.00    +0.000 OA
ATOM     21  C   UNL     1     100.710 134.033 142.303  0.00  0.00    +0.000 C 
ENDBRANCH  10  20
TORSDOF 3
ENDMDL
MODEL 7
REMARK VINA RESULT:      -7.2      7.115      8.141
REMARK  Name = 591624
REMARK  3 active torsions:
REMARK  status: ('A' for Active; 'I' for Inactive)
REMARK    1  A    between atoms: O_3  and  C_16
REMARK    2  A    between atoms: O_4  and  C_19
REMARK    3  A    between atoms: C_5  and  C_9
REMARK                            x       y       z     vdW  Elec       q    Type
REMARK                         _______ _______ _______ _____ _____    ______ ____
ROOT
ATOM      1  O   UNL     1     110.239 125.426 135.190  0.00  0.00    +0.000 OA
ATOM      2  C   UNL     1     110.065 126.774 135.632  0.00  0.00    +0.000 C 
ATOM      3  C   UNL     1     110.656 126.664 136.198  0.00  0.00    +0.000 C 
ATOM      4  C   UNL     1     109.856 126.155 135.128  0.00  0.00    +0.000 C 
ATOM      5  C   UNL     1     111.038 125.936 136.258  0.00  0.00    +0.000 A 
ATOM      6  C   UNL     1     110.829 125.317 135.754  0.00  0.00    +0.000 A 
ATOM      7  C   UNL     1     111.653 125.834 136.851  0.00  0.00    +0.000 A 
ATOM      8  C   UNL     1     111.221 124.553 135.808  0.00  0.00    +0.000 A 
ATOM      9  C   UNL     1     112.054 125.078 136.919  0.00  0.00    +0.000 A 
ATOM     10  C   UNL     1     111.837 124.433 136.394  0.00  0.00    +0.000 A 
ENDROOT
BRANCH   2  12
ATOM     11  O   UNL     1     108.610 127.008 136.375  0.00  0.00    +0.000 OA
ATOM     12  C   UNL     1     109.683 127.502 135.572  0.00  0.00    +0.000 A 
ATOM     13  C   UNL     1     108.955 127.620 135.943  0.00  0.00    +0.000 A 
ATOM     14  C   UNL     1     110.029 128.115 135.139  0.00  0.00    +0.000 A 
ATOM     15  C   UNL     1     108.574 128.349 135.882  0.00  0.00    +0.000 A 
ATOM     16  C   UNL     1     109.647 128.843 135.078  0.00  0.00    +0.000 A 
ATOM     17  C   UNL     1     108.920 128.960 135.450  0.00  0.00    +0.000 A 
BRANCH  17  18
ATOM     18  O   UNL     1     108.539 129.690 135.389  0.00  0.00    +0.000 OA
ATOM     19  C   UNL     1     108.812 130.336 135.821  0.00  0.00    +0.000 C 
ENDBRANCH  17  18
ENDBRANCH   2  12
BRANCH  10  20
ATOM     20  O   UNL     1     112.218 123.704 136.453  0.00  0.00    +0.000 OA
ATOM     21  C   UNL     1     112.102 123.231 137.119  0.00  0.00    +0.000 C 
ENDBRANCH  10  20
TORSDOF 3
ENDMDL
MODEL 8
REMARK VINA RESULT:      -7.1      7.667      9.770
REMARK  Name = 591624
REMARK  3 active torsions:
REMARK  status: ('A' for Active; 'I' for Inactive)
REMARK    1  A    between atoms: O_3  and  C_16
REMARK    2  A    between atoms: O_4  and  C_19
REMARK    3  A    between atoms: C_5  and  C_9
REMARK                            x       y       z     vdW  Elec       q    Type
REMARK                         _______ _______ _______ _____ _____    ______ ____
ROOT
ATOM      1  O   UNL     1     113.752 125.952 137.970  0.00  0.00    +0.000 OA
ATOM      2  C   UNL     1     112.434 125.951 137.418  0.00  0.00    +0.000 C 
ATOM      3  C   UNL     1     112.140 126.266 138.122  0.00  0.00    +0.000 C 
ATOM      4  C   UNL     1     113.241 125.794 137.342  0.00  0.00    +0.000 C 
ATOM      5  C   UNL     1     112.652 126.423 138.749  0.00  0.00    +0.000 A 
ATOM      6  C   UNL     1     113.458 126.266 138.673  0.00  0.00    +0.000 A 
ATOM      7  C   UNL     1     112.333 126.750 139.477  0.00  0.00    +0.000 A 
ATOM      8  C   UNL     1     114.002 126.426 139.320  0.00  0.00    +0.000 A 
ATOM      9  C   UNL     1     112.861 126.916 140.134  0.00  0.00    +0.000 A 
ATOM     10  C   UNL     1     113.701 126.753 140.055  0.00  0.00    +0.000 A 
ENDROOT
BRANCH   2  12
ATOM     11  O   UNL     1     111.806 124.438 137.224  0.00  0.00    +0.000 OA
ATOM     12  C   UNL     1     111.922 125.794 136.791  0.00  0.00    +0.000 A 
ATOM     13  C   UNL     1     111.608 125.037 136.694  0.00  0.00    +0.000 A 
ATOM     14  C   UNL     1     111.724 126.394 136.260  0.00  0.00    +0.000 A 
ATOM     15  C   UNL     1     111.095 124.881 136.066  0.00  0.00    +0.000 A 
ATOM     16  C   UNL     1     111.211 126.237 135.633  0.00  0.00    +0.000 A 
ATOM     17  C   UNL     1     110.897 125.480 135.536  0.00  0.00    +0.000 A 
BRANCH  17  18
ATOM     18  O   UNL     1     110.385 125.324 134.908  0.00  0.00    +0.000 OA
ATOM     19  C   UNL     1     109.727 125.805 134.783  0.00  0.00    +0.000 C 
ENDBRANCH  17  18
ENDBRANCH   2  12
BRANCH  10  20
ATOM     20  O   UNL     1     114.215 126.910 140.680  0.00  0.00    +0.000 OA
ATOM     21  C   UNL     1     114.460 127.684 140.829  0.00  0.00    +0.000 C 
ENDBRANCH  10  20
TORSDOF 3
ENDMDL
MODEL 9
REMARK VINA RESULT:      -7.1      7.136      7.973
REMARK  Name = 591624
REMARK  3 active torsions:
REMARK  status: ('A' for Active; 'I' for Inactive)
REMARK    1  A    between atoms: O_3  and  C_16
REMARK    2  A    between atoms: O_4  and  C_19
REMARK    3  A    between atoms: C_5  and  C_9
REMARK                            x       y       z     vdW  Elec       q    Type
REMARK                         _______ _______ _______ _____ _____    ______ ____
ROOT
ATOM      1  O   UNL     1     108.653 127.637 136.206  0.00  0.00    +0.000 OA
ATOM      2  C   UNL     1     109.877 126.946 135.954  0.00  0.00    +0.000 C 
ATOM      3  C   UNL     1     110.194 127.630 135.619  0.00  0.00    +0.000 C 
ATOM      4  C   UNL     1     109.107 126.949 136.248  0.00  0.00    +0.000 C 
ATOM      5  C   UNL     1     109.740 128.317 135.578  0.00  0.00    +0.000 A 
ATOM      6  C   UNL     1     108.969 128.321 135.872  0.00  0.00    +0.000 A 
ATOM      7  C   UNL     1     110.081 129.024 135.226  0.00  0.00    +0.000 A 
ATOM      8  C   UNL     1     108.486 129.031 135.834  0.00  0.00    +0.000 A 
ATOM      9  C   UNL     1     109.612 129.743 135.180  0.00  0.00    +0.000 A 
ATOM     10  C   UNL     1     108.810 129.746 135.486  0.00  0.00    +0.000 A 
ENDROOT
BRANCH   2  12
ATOM     11  O   UNL     1     109.765 125.808 134.764  0.00  0.00    +0.000 OA
ATOM     12  C   UNL     1     110.332 126.259 135.995  0.00  0.00    +0.000 A 
ATOM     13  C   UNL     1     110.276 125.690 135.400  0.00  0.00    +0.000 A 
ATOM     14  C   UNL     1     110.844 126.141 136.633  0.00  0.00    +0.000 A 
ATOM     15  C   UNL     1     110.732 125.003 135.443  0.00  0.00    +0.000 A 
ATOM     16  C   UNL     1     111.299 125.454 136.674  0.00  0.00    +0.000 A 
ATOM     17  C   UNL     1     111.242 124.885 136.079  0.00  0.00    +0.000 A 
BRANCH  17  18
ATOM     18  O   UNL     1     111.698 124.198 136.121  0.00  0.00    +0.000 OA
ATOM     19  C   UNL     1     111.910 123.888 136.855  0.00  0.00    +0.000 C 
ENDBRANCH  17  18
ENDBRANCH   2  12
BRANCH  10  20
ATOM     20  O   UNL     1     108.353 130.432 135.446  0.00  0.00    +0.000 OA
ATOM     21  C   UNL     1     108.255 130.902 136.117  0.00  0.00    +0.000 C 
ENDBRANCH  10  20
TORSDOF 3
ENDMDL
MODEL 10
REMARK VINA RESULT:      -7.0      9.327     10.747
REMARK  Name = 591624
REMARK  3 active torsions:
REMARK  status: ('A' for Active; 'I' for Inactive)
REMARK    1  A    between atoms: O_3  and  C_16
REMARK    2  A    between atoms: O_4  and  C_19
REMARK    3  A    between atoms: C_5  and  C_9
REMARK                            x       y       z     vdW  Elec       q    Type
REMARK                         _______ _______ _______ _____ _____    ______ ____
ROOT
ATOM      1  O   UNL     1     113.014 128.546 137.165  0.00  0.00    +0.000 OA
ATOM      2  C   UNL     1     113.024 127.274 136.513  0.00  0.00    +0.000 C 
ATOM      3  C   UNL     1     113.532 127.574 135.936  0.00  0.00    +0.000 C 
ATOM      4  C   UNL     1     112.764 127.760 137.127  0.00  0.00    +0.000 C 
ATOM      5  C   UNL     1     113.780 128.360 135.974  0.00  0.00    +0.000 A 
ATOM      6  C   UNL     1     113.521 128.846 136.589  0.00  0.00    +0.000 A 
ATOM      7  C   UNL     1     114.310 128.661 135.367  0.00  0.00    +0.000 A 
ATOM      8  C   UNL     1     113.773 129.666 136.639  0.00  0.00    +0.000 A 
ATOM      9  C   UNL     1     114.572 129.478 135.401  0.00  0.00    +0.000 A 
ATOM     10  C   UNL     1     114.302 129.984 136.041  0.00  0.00    +0.000 A 
ENDROOT
BRANCH   2  12
ATOM     11  O   UNL     1     111.522 126.910 135.935  0.00  0.00    +0.000 OA
ATOM     12  C   UNL     1     112.775 126.488 136.474  0.00  0.00    +0.000 A 
ATOM     13  C   UNL     1     112.024 126.306 136.186  0.00  0.00    +0.000 A 
ATOM     14  C   UNL     1     113.279 125.884 136.725  0.00  0.00    +0.000 A 
ATOM     15  C   UNL     1     111.777 125.520 136.148  0.00  0.00    +0.000 A 
ATOM     16  C   UNL     1     113.030 125.099 136.687  0.00  0.00    +0.000 A 
ATOM     17  C   UNL     1     112.279 124.916 136.398  0.00  0.00    +0.000 A 
BRANCH  17  18
ATOM     18  O   UNL     1     112.032 124.130 136.360  0.00  0.00    +0.000 OA
ATOM     19  C   UNL     1     112.025 123.666 137.042  0.00  0.00    +0.000 C 
ENDBRANCH  17  18
ENDBRANCH   2  12
BRANCH  10  20
ATOM     20  O   UNL     1     114.549 130.770 136.081  0.00  0.00    +0.000 OA
ATOM     21  C   UNL     1     115.114 131.052 135.550  0.00  0.00    +0.000 C 
ENDBRANCH  10  20
TORSDOF 3
ENDMDL
