MODEL 1
REMARK VINA RESULT:     -10.5      0.000      0.000
REMARK  Name = 131833489
REMARK  6 active torsions:
REMARK  status: ('A' for Active; 'I' for Inactive)
REMARK    1  A    between atoms: O_2  and  C_25
REMARK    2  A    between atoms: O_2  and  C_28
REMARK    3  A    between atoms: C_17  and  C_22
REMARK    4  A    between atoms: C_21  and  C_27
REMARK    5  A    between atoms: C_29  and  C_34
REMARK    6  A    between atoms: C_37  and  C_38
REMARK                            x       y       z     vdW  Elec       q    Type
REMARK                         _______ _______ _______ _____ _____    ______ ____
ROOT
ATOM      1  O   UNL     1     113.552 125.945 139.305  0.00  0.00    +0.000 OA
ATOM      2  O   UNL     1     113.432 128.836 139.386  0.00  0.00    +0.000 OA
ATOM      3  O   UNL     1     114.058 126.633 140.468  0.00  0.00    +0.000 OA
ATOM      4  C   UNL     1     112.997 126.667 138.203  0.00  0.00    +0.000 A 
ATOM      5  C   UNL     1     112.792 127.382 137.848  0.00  0.00    +0.000 A 
ATOM      6  C   UNL     1     113.347 126.662 138.950  0.00  0.00    +0.000 A 
ATOM      7  C   UNL     1     113.491 127.373 139.342  0.00  0.00    +0.000 A 
ATOM      8  C   UNL     1     112.937 128.093 138.240  0.00  0.00    +0.000 A 
ATOM      9  C   UNL     1     113.287 128.088 138.987  0.00  0.00    +0.000 A 
ATOM     10  C   UNL     1     113.856 127.355 140.120  0.00  0.00    +0.000 A 
ATOM     11  C   UNL     1     114.010 128.092 140.534  0.00  0.00    +0.000 A 
ATOM     12  C   UNL     1     113.796 128.838 140.164  0.00  0.00    +0.000 A 
ENDROOT
BRANCH   4  17
ATOM     13  O   UNL     1     113.419 125.645 137.297  0.00  0.00    +0.000 OA
ATOM     14  O   UNL     1     111.575 125.865 138.445  0.00  0.00    +0.000 OA
ATOM     15  O   UNL     1     111.286 124.443 137.660  0.00  0.00    +0.000 OA
ATOM     16  O   UNL     1     112.418 123.822 136.633  0.00  0.00    +0.000 OA
ATOM     17  C   UNL     1     112.852 125.955 137.810  0.00  0.00    +0.000 C 
ATOM     18  C   UNL     1     112.141 125.554 137.932  0.00  0.00    +0.000 C 
ATOM     19  C   UNL     1     111.997 124.844 137.539  0.00  0.00    +0.000 C 
ATOM     20  C   UNL     1     112.563 124.533 137.025  0.00  0.00    +0.000 C 
ATOM     21  C   UNL     1     113.274 124.933 136.904  0.00  0.00    +0.000 C 
BRANCH  21  23
ATOM     22  O   UNL     1     114.547 125.030 136.264  0.00  0.00    +0.000 OA
ATOM     23  C   UNL     1     113.840 124.624 136.391  0.00  0.00    +0.000 C 
ENDBRANCH  21  23
ENDBRANCH   4  17
BRANCH  12  25
ATOM     24  O   UNL     1     114.372 131.688 141.723  0.00  0.00    +0.000 OA
ATOM     25  C   UNL     1     113.940 129.550 140.554  0.00  0.00    +0.000 A 
ATOM     26  C   UNL     1     113.387 129.846 141.091  0.00  0.00    +0.000 A 
ATOM     27  C   UNL     1     114.636 129.968 140.407  0.00  0.00    +0.000 A 
ATOM     28  C   UNL     1     113.531 130.559 141.481  0.00  0.00    +0.000 A 
ATOM     29  C   UNL     1     114.781 130.680 140.796  0.00  0.00    +0.000 A 
ATOM     30  C   UNL     1     114.228 130.976 141.333  0.00  0.00    +0.000 A 
ENDBRANCH  12  25
BRANCH   5  31
ATOM     31  O   UNL     1     112.442 127.387 137.100  0.00  0.00    +0.000 OA
BRANCH  31  38
ATOM     32  O   UNL     1     113.375 128.194 136.379  0.00  0.00    +0.000 OA
ATOM     33  O   UNL     1     111.194 128.247 136.448  0.00  0.00    +0.000 OA
ATOM     34  O   UNL     1     111.503 129.483 135.400  0.00  0.00    +0.000 OA
ATOM     35  O   UNL     1     113.060 129.861 135.006  0.00  0.00    +0.000 OA
ATOM     36  C   UNL     1     111.973 128.435 136.251  0.00  0.00    +0.000 C 
ATOM     37  C   UNL     1     112.127 129.054 135.727  0.00  0.00    +0.000 C 
ATOM     38  C   UNL     1     112.597 128.005 136.577  0.00  0.00    +0.000 C 
ATOM     39  C   UNL     1     112.906 129.242 135.530  0.00  0.00    +0.000 C 
ATOM     40  C   UNL     1     113.530 128.812 135.856  0.00  0.00    +0.000 C 
BRANCH  40  43
ATOM     41  O   UNL     1     114.667 129.668 135.984  0.00  0.00    +0.000 OA
ATOM     42  O   UNL     1     114.728 128.522 135.133  0.00  0.00    +0.000 OA
ATOM     43  C   UNL     1     114.308 129.001 135.658  0.00  0.00    +0.000 C 
ENDBRANCH  40  43
ENDBRANCH  31  38
ENDBRANCH   5  31
TORSDOF 6
ENDMDL
MODEL 2
REMARK VINA RESULT:     -10.4      1.696      5.208
REMARK  Name = 131833489
REMARK  6 active torsions:
REMARK  status: ('A' for Active; 'I' for Inactive)
REMARK    1  A    between atoms: O_2  and  C_25
REMARK    2  A    between atoms: O_2  and  C_28
REMARK    3  A    between atoms: C_17  and  C_22
REMARK    4  A    between atoms: C_21  and  C_27
REMARK    5  A    between atoms: C_29  and  C_34
REMARK    6  A    between atoms: C_37  and  C_38
REMARK                            x       y       z     vdW  Elec       q    Type
REMARK                         _______ _______ _______ _____ _____    ______ ____
ROOT
ATOM      1  O   UNL     1     113.916 128.301 141.126  0.00  0.00    +0.000 OA
ATOM      2  O   UNL     1     113.277 127.316 138.481  0.00  0.00    +0.000 OA
ATOM      3  O   UNL     1     114.171 126.916 140.816  0.00  0.00    +0.000 OA
ATOM      4  C   UNL     1     113.356 129.185 140.152  0.00  0.00    +0.000 A 
ATOM      5  C   UNL     1     113.064 129.319 139.393  0.00  0.00    +0.000 A 
ATOM      6  C   UNL     1     113.624 128.434 140.365  0.00  0.00    +0.000 A 
ATOM      7  C   UNL     1     113.599 127.818 139.819  0.00  0.00    +0.000 A 
ATOM      8  C   UNL     1     113.040 128.702 138.846  0.00  0.00    +0.000 A 
ATOM      9  C   UNL     1     113.307 127.951 139.059  0.00  0.00    +0.000 A 
ATOM     10  C   UNL     1     113.881 127.040 140.053  0.00  0.00    +0.000 A 
ATOM     11  C   UNL     1     113.858 126.393 139.488  0.00  0.00    +0.000 A 
ATOM     12  C   UNL     1     113.554 126.532 138.696  0.00  0.00    +0.000 A 
ENDROOT
BRANCH   4  17
ATOM     13  O   UNL     1     112.733 129.943 141.191  0.00  0.00    +0.000 OA
ATOM     14  O   UNL     1     114.699 130.138 140.262  0.00  0.00    +0.000 OA
ATOM     15  O   UNL     1     114.747 131.373 141.355  0.00  0.00    +0.000 OA
ATOM     16  O   UNL     1     113.453 131.654 142.340  0.00  0.00    +0.000 OA
ATOM     17  C   UNL     1     113.381 129.803 140.700  0.00  0.00    +0.000 C 
ATOM     18  C   UNL     1     114.052 130.279 140.754  0.00  0.00    +0.000 C 
ATOM     19  C   UNL     1     114.076 130.896 141.301  0.00  0.00    +0.000 C 
ATOM     20  C   UNL     1     113.429 131.038 141.793  0.00  0.00    +0.000 C 
ATOM     21  C   UNL     1     112.758 130.561 141.738  0.00  0.00    +0.000 C 
BRANCH  21  23
ATOM     22  O   UNL     1     111.400 130.301 142.101  0.00  0.00    +0.000 OA
ATOM     23  C   UNL     1     112.111 130.702 142.230  0.00  0.00    +0.000 C 
ENDBRANCH  21  23
ENDBRANCH   4  17
BRANCH  12  25
ATOM     24  O   UNL     1     113.452 124.071 136.501  0.00  0.00    +0.000 OA
ATOM     25  C   UNL     1     113.528 125.917 138.147  0.00  0.00    +0.000 A 
ATOM     26  C   UNL     1     112.805 125.578 137.941  0.00  0.00    +0.000 A 
ATOM     27  C   UNL     1     114.226 125.640 137.805  0.00  0.00    +0.000 A 
ATOM     28  C   UNL     1     112.779 124.963 137.392  0.00  0.00    +0.000 A 
ATOM     29  C   UNL     1     114.201 125.025 137.256  0.00  0.00    +0.000 A 
ATOM     30  C   UNL     1     113.477 124.686 137.050  0.00  0.00    +0.000 A 
ENDBRANCH  12  25
BRANCH   5  31
ATOM     31  O   UNL     1     112.797 130.070 139.180  0.00  0.00    +0.000 OA
BRANCH  31  38
ATOM     32  O   UNL     1     111.449 129.783 138.799  0.00  0.00    +0.000 OA
ATOM     33  O   UNL     1     112.995 130.961 137.805  0.00  0.00    +0.000 OA
ATOM     34  O   UNL     1     111.748 131.120 136.737  0.00  0.00    +0.000 OA
ATOM     35  O   UNL     1     110.301 130.387 137.043  0.00  0.00    +0.000 OA
ATOM     36  C   UNL     1     112.273 130.595 137.959  0.00  0.00    +0.000 C 
ATOM     37  C   UNL     1     111.648 130.674 137.424  0.00  0.00    +0.000 C 
ATOM     38  C   UNL     1     112.173 130.149 138.646  0.00  0.00    +0.000 C 
ATOM     39  C   UNL     1     110.925 130.308 137.578  0.00  0.00    +0.000 C 
ATOM     40  C   UNL     1     110.826 129.862 138.265  0.00  0.00    +0.000 C 
BRANCH  40  43
ATOM     41  O   UNL     1     109.906 128.794 138.035  0.00  0.00    +0.000 OA
ATOM     42  O   UNL     1     109.575 129.835 138.955  0.00  0.00    +0.000 OA
ATOM     43  C   UNL     1     110.102 129.497 138.418  0.00  0.00    +0.000 C 
ENDBRANCH  40  43
ENDBRANCH  31  38
ENDBRANCH   5  31
TORSDOF 6
ENDMDL
MODEL 3
REMARK VINA RESULT:     -10.4      2.495      5.845
REMARK  Name = 131833489
REMARK  6 active torsions:
REMARK  status: ('A' for Active; 'I' for Inactive)
REMARK    1  A    between atoms: O_2  and  C_25
REMARK    2  A    between atoms: O_2  and  C_28
REMARK    3  A    between atoms: C_17  and  C_22
REMARK    4  A    between atoms: C_21  and  C_27
REMARK    5  A    between atoms: C_29  and  C_34
REMARK    6  A    between atoms: C_37  and  C_38
REMARK                            x       y       z     vdW  Elec       q    Type
REMARK                         _______ _______ _______ _____ _____    ______ ____
ROOT
ATOM      1  O   UNL     1     108.543 128.536 136.289  0.00  0.00    +0.000 OA
ATOM      2  O   UNL     1     111.018 127.095 136.707  0.00  0.00    +0.000 OA
ATOM      3  O   UNL     1     108.502 127.099 136.419  0.00  0.00    +0.000 OA
ATOM      4  C   UNL     1     109.779 129.249 136.365  0.00  0.00    +0.000 A 
ATOM      5  C   UNL     1     110.599 129.252 136.458  0.00  0.00    +0.000 A 
ATOM      6  C   UNL     1     109.363 128.537 136.383  0.00  0.00    +0.000 A 
ATOM      7  C   UNL     1     109.767 127.827 136.496  0.00  0.00    +0.000 A 
ATOM      8  C   UNL     1     111.002 128.541 136.571  0.00  0.00    +0.000 A 
ATOM      9  C   UNL     1     110.586 127.829 136.590  0.00  0.00    +0.000 A 
ATOM     10  C   UNL     1     109.323 127.092 136.513  0.00  0.00    +0.000 A 
ATOM     11  C   UNL     1     109.737 126.348 136.630  0.00  0.00    +0.000 A 
ATOM     12  C   UNL     1     110.591 126.350 136.728  0.00  0.00    +0.000 A 
ENDROOT
BRANCH   4  17
ATOM     13  O   UNL     1     109.113 130.393 136.904  0.00  0.00    +0.000 OA
ATOM     14  O   UNL     1     109.496 129.805 134.837  0.00  0.00    +0.000 OA
ATOM     15  O   UNL     1     108.689 131.226 134.612  0.00  0.00    +0.000 OA
ATOM     16  O   UNL     1     108.164 132.092 135.915  0.00  0.00    +0.000 OA
ATOM     17  C   UNL     1     109.375 129.961 136.252  0.00  0.00    +0.000 C 
ATOM     18  C   UNL     1     109.233 130.238 135.488  0.00  0.00    +0.000 C 
ATOM     19  C   UNL     1     108.830 130.948 135.376  0.00  0.00    +0.000 C 
ATOM     20  C   UNL     1     108.568 131.382 136.027  0.00  0.00    +0.000 C 
ATOM     21  C   UNL     1     108.709 131.104 136.791  0.00  0.00    +0.000 C 
BRANCH  21  23
ATOM     22  O   UNL     1     108.410 131.179 138.187  0.00  0.00    +0.000 OA
ATOM     23  C   UNL     1     108.447 131.537 137.443  0.00  0.00    +0.000 C 
ENDBRANCH  21  23
ENDBRANCH   4  17
BRANCH  12  25
ATOM     24  O   UNL     1     112.216 123.514 137.178  0.00  0.00    +0.000 OA
ATOM     25  C   UNL     1     110.998 125.641 136.841  0.00  0.00    +0.000 A 
ATOM     26  C   UNL     1     111.167 125.379 137.604  0.00  0.00    +0.000 A 
ATOM     27  C   UNL     1     111.234 125.193 136.189  0.00  0.00    +0.000 A 
ATOM     28  C   UNL     1     111.573 124.670 137.717  0.00  0.00    +0.000 A 
ATOM     29  C   UNL     1     111.641 124.484 136.301  0.00  0.00    +0.000 A 
ATOM     30  C   UNL     1     111.810 124.223 137.065  0.00  0.00    +0.000 A 
ENDBRANCH  12  25
BRANCH   5  31
ATOM     31  O   UNL     1     111.014 129.964 136.440  0.00  0.00    +0.000 OA
BRANCH  31  38
ATOM     32  O   UNL     1     111.594 130.023 137.744  0.00  0.00    +0.000 OA
ATOM     33  O   UNL     1     112.491 130.267 135.769  0.00  0.00    +0.000 OA
ATOM     34  O   UNL     1     113.810 130.478 136.739  0.00  0.00    +0.000 OA
ATOM     35  O   UNL     1     113.651 130.386 138.379  0.00  0.00    +0.000 OA
ATOM     36  C   UNL     1     112.411 130.221 136.589  0.00  0.00    +0.000 C 
ATOM     37  C   UNL     1     113.071 130.327 137.074  0.00  0.00    +0.000 C 
ATOM     38  C   UNL     1     111.673 130.069 136.924  0.00  0.00    +0.000 C 
ATOM     39  C   UNL     1     112.991 130.280 137.894  0.00  0.00    +0.000 C 
ATOM     40  C   UNL     1     112.253 130.129 138.229  0.00  0.00    +0.000 C 
BRANCH  40  43
ATOM     41  O   UNL     1     111.914 130.738 139.476  0.00  0.00    +0.000 OA
ATOM     42  O   UNL     1     112.356 129.380 139.442  0.00  0.00    +0.000 OA
ATOM     43  C   UNL     1     112.174 130.083 139.049  0.00  0.00    +0.000 C 
ENDBRANCH  40  43
ENDBRANCH  31  38
ENDBRANCH   5  31
TORSDOF 6
ENDMDL
MODEL 4
REMARK VINA RESULT:     -10.2      1.641      3.847
REMARK  Name = 131833489
REMARK  6 active torsions:
REMARK  status: ('A' for Active; 'I' for Inactive)
REMARK    1  A    between atoms: O_2  and  C_25
REMARK    2  A    between atoms: O_2  and  C_28
REMARK    3  A    between atoms: C_17  and  C_22
REMARK    4  A    between atoms: C_21  and  C_27
REMARK    5  A    between atoms: C_29  and  C_34
REMARK    6  A    between atoms: C_37  and  C_38
REMARK                            x       y       z     vdW  Elec       q    Type
REMARK                         _______ _______ _______ _____ _____    ______ ____
ROOT
ATOM      1  O   UNL     1     112.660 126.870 135.974  0.00  0.00    +0.000 OA
ATOM      2  O   UNL     1     111.772 128.998 137.722  0.00  0.00    +0.000 OA
ATOM      3  O   UNL     1     112.450 128.186 135.421  0.00  0.00    +0.000 OA
ATOM      4  C   UNL     1     112.438 126.607 137.361  0.00  0.00    +0.000 A 
ATOM      5  C   UNL     1     112.218 126.868 138.111  0.00  0.00    +0.000 A 
ATOM      6  C   UNL     1     112.440 127.132 136.725  0.00  0.00    +0.000 A 
ATOM      7  C   UNL     1     112.222 127.919 136.840  0.00  0.00    +0.000 A 
ATOM      8  C   UNL     1     112.000 127.655 138.226  0.00  0.00    +0.000 A 
ATOM      9  C   UNL     1     112.002 128.181 137.590  0.00  0.00    +0.000 A 
ATOM     10  C   UNL     1     112.228 128.457 136.170  0.00  0.00    +0.000 A 
ATOM     11  C   UNL     1     112.001 129.278 136.282  0.00  0.00    +0.000 A 
ATOM     12  C   UNL     1     111.772 129.551 137.064  0.00  0.00    +0.000 A 
ENDROOT
BRANCH   4  17
ATOM     13  O   UNL     1     113.444 125.592 137.340  0.00  0.00    +0.000 OA
ATOM     14  O   UNL     1     111.300 125.487 136.944  0.00  0.00    +0.000 OA
ATOM     15  O   UNL     1     111.737 123.913 136.714  0.00  0.00    +0.000 OA
ATOM     16  O   UNL     1     113.312 123.458 136.902  0.00  0.00    +0.000 OA
ATOM     17  C   UNL     1     112.657 125.819 137.246  0.00  0.00    +0.000 C 
ATOM     18  C   UNL     1     112.088 125.259 137.037  0.00  0.00    +0.000 C 
ATOM     19  C   UNL     1     112.306 124.473 136.923  0.00  0.00    +0.000 C 
ATOM     20  C   UNL     1     113.094 124.244 137.017  0.00  0.00    +0.000 C 
ATOM     21  C   UNL     1     113.663 124.804 137.225  0.00  0.00    +0.000 C 
BRANCH  21  23
ATOM     22  O   UNL     1     114.981 125.082 137.700  0.00  0.00    +0.000 OA
ATOM     23  C   UNL     1     114.450 124.578 137.319  0.00  0.00    +0.000 C 
ENDBRANCH  21  23
ENDBRANCH   4  17
BRANCH  12  25
ATOM     24  O   UNL     1     110.896 132.697 137.535  0.00  0.00    +0.000 OA
ATOM     25  C   UNL     1     111.553 130.337 137.182  0.00  0.00    +0.000 A 
ATOM     26  C   UNL     1     112.132 130.921 137.246  0.00  0.00    +0.000 A 
ATOM     27  C   UNL     1     110.755 130.540 137.236  0.00  0.00    +0.000 A 
ATOM     28  C   UNL     1     111.913 131.708 137.364  0.00  0.00    +0.000 A 
ATOM     29  C   UNL     1     110.536 131.326 137.353  0.00  0.00    +0.000 A 
ATOM     30  C   UNL     1     111.115 131.910 137.417  0.00  0.00    +0.000 A 
ENDBRANCH  12  25
BRANCH   5  31
ATOM     31  O   UNL     1     112.216 126.342 138.747  0.00  0.00    +0.000 OA
BRANCH  31  38
ATOM     32  O   UNL     1     113.113 126.970 139.666  0.00  0.00    +0.000 OA
ATOM     33  O   UNL     1     111.100 126.175 139.951  0.00  0.00    +0.000 OA
ATOM     34  O   UNL     1     111.439 126.719 141.472  0.00  0.00    +0.000 OA
ATOM     35  O   UNL     1     112.894 127.430 141.788  0.00  0.00    +0.000 OA
ATOM     36  C   UNL     1     111.828 126.530 140.109  0.00  0.00    +0.000 C 
ATOM     37  C   UNL     1     111.997 126.803 140.870  0.00  0.00    +0.000 C 
ATOM     38  C   UNL     1     112.386 126.614 139.507  0.00  0.00    +0.000 C 
ATOM     39  C   UNL     1     112.725 127.158 141.027  0.00  0.00    +0.000 C 
ATOM     40  C   UNL     1     113.283 127.241 140.426  0.00  0.00    +0.000 C 
BRANCH  40  43
ATOM     41  O   UNL     1     114.076 128.419 140.586  0.00  0.00    +0.000 OA
ATOM     42  O   UNL     1     114.671 127.130 140.742  0.00  0.00    +0.000 OA
ATOM     43  C   UNL     1     114.010 127.597 140.585  0.00  0.00    +0.000 C 
ENDBRANCH  40  43
ENDBRANCH  31  38
ENDBRANCH   5  31
TORSDOF 6
ENDMDL
MODEL 5
REMARK VINA RESULT:     -10.2      0.862      1.688
REMARK  Name = 131833489
REMARK  6 active torsions:
REMARK  status: ('A' for Active; 'I' for Inactive)
REMARK    1  A    between atoms: O_2  and  C_25
REMARK    2  A    between atoms: O_2  and  C_28
REMARK    3  A    between atoms: C_17  and  C_22
REMARK    4  A    between atoms: C_21  and  C_27
REMARK    5  A    between atoms: C_29  and  C_34
REMARK    6  A    between atoms: C_37  and  C_38
REMARK                            x       y       z     vdW  Elec       q    Type
REMARK                         _______ _______ _______ _____ _____    ______ ____
ROOT
ATOM      1  O   UNL     1     112.247 125.785 139.067  0.00  0.00    +0.000 OA
ATOM      2  O   UNL     1     113.333 128.465 139.187  0.00  0.00    +0.000 OA
ATOM      3  O   UNL     1     112.265 126.475 140.334  0.00  0.00    +0.000 OA
ATOM      4  C   UNL     1     112.753 126.403 137.882  0.00  0.00    +0.000 A 
ATOM      5  C   UNL     1     113.101 127.049 137.505  0.00  0.00    +0.000 A 
ATOM      6  C   UNL     1     112.595 126.432 138.691  0.00  0.00    +0.000 A 
ATOM      7  C   UNL     1     112.784 127.108 139.123  0.00  0.00    +0.000 A 
ATOM      8  C   UNL     1     113.290 127.725 137.939  0.00  0.00    +0.000 A 
ATOM      9  C   UNL     1     113.131 127.755 138.748  0.00  0.00    +0.000 A 
ATOM     10  C   UNL     1     112.614 127.127 139.965  0.00  0.00    +0.000 A 
ATOM     11  C   UNL     1     112.808 127.829 140.422  0.00  0.00    +0.000 A 
ATOM     12  C   UNL     1     113.171 128.503 140.030  0.00  0.00    +0.000 A 
ENDROOT
BRANCH   4  17
ATOM     13  O   UNL     1     111.838 125.676 137.059  0.00  0.00    +0.000 OA
ATOM     14  O   UNL     1     113.825 125.152 137.796  0.00  0.00    +0.000 OA
ATOM     15  O   UNL     1     113.447 123.799 136.930  0.00  0.00    +0.000 OA
ATOM     16  O   UNL     1     111.996 123.698 136.150  0.00  0.00    +0.000 OA
ATOM     17  C   UNL     1     112.564 125.726 137.449  0.00  0.00    +0.000 C 
ATOM     18  C   UNL     1     113.100 125.100 137.406  0.00  0.00    +0.000 C 
ATOM     19  C   UNL     1     112.910 124.425 136.973  0.00  0.00    +0.000 C 
ATOM     20  C   UNL     1     112.185 124.373 136.583  0.00  0.00    +0.000 C 
ATOM     21  C   UNL     1     111.649 124.999 136.626  0.00  0.00    +0.000 C 
BRANCH  21  23
ATOM     22  O   UNL     1     110.404 125.591 136.248  0.00  0.00    +0.000 OA
ATOM     23  C   UNL     1     110.924 124.949 136.237  0.00  0.00    +0.000 C 
ENDBRANCH  21  23
ENDBRANCH   4  17
BRANCH  12  25
ATOM     24  O   UNL     1     113.932 131.213 141.751  0.00  0.00    +0.000 OA
ATOM     25  C   UNL     1     113.361 129.180 140.460  0.00  0.00    +0.000 A 
ATOM     26  C   UNL     1     112.761 129.652 140.773  0.00  0.00    +0.000 A 
ATOM     27  C   UNL     1     114.151 129.386 140.578  0.00  0.00    +0.000 A 
ATOM     28  C   UNL     1     112.951 130.330 141.203  0.00  0.00    +0.000 A 
ATOM     29  C   UNL     1     114.342 130.063 141.008  0.00  0.00    +0.000 A 
ATOM     30  C   UNL     1     113.742 130.535 141.321  0.00  0.00    +0.000 A 
ENDBRANCH  12  25
BRANCH   5  31
ATOM     31  O   UNL     1     113.259 127.019 136.696  0.00  0.00    +0.000 OA
BRANCH  31  38
ATOM     32  O   UNL     1     112.555 128.158 136.196  0.00  0.00    +0.000 OA
ATOM     33  O   UNL     1     114.620 127.512 135.904  0.00  0.00    +0.000 OA
ATOM     34  O   UNL     1     114.597 128.897 135.007  0.00  0.00    +0.000 OA
ATOM     35  O   UNL     1     113.213 129.789 134.903  0.00  0.00    +0.000 OA
ATOM     36  C   UNL     1     113.928 127.957 135.852  0.00  0.00    +0.000 C 
ATOM     37  C   UNL     1     113.916 128.651 135.404  0.00  0.00    +0.000 C 
ATOM     38  C   UNL     1     113.247 127.711 136.248  0.00  0.00    +0.000 C 
ATOM     39  C   UNL     1     113.224 129.096 135.352  0.00  0.00    +0.000 C 
ATOM     40  C   UNL     1     112.544 128.850 135.748  0.00  0.00    +0.000 C 
BRANCH  40  43
ATOM     41  O   UNL     1     111.754 129.963 136.169  0.00  0.00    +0.000 OA
ATOM     42  O   UNL     1     111.258 129.075 135.167  0.00  0.00    +0.000 OA
ATOM     43  C   UNL     1     111.852 129.296 135.695  0.00  0.00    +0.000 C 
ENDBRANCH  40  43
ENDBRANCH  31  38
ENDBRANCH   5  31
TORSDOF 6
ENDMDL
MODEL 6
REMARK VINA RESULT:     -10.2      1.440      4.821
REMARK  Name = 131833489
REMARK  6 active torsions:
REMARK  status: ('A' for Active; 'I' for Inactive)
REMARK    1  A    between atoms: O_2  and  C_25
REMARK    2  A    between atoms: O_2  and  C_28
REMARK    3  A    between atoms: C_17  and  C_22
REMARK    4  A    between atoms: C_21  and  C_27
REMARK    5  A    between atoms: C_29  and  C_34
REMARK    6  A    between atoms: C_37  and  C_38
REMARK                            x       y       z     vdW  Elec       q    Type
REMARK                         _______ _______ _______ _____ _____    ______ ____
ROOT
ATOM      1  O   UNL     1     114.031 128.131 141.006  0.00  0.00    +0.000 OA
ATOM      2  O   UNL     1     113.130 127.142 138.439  0.00  0.00    +0.000 OA
ATOM      3  O   UNL     1     114.363 126.780 140.621  0.00  0.00    +0.000 OA
ATOM      4  C   UNL     1     113.269 128.978 140.143  0.00  0.00    +0.000 A 
ATOM      5  C   UNL     1     112.867 129.099 139.434  0.00  0.00    +0.000 A 
ATOM      6  C   UNL     1     113.628 128.251 140.295  0.00  0.00    +0.000 A 
ATOM      7  C   UNL     1     113.584 127.645 139.738  0.00  0.00    +0.000 A 
ATOM      8  C   UNL     1     112.823 128.493 138.876  0.00  0.00    +0.000 A 
ATOM      9  C   UNL     1     113.182 127.766 139.028  0.00  0.00    +0.000 A 
ATOM     10  C   UNL     1     113.962 126.893 139.908  0.00  0.00    +0.000 A 
ATOM     11  C   UNL     1     113.920 126.257 139.331  0.00  0.00    +0.000 A 
ATOM     12  C   UNL     1     113.501 126.383 138.591  0.00  0.00    +0.000 A 
ENDROOT
BRANCH   4  17
ATOM     13  O   UNL     1     113.942 130.118 140.682  0.00  0.00    +0.000 OA
ATOM     14  O   UNL     1     112.099 129.124 141.297  0.00  0.00    +0.000 OA
ATOM     15  O   UNL     1     112.186 130.337 142.412  0.00  0.00    +0.000 OA
ATOM     16  O   UNL     1     113.444 131.404 142.374  0.00  0.00    +0.000 OA
ATOM     17  C   UNL     1     113.313 129.585 140.702  0.00  0.00    +0.000 C 
ATOM     18  C   UNL     1     112.728 129.658 141.278  0.00  0.00    +0.000 C 
ATOM     19  C   UNL     1     112.772 130.264 141.836  0.00  0.00    +0.000 C 
ATOM     20  C   UNL     1     113.400 130.798 141.817  0.00  0.00    +0.000 C 
ATOM     21  C   UNL     1     113.986 130.725 141.240  0.00  0.00    +0.000 C 
BRANCH  21  23
ATOM     22  O   UNL     1     114.982 131.435 140.502  0.00  0.00    +0.000 OA
ATOM     23  C   UNL     1     114.615 131.258 141.220  0.00  0.00    +0.000 C 
ENDBRANCH  21  23
ENDBRANCH   4  17
BRANCH  12  25
ATOM     24  O   UNL     1     113.319 123.965 136.353  0.00  0.00    +0.000 OA
ATOM     25  C   UNL     1     113.456 125.778 138.032  0.00  0.00    +0.000 A 
ATOM     26  C   UNL     1     114.133 125.543 137.623  0.00  0.00    +0.000 A 
ATOM     27  C   UNL     1     112.734 125.409 137.881  0.00  0.00    +0.000 A 
ATOM     28  C   UNL     1     114.087 124.938 137.063  0.00  0.00    +0.000 A 
ATOM     29  C   UNL     1     112.688 124.805 137.322  0.00  0.00    +0.000 A 
ATOM     30  C   UNL     1     113.364 124.569 136.913  0.00  0.00    +0.000 A 
ENDBRANCH  12  25
BRANCH   5  31
ATOM     31  O   UNL     1     112.508 129.827 139.282  0.00  0.00    +0.000 OA
BRANCH  31  38
ATOM     32  O   UNL     1     113.125 130.189 138.045  0.00  0.00    +0.000 OA
ATOM     33  O   UNL     1     111.029 130.204 138.655  0.00  0.00    +0.000 OA
ATOM     34  O   UNL     1     110.906 130.755 137.104  0.00  0.00    +0.000 OA
ATOM     35  O   UNL     1     112.262 130.929 136.181  0.00  0.00    +0.000 OA
ATOM     36  C   UNL     1     111.707 130.290 138.194  0.00  0.00    +0.000 C 
ATOM     37  C   UNL     1     111.646 130.566 137.418  0.00  0.00    +0.000 C 
ATOM     38  C   UNL     1     112.447 130.102 138.507  0.00  0.00    +0.000 C 
ATOM     39  C   UNL     1     112.324 130.653 136.957  0.00  0.00    +0.000 C 
ATOM     40  C   UNL     1     113.063 130.464 137.270  0.00  0.00    +0.000 C 
BRANCH  40  43
ATOM     41  O   UNL     1     114.211 131.224 136.887  0.00  0.00    +0.000 OA
ATOM     42  O   UNL     1     113.948 129.965 136.265  0.00  0.00    +0.000 OA
ATOM     43  C   UNL     1     113.741 130.552 136.807  0.00  0.00    +0.000 C 
ENDBRANCH  40  43
ENDBRANCH  31  38
ENDBRANCH   5  31
TORSDOF 6
ENDMDL
MODEL 7
REMARK VINA RESULT:     -10.0      2.297      5.083
REMARK  Name = 131833489
REMARK  6 active torsions:
REMARK  status: ('A' for Active; 'I' for Inactive)
REMARK    1  A    between atoms: O_2  and  C_25
REMARK    2  A    between atoms: O_2  and  C_28
REMARK    3  A    between atoms: C_17  and  C_22
REMARK    4  A    between atoms: C_21  and  C_27
REMARK    5  A    between atoms: C_29  and  C_34
REMARK    6  A    between atoms: C_37  and  C_38
REMARK                            x       y       z     vdW  Elec       q    Type
REMARK                         _______ _______ _______ _____ _____    ______ ____
ROOT
ATOM      1  O   UNL     1     110.201 127.651 135.153  0.00  0.00    +0.000 OA
ATOM      2  O   UNL     1     112.400 127.036 136.931  0.00  0.00    +0.000 OA
ATOM      3  O   UNL     1     110.931 126.421 134.962  0.00  0.00    +0.000 OA
ATOM      4  C   UNL     1     110.547 128.560 136.200  0.00  0.00    +0.000 A 
ATOM      5  C   UNL     1     111.024 128.764 136.842  0.00  0.00    +0.000 A 
ATOM      6  C   UNL     1     110.679 127.853 135.795  0.00  0.00    +0.000 A 
ATOM      7  C   UNL     1     111.287 127.350 136.033  0.00  0.00    +0.000 A 
ATOM      8  C   UNL     1     111.632 128.259 137.078  0.00  0.00    +0.000 A 
ATOM      9  C   UNL     1     111.763 127.552 136.674  0.00  0.00    +0.000 A 
ATOM     10  C   UNL     1     111.414 126.616 135.603  0.00  0.00    +0.000 A 
ATOM     11  C   UNL     1     112.046 126.086 135.846  0.00  0.00    +0.000 A 
ATOM     12  C   UNL     1     112.542 126.298 136.514  0.00  0.00    +0.000 A 
ENDROOT
BRANCH   4  17
ATOM     13  O   UNL     1     110.093 129.673 135.426  0.00  0.00    +0.000 OA
ATOM     14  O   UNL     1     109.023 128.353 136.797  0.00  0.00    +0.000 OA
ATOM     15  O   UNL     1     107.807 129.362 136.322  0.00  0.00    +0.000 OA
ATOM     16  O   UNL     1     108.115 130.578 135.250  0.00  0.00    +0.000 OA
ATOM     17  C   UNL     1     109.939 129.065 135.962  0.00  0.00    +0.000 C 
ATOM     18  C   UNL     1     109.177 128.961 136.261  0.00  0.00    +0.000 C 
ATOM     19  C   UNL     1     108.569 129.465 136.023  0.00  0.00    +0.000 C 
ATOM     20  C   UNL     1     108.722 130.074 135.487  0.00  0.00    +0.000 C 
ATOM     21  C   UNL     1     109.484 130.177 135.189  0.00  0.00    +0.000 C 
BRANCH  21  23
ATOM     22  O   UNL     1     110.069 131.448 134.894  0.00  0.00    +0.000 OA
ATOM     23  C   UNL     1     109.639 130.785 134.653  0.00  0.00    +0.000 C 
ENDBRANCH  21  23
ENDBRANCH   4  17
BRANCH  12  25
ATOM     24  O   UNL     1     114.978 124.288 137.473  0.00  0.00    +0.000 OA
ATOM     25  C   UNL     1     113.152 125.796 136.754  0.00  0.00    +0.000 A 
ATOM     26  C   UNL     1     113.928 125.949 136.521  0.00  0.00    +0.000 A 
ATOM     27  C   UNL     1     112.984 125.140 137.226  0.00  0.00    +0.000 A 
ATOM     28  C   UNL     1     114.537 125.446 136.761  0.00  0.00    +0.000 A 
ATOM     29  C   UNL     1     113.592 124.638 137.466  0.00  0.00    +0.000 A 
ATOM     30  C   UNL     1     114.369 124.791 137.234  0.00  0.00    +0.000 A 
ENDBRANCH  12  25
BRANCH   5  31
ATOM     31  O   UNL     1     110.893 129.471 137.246  0.00  0.00    +0.000 OA
BRANCH  31  38
ATOM     32  O   UNL     1     112.176 130.093 137.162  0.00  0.00    +0.000 OA
ATOM     33  O   UNL     1     110.844 129.789 138.864  0.00  0.00    +0.000 OA
ATOM     34  O   UNL     1     112.103 130.570 139.590  0.00  0.00    +0.000 OA
ATOM     35  O   UNL     1     113.411 131.034 138.697  0.00  0.00    +0.000 OA
ATOM     36  C   UNL     1     111.497 130.020 138.417  0.00  0.00    +0.000 C 
ATOM     37  C   UNL     1     112.127 130.411 138.781  0.00  0.00    +0.000 C 
ATOM     38  C   UNL     1     111.522 129.861 137.608  0.00  0.00    +0.000 C 
ATOM     39  C   UNL     1     112.781 130.643 138.334  0.00  0.00    +0.000 C 
ATOM     40  C   UNL     1     112.805 130.483 137.525  0.00  0.00    +0.000 C 
BRANCH  40  43
ATOM     41  O   UNL     1     113.431 131.408 136.633  0.00  0.00    +0.000 OA
ATOM     42  O   UNL     1     114.143 130.254 137.080  0.00  0.00    +0.000 OA
ATOM     43  C   UNL     1     113.460 130.715 137.079  0.00  0.00    +0.000 C 
ENDBRANCH  40  43
ENDBRANCH  31  38
ENDBRANCH   5  31
TORSDOF 6
ENDMDL
MODEL 8
REMARK VINA RESULT:     -10.0      2.749      5.649
REMARK  Name = 131833489
REMARK  6 active torsions:
REMARK  status: ('A' for Active; 'I' for Inactive)
REMARK    1  A    between atoms: O_2  and  C_25
REMARK    2  A    between atoms: O_2  and  C_28
REMARK    3  A    between atoms: C_17  and  C_22
REMARK    4  A    between atoms: C_21  and  C_27
REMARK    5  A    between atoms: C_29  and  C_34
REMARK    6  A    between atoms: C_37  and  C_38
REMARK                            x       y       z     vdW  Elec       q    Type
REMARK                         _______ _______ _______ _____ _____    ______ ____
ROOT
ATOM      1  O   UNL     1     108.859 128.999 137.064  0.00  0.00    +0.000 OA
ATOM      2  O   UNL     1     111.193 127.356 137.540  0.00  0.00    +0.000 OA
ATOM      3  O   UNL     1     108.871 127.644 136.570  0.00  0.00    +0.000 OA
ATOM      4  C   UNL     1     109.973 129.535 137.779  0.00  0.00    +0.000 A 
ATOM      5  C   UNL     1     110.729 129.445 138.096  0.00  0.00    +0.000 A 
ATOM      6  C   UNL     1     109.615 128.908 137.381  0.00  0.00    +0.000 A 
ATOM      7  C   UNL     1     110.012 128.190 137.301  0.00  0.00    +0.000 A 
ATOM      8  C   UNL     1     111.126 128.727 138.015  0.00  0.00    +0.000 A 
ATOM      9  C   UNL     1     110.768 128.099 137.618  0.00  0.00    +0.000 A 
ATOM     10  C   UNL     1     109.629 127.544 136.884  0.00  0.00    +0.000 A 
ATOM     11  C   UNL     1     110.038 126.793 136.797  0.00  0.00    +0.000 A 
ATOM     12  C   UNL     1     110.825 126.699 137.127  0.00  0.00    +0.000 A 
ENDROOT
BRANCH   4  17
ATOM     13  O   UNL     1     109.673 130.845 137.292  0.00  0.00    +0.000 OA
ATOM     14  O   UNL     1     108.984 129.790 139.074  0.00  0.00    +0.000 OA
ATOM     15  O   UNL     1     108.189 131.227 139.235  0.00  0.00    +0.000 OA
ATOM     16  O   UNL     1     108.384 132.409 138.101  0.00  0.00    +0.000 OA
ATOM     17  C   UNL     1     109.576 130.254 137.860  0.00  0.00    +0.000 C 
ATOM     18  C   UNL     1     109.081 130.382 138.507  0.00  0.00    +0.000 C 
ATOM     19  C   UNL     1     108.684 131.100 138.588  0.00  0.00    +0.000 C 
ATOM     20  C   UNL     1     108.781 131.691 138.021  0.00  0.00    +0.000 C 
ATOM     21  C   UNL     1     109.275 131.564 137.373  0.00  0.00    +0.000 C 
BRANCH  21  23
ATOM     22  O   UNL     1     109.882 132.032 136.167  0.00  0.00    +0.000 OA
ATOM     23  C   UNL     1     109.373 132.155 136.805  0.00  0.00    +0.000 C 
ENDBRANCH  21  23
ENDBRANCH   4  17
BRANCH  12  25
ATOM     24  O   UNL     1     112.424 123.830 136.812  0.00  0.00    +0.000 OA
ATOM     25  C   UNL     1     111.225 125.981 137.048  0.00  0.00    +0.000 A 
ATOM     26  C   UNL     1     111.704 125.847 136.390  0.00  0.00    +0.000 A 
ATOM     27  C   UNL     1     111.146 125.399 137.627  0.00  0.00    +0.000 A 
ATOM     28  C   UNL     1     112.104 125.129 136.311  0.00  0.00    +0.000 A 
ATOM     29  C   UNL     1     111.545 124.682 137.549  0.00  0.00    +0.000 A 
ATOM     30  C   UNL     1     112.024 124.547 136.891  0.00  0.00    +0.000 A 
ENDBRANCH  12  25
BRANCH   5  31
ATOM     31  O   UNL     1     111.088 130.073 138.494  0.00  0.00    +0.000 OA
BRANCH  31  38
ATOM     32  O   UNL     1     112.263 130.241 137.698  0.00  0.00    +0.000 OA
ATOM     33  O   UNL     1     112.001 130.183 139.864  0.00  0.00    +0.000 OA
ATOM     34  O   UNL     1     113.632 130.406 139.753  0.00  0.00    +0.000 OA
ATOM     35  O   UNL     1     114.350 130.519 138.272  0.00  0.00    +0.000 OA
ATOM     36  C   UNL     1     112.359 130.240 139.124  0.00  0.00    +0.000 C 
ATOM     37  C   UNL     1     113.175 130.351 139.068  0.00  0.00    +0.000 C 
ATOM     38  C   UNL     1     111.903 130.184 138.438  0.00  0.00    +0.000 C 
ATOM     39  C   UNL     1     113.534 130.407 138.327  0.00  0.00    +0.000 C 
ATOM     40  C   UNL     1     113.078 130.352 137.642  0.00  0.00    +0.000 C 
BRANCH  40  43
ATOM     41  O   UNL     1     113.807 129.750 136.571  0.00  0.00    +0.000 OA
ATOM     42  O   UNL     1     113.427 131.124 136.492  0.00  0.00    +0.000 OA
ATOM     43  C   UNL     1     113.437 130.408 136.902  0.00  0.00    +0.000 C 
ENDBRANCH  40  43
ENDBRANCH  31  38
ENDBRANCH   5  31
TORSDOF 6
ENDMDL
MODEL 9
REMARK VINA RESULT:      -9.9      2.739      5.675
REMARK  Name = 131833489
REMARK  6 active torsions:
REMARK  status: ('A' for Active; 'I' for Inactive)
REMARK    1  A    between atoms: O_2  and  C_25
REMARK    2  A    between atoms: O_2  and  C_28
REMARK    3  A    between atoms: C_17  and  C_22
REMARK    4  A    between atoms: C_21  and  C_27
REMARK    5  A    between atoms: C_29  and  C_34
REMARK    6  A    between atoms: C_37  and  C_38
REMARK                            x       y       z     vdW  Elec       q    Type
REMARK                         _______ _______ _______ _____ _____    ______ ____
ROOT
ATOM      1  O   UNL     1     111.597 129.559 137.537  0.00  0.00    +0.000 OA
ATOM      2  O   UNL     1     112.321 126.793 137.987  0.00  0.00    +0.000 OA
ATOM      3  O   UNL     1     112.810 129.050 136.946  0.00  0.00    +0.000 OA
ATOM      4  C   UNL     1     110.756 128.722 138.334  0.00  0.00    +0.000 A 
ATOM      5  C   UNL     1     110.593 127.989 138.675  0.00  0.00    +0.000 A 
ATOM      6  C   UNL     1     111.435 128.824 137.877  0.00  0.00    +0.000 A 
ATOM      7  C   UNL     1     111.952 128.193 137.761  0.00  0.00    +0.000 A 
ATOM      8  C   UNL     1     111.111 127.357 138.558  0.00  0.00    +0.000 A 
ATOM      9  C   UNL     1     111.790 127.459 138.101  0.00  0.00    +0.000 A 
ATOM     10  C   UNL     1     112.656 128.311 137.283  0.00  0.00    +0.000 A 
ATOM     11  C   UNL     1     113.199 127.657 137.158  0.00  0.00    +0.000 A 
ATOM     12  C   UNL     1     113.030 126.893 137.512  0.00  0.00    +0.000 A 
ENDROOT
BRANCH   4  17
ATOM     13  O   UNL     1     110.329 129.845 139.108  0.00  0.00    +0.000 OA
ATOM     14  O   UNL     1     109.540 129.004 137.255  0.00  0.00    +0.000 OA
ATOM     15  O   UNL     1     108.506 130.268 137.488  0.00  0.00    +0.000 OA
ATOM     16  O   UNL     1     108.686 131.250 138.802  0.00  0.00    +0.000 OA
ATOM     17  C   UNL     1     110.238 129.355 138.451  0.00  0.00    +0.000 C 
ATOM     18  C   UNL     1     109.630 129.496 137.911  0.00  0.00    +0.000 C 
ATOM     19  C   UNL     1     109.113 130.127 138.028  0.00  0.00    +0.000 C 
ATOM     20  C   UNL     1     109.203 130.619 138.685  0.00  0.00    +0.000 C 
ATOM     21  C   UNL     1     109.811 130.478 139.225  0.00  0.00    +0.000 C 
BRANCH  21  23
ATOM     22  O   UNL     1     110.658 131.168 140.146  0.00  0.00    +0.000 OA
ATOM     23  C   UNL     1     109.902 130.968 139.882  0.00  0.00    +0.000 C 
ENDBRANCH  21  23
ENDBRANCH   4  17
BRANCH  12  25
ATOM     24  O   UNL     1     115.092 124.358 137.051  0.00  0.00    +0.000 OA
ATOM     25  C   UNL     1     113.546 126.259 137.397  0.00  0.00    +0.000 A 
ATOM     26  C   UNL     1     114.030 126.004 138.014  0.00  0.00    +0.000 A 
ATOM     27  C   UNL     1     113.577 125.880 136.665  0.00  0.00    +0.000 A 
ATOM     28  C   UNL     1     114.546 125.370 137.899  0.00  0.00    +0.000 A 
ATOM     29  C   UNL     1     114.092 125.247 136.549  0.00  0.00    +0.000 A 
ATOM     30  C   UNL     1     114.576 124.992 137.166  0.00  0.00    +0.000 A 
ENDBRANCH  12  25
BRANCH   5  31
ATOM     31  O   UNL     1     109.914 127.887 139.132  0.00  0.00    +0.000 OA
BRANCH  31  38
ATOM     32  O   UNL     1     110.461 127.385 140.353  0.00  0.00    +0.000 OA
ATOM     33  O   UNL     1     108.794 126.675 139.136  0.00  0.00    +0.000 OA
ATOM     34  O   UNL     1     108.781 125.568 140.358  0.00  0.00    +0.000 OA
ATOM     35  O   UNL     1     109.888 125.672 141.578  0.00  0.00    +0.000 OA
ATOM     36  C   UNL     1     109.348 126.728 139.745  0.00  0.00    +0.000 C 
ATOM     37  C   UNL     1     109.341 126.173 140.357  0.00  0.00    +0.000 C 
ATOM     38  C   UNL     1     109.908 127.334 139.743  0.00  0.00    +0.000 C 
ATOM     39  C   UNL     1     109.895 126.226 140.966  0.00  0.00    +0.000 C 
ATOM     40  C   UNL     1     110.455 126.832 140.964  0.00  0.00    +0.000 C 
BRANCH  40  43
ATOM     41  O   UNL     1     110.898 127.423 142.187  0.00  0.00    +0.000 OA
ATOM     42  O   UNL     1     111.672 126.394 141.570  0.00  0.00    +0.000 OA
ATOM     43  C   UNL     1     111.008 126.883 141.574  0.00  0.00    +0.000 C 
ENDBRANCH  40  43
ENDBRANCH  31  38
ENDBRANCH   5  31
TORSDOF 6
ENDMDL
MODEL 10
REMARK VINA RESULT:      -9.9      2.260      4.901
REMARK  Name = 131833489
REMARK  6 active torsions:
REMARK  status: ('A' for Active; 'I' for Inactive)
REMARK    1  A    between atoms: O_2  and  C_25
REMARK    2  A    between atoms: O_2  and  C_28
REMARK    3  A    between atoms: C_17  and  C_22
REMARK    4  A    between atoms: C_21  and  C_27
REMARK    5  A    between atoms: C_29  and  C_34
REMARK    6  A    between atoms: C_37  and  C_38
REMARK                            x       y       z     vdW  Elec       q    Type
REMARK                         _______ _______ _______ _____ _____    ______ ____
ROOT
ATOM      1  O   UNL     1     110.790 126.313 139.514  0.00  0.00    +0.000 OA
ATOM      2  O   UNL     1     113.417 126.636 138.343  0.00  0.00    +0.000 OA
ATOM      3  O   UNL     1     111.235 125.363 138.524  0.00  0.00    +0.000 OA
ATOM      4  C   UNL     1     111.622 127.401 139.919  0.00  0.00    +0.000 A 
ATOM      5  C   UNL     1     112.331 127.818 139.863  0.00  0.00    +0.000 A 
ATOM      6  C   UNL     1     111.500 126.730 139.456  0.00  0.00    +0.000 A 
ATOM      7  C   UNL     1     112.087 126.475 138.937  0.00  0.00    +0.000 A 
ATOM      8  C   UNL     1     112.919 127.563 139.343  0.00  0.00    +0.000 A 
ATOM      9  C   UNL     1     112.797 126.891 138.880  0.00  0.00    +0.000 A 
ATOM     10  C   UNL     1     111.948 125.774 138.460  0.00  0.00    +0.000 A 
ATOM     11  C   UNL     1     112.557 125.503 137.917  0.00  0.00    +0.000 A 
ATOM     12  C   UNL     1     113.296 125.937 137.858  0.00  0.00    +0.000 A 
ENDROOT
BRANCH   4  17
ATOM     13  O   UNL     1     110.479 128.214 140.192  0.00  0.00    +0.000 OA
ATOM     14  O   UNL     1     111.558 126.797 141.453  0.00  0.00    +0.000 OA
ATOM     15  O   UNL     1     110.382 127.308 142.493  0.00  0.00    +0.000 OA
ATOM     16  O   UNL     1     109.271 128.423 141.998  0.00  0.00    +0.000 OA
ATOM     17  C   UNL     1     111.034 127.657 140.440  0.00  0.00    +0.000 C 
ATOM     18  C   UNL     1     111.002 127.355 141.207  0.00  0.00    +0.000 C 
ATOM     19  C   UNL     1     110.415 127.610 141.726  0.00  0.00    +0.000 C 
ATOM     20  C   UNL     1     109.859 128.168 141.479  0.00  0.00    +0.000 C 
ATOM     21  C   UNL     1     109.891 128.470 140.712  0.00  0.00    +0.000 C 
BRANCH  21  23
ATOM     22  O   UNL     1     109.010 128.976 139.707  0.00  0.00    +0.000 OA
ATOM     23  C   UNL     1     109.336 129.027 140.464  0.00  0.00    +0.000 C 
ENDBRANCH  21  23
ENDBRANCH   4  17
BRANCH  12  25
ATOM     24  O   UNL     1     115.653 124.926 135.782  0.00  0.00    +0.000 OA
ATOM     25  C   UNL     1     113.885 125.684 137.339  0.00  0.00    +0.000 A 
ATOM     26  C   UNL     1     114.374 125.052 137.546  0.00  0.00    +0.000 A 
ATOM     27  C   UNL     1     113.986 126.062 136.613  0.00  0.00    +0.000 A 
ATOM     28  C   UNL     1     114.963 124.800 137.027  0.00  0.00    +0.000 A 
ATOM     29  C   UNL     1     114.575 125.810 136.093  0.00  0.00    +0.000 A 
ATOM     30  C   UNL     1     115.063 125.179 136.301  0.00  0.00    +0.000 A 
ENDBRANCH  12  25
BRANCH   5  31
ATOM     31  O   UNL     1     112.454 128.490 140.326  0.00  0.00    +0.000 OA
BRANCH  31  38
ATOM     32  O   UNL     1     112.727 129.488 139.340  0.00  0.00    +0.000 OA
ATOM     33  O   UNL     1     113.794 128.955 141.169  0.00  0.00    +0.000 OA
ATOM     34  O   UNL     1     114.738 130.185 140.605  0.00  0.00    +0.000 OA
ATOM     35  O   UNL     1     114.341 130.951 139.198  0.00  0.00    +0.000 OA
ATOM     36  C   UNL     1     113.595 129.337 140.466  0.00  0.00    +0.000 C 
ATOM     37  C   UNL     1     114.068 129.953 140.183  0.00  0.00    +0.000 C 
ATOM     38  C   UNL     1     112.925 129.105 140.044  0.00  0.00    +0.000 C 
ATOM     39  C   UNL     1     113.869 130.335 139.480  0.00  0.00    +0.000 C 
ATOM     40  C   UNL     1     113.199 130.103 139.058  0.00  0.00    +0.000 C 
BRANCH  40  43
ATOM     41  O   UNL     1     113.408 130.309 137.660  0.00  0.00    +0.000 OA
ATOM     42  O   UNL     1     112.396 131.046 138.347  0.00  0.00    +0.000 OA
ATOM     43  C   UNL     1     113.001 130.486 138.355  0.00  0.00    +0.000 C 
ENDBRANCH  40  43
ENDBRANCH  31  38
ENDBRANCH   5  31
TORSDOF 6
ENDMDL
