MODEL 1
REMARK VINA RESULT:      -9.8      0.000      0.000
REMARK  Name = 44257994
REMARK  7 active torsions:
REMARK  status: ('A' for Active; 'I' for Inactive)
REMARK    1  A    between atoms: O_1  and  C_16
REMARK    2  A    between atoms: O_1  and  C_19
REMARK    3  A    between atoms: O_5  and  C_20
REMARK    4  A    between atoms: O_5  and  C_28
REMARK    5  A    between atoms: O_15  and  C_42
REMARK    6  A    between atoms: C_22  and  C_26
REMARK    7  A    between atoms: C_29  and  C_32
REMARK                            x       y       z     vdW  Elec       q    Type
REMARK                         _______ _______ _______ _____ _____    ______ ____
ROOT
ATOM      1  O   UNL     1     112.104 127.170 137.543  0.00  0.00    +0.000 OA
ENDROOT
BRANCH   1   6
ATOM      2  O   UNL     1     113.439 126.252 139.004  0.00  0.00    +0.000 OA
ATOM      3  O   UNL     1     112.432 128.460 138.518  0.00  0.00    +0.000 OA
ATOM      4  O   UNL     1     113.091 129.045 139.661  0.00  0.00    +0.000 OA
ATOM      5  O   UNL     1     114.801 127.363 141.327  0.00  0.00    +0.000 OA
ATOM      6  C   UNL     1     112.604 127.079 138.193  0.00  0.00    +0.000 A 
ATOM      7  C   UNL     1     112.940 126.343 138.354  0.00  0.00    +0.000 A 
ATOM      8  C   UNL     1     112.768 127.724 138.680  0.00  0.00    +0.000 A 
ATOM      9  C   UNL     1     113.268 127.633 139.330  0.00  0.00    +0.000 A 
ATOM     10  C   UNL     1     113.604 126.897 139.492  0.00  0.00    +0.000 A 
ATOM     11  C   UNL     1     113.432 128.312 139.831  0.00  0.00    +0.000 A 
ATOM     12  C   UNL     1     114.126 126.789 140.166  0.00  0.00    +0.000 A 
ATOM     13  C   UNL     1     113.951 128.223 140.509  0.00  0.00    +0.000 A 
ATOM     14  C   UNL     1     114.301 127.457 140.677  0.00  0.00    +0.000 A 
BRANCH   7  15
ATOM     15  C   UNL     1     112.776 125.698 137.867  0.00  0.00    +0.000 A 
ATOM     16  C   UNL     1     112.083 125.264 137.978  0.00  0.00    +0.000 A 
ATOM     17  C   UNL     1     113.304 125.487 137.269  0.00  0.00    +0.000 A 
ATOM     18  C   UNL     1     111.919 124.618 137.490  0.00  0.00    +0.000 A 
ATOM     19  C   UNL     1     113.140 124.843 136.782  0.00  0.00    +0.000 A 
ATOM     20  C   UNL     1     112.447 124.408 136.892  0.00  0.00    +0.000 A 
BRANCH  20  21
ATOM     21  O   UNL     1     112.283 123.763 136.404  0.00  0.00    +0.000 OA
ATOM     22  C   UNL     1     111.917 123.092 136.717  0.00  0.00    +0.000 C 
ENDBRANCH  20  21
ENDBRANCH   7  15
ENDBRANCH   1   6
BRANCH   1  29
ATOM     23  O   UNL     1     113.037 127.897 136.740  0.00  0.00    +0.000 OA
ATOM     24  O   UNL     1     111.178 129.214 135.773  0.00  0.00    +0.000 OA
ATOM     25  O   UNL     1     112.730 129.501 135.293  0.00  0.00    +0.000 OA
ATOM     26  C   UNL     1     111.640 128.192 136.658  0.00  0.00    +0.000 C 
ATOM     27  C   UNL     1     111.798 128.775 136.095  0.00  0.00    +0.000 C 
ATOM     28  C   UNL     1     112.573 128.919 135.855  0.00  0.00    +0.000 C 
ATOM     29  C   UNL     1     112.260 127.753 136.980  0.00  0.00    +0.000 C 
ATOM     30  C   UNL     1     113.193 128.480 136.177  0.00  0.00    +0.000 C 
BRANCH  30  32
ATOM     31  O   UNL     1     114.392 128.035 135.541  0.00  0.00    +0.000 OA
ATOM     32  C   UNL     1     113.969 128.623 135.938  0.00  0.00    +0.000 C 
ENDBRANCH  30  32
BRANCH  26  33
ATOM     33  O   UNL     1     110.865 128.049 136.898  0.00  0.00    +0.000 OA
BRANCH  33  38
ATOM     34  O   UNL     1     110.659 127.216 135.755  0.00  0.00    +0.000 OA
ATOM     35  O   UNL     1     109.266 127.916 137.282  0.00  0.00    +0.000 OA
ATOM     36  O   UNL     1     108.261 127.017 136.330  0.00  0.00    +0.000 OA
ATOM     37  O   UNL     1     108.855 126.251 134.996  0.00  0.00    +0.000 OA
ATOM     38  C   UNL     1     110.363 127.599 136.422  0.00  0.00    +0.000 C 
ATOM     39  C   UNL     1     109.562 127.533 136.614  0.00  0.00    +0.000 C 
ATOM     40  C   UNL     1     109.060 127.083 136.139  0.00  0.00    +0.000 C 
ATOM     41  C   UNL     1     109.358 126.700 135.471  0.00  0.00    +0.000 C 
ATOM     42  C   UNL     1     110.157 126.766 135.279  0.00  0.00    +0.000 C 
ATOM     43  C   UNL     1     110.455 126.383 134.612  0.00  0.00    +0.000 C 
ENDBRANCH  33  38
ENDBRANCH  26  33
ENDBRANCH   1  29
TORSDOF 7
ENDMDL
MODEL 2
REMARK VINA RESULT:      -9.7      2.352      4.280
REMARK  Name = 44257994
REMARK  7 active torsions:
REMARK  status: ('A' for Active; 'I' for Inactive)
REMARK    1  A    between atoms: O_1  and  C_16
REMARK    2  A    between atoms: O_1  and  C_19
REMARK    3  A    between atoms: O_5  and  C_20
REMARK    4  A    between atoms: O_5  and  C_28
REMARK    5  A    between atoms: O_15  and  C_42
REMARK    6  A    between atoms: C_22  and  C_26
REMARK    7  A    between atoms: C_29  and  C_32
REMARK                            x       y       z     vdW  Elec       q    Type
REMARK                         _______ _______ _______ _____ _____    ______ ____
ROOT
ATOM      1  O   UNL     1     111.614 126.433 139.040  0.00  0.00    +0.000 OA
ENDROOT
BRANCH   1   6
ATOM      2  O   UNL     1     113.757 126.190 138.704  0.00  0.00    +0.000 OA
ATOM      3  O   UNL     1     111.613 125.344 137.800  0.00  0.00    +0.000 OA
ATOM      4  O   UNL     1     112.309 124.519 136.842  0.00  0.00    +0.000 OA
ATOM      5  O   UNL     1     115.229 124.552 136.799  0.00  0.00    +0.000 OA
ATOM      6  C   UNL     1     112.328 126.170 138.721  0.00  0.00    +0.000 A 
ATOM      7  C   UNL     1     113.042 126.452 139.023  0.00  0.00    +0.000 A 
ATOM      8  C   UNL     1     112.328 125.626 138.102  0.00  0.00    +0.000 A 
ATOM      9  C   UNL     1     113.042 125.363 137.783  0.00  0.00    +0.000 A 
ATOM     10  C   UNL     1     113.756 125.645 138.084  0.00  0.00    +0.000 A 
ATOM     11  C   UNL     1     113.029 124.796 137.137  0.00  0.00    +0.000 A 
ATOM     12  C   UNL     1     114.507 125.379 137.761  0.00  0.00    +0.000 A 
ATOM     13  C   UNL     1     113.769 124.519 136.801  0.00  0.00    +0.000 A 
ATOM     14  C   UNL     1     114.513 124.812 137.115  0.00  0.00    +0.000 A 
BRANCH   7  15
ATOM     15  C   UNL     1     113.043 126.996 139.642  0.00  0.00    +0.000 A 
ATOM     16  C   UNL     1     112.964 126.735 140.421  0.00  0.00    +0.000 A 
ATOM     17  C   UNL     1     113.122 127.802 139.485  0.00  0.00    +0.000 A 
ATOM     18  C   UNL     1     112.964 127.279 141.041  0.00  0.00    +0.000 A 
ATOM     19  C   UNL     1     113.123 128.346 140.104  0.00  0.00    +0.000 A 
ATOM     20  C   UNL     1     113.044 128.085 140.882  0.00  0.00    +0.000 A 
BRANCH  20  21
ATOM     21  O   UNL     1     113.044 128.629 141.503  0.00  0.00    +0.000 OA
ATOM     22  C   UNL     1     112.883 129.424 141.354  0.00  0.00    +0.000 C 
ENDBRANCH  20  21
ENDBRANCH   7  15
ENDBRANCH   1   6
BRANCH   1  29
ATOM     23  O   UNL     1     111.258 127.264 137.934  0.00  0.00    +0.000 OA
ATOM     24  O   UNL     1     108.869 126.731 138.300  0.00  0.00    +0.000 OA
ATOM     25  O   UNL     1     109.310 127.740 137.073  0.00  0.00    +0.000 OA
ATOM     26  C   UNL     1     110.241 126.581 138.671  0.00  0.00    +0.000 C 
ATOM     27  C   UNL     1     109.666 126.909 138.178  0.00  0.00    +0.000 C 
ATOM     28  C   UNL     1     109.886 127.413 137.564  0.00  0.00    +0.000 C 
ATOM     29  C   UNL     1     111.038 126.759 138.548  0.00  0.00    +0.000 C 
ATOM     30  C   UNL     1     110.682 127.591 137.442  0.00  0.00    +0.000 C 
BRANCH  30  32
ATOM     31  O   UNL     1     111.298 128.801 136.996  0.00  0.00    +0.000 OA
ATOM     32  C   UNL     1     110.903 128.096 136.828  0.00  0.00    +0.000 C 
ENDBRANCH  30  32
BRANCH  26  33
ATOM     33  O   UNL     1     110.021 126.077 139.284  0.00  0.00    +0.000 OA
BRANCH  33  38
ATOM     34  O   UNL     1     109.692 127.203 140.101  0.00  0.00    +0.000 OA
ATOM     35  O   UNL     1     109.390 125.066 140.426  0.00  0.00    +0.000 OA
ATOM     36  O   UNL     1     108.746 125.687 141.812  0.00  0.00    +0.000 OA
ATOM     37  O   UNL     1     108.733 127.318 142.057  0.00  0.00    +0.000 OA
ATOM     38  C   UNL     1     109.699 126.387 139.978  0.00  0.00    +0.000 C 
ATOM     39  C   UNL     1     109.383 125.882 140.549  0.00  0.00    +0.000 C 
ATOM     40  C   UNL     1     109.061 126.192 141.242  0.00  0.00    +0.000 C 
ATOM     41  C   UNL     1     109.055 127.008 141.364  0.00  0.00    +0.000 C 
ATOM     42  C   UNL     1     109.370 127.513 140.794  0.00  0.00    +0.000 C 
ATOM     43  C   UNL     1     109.364 128.329 140.916  0.00  0.00    +0.000 C 
ENDBRANCH  33  38
ENDBRANCH  26  33
ENDBRANCH   1  29
TORSDOF 7
ENDMDL
MODEL 3
REMARK VINA RESULT:      -9.6      1.647      3.884
REMARK  Name = 44257994
REMARK  7 active torsions:
REMARK  status: ('A' for Active; 'I' for Inactive)
REMARK    1  A    between atoms: O_1  and  C_16
REMARK    2  A    between atoms: O_1  and  C_19
REMARK    3  A    between atoms: O_5  and  C_20
REMARK    4  A    between atoms: O_5  and  C_28
REMARK    5  A    between atoms: O_15  and  C_42
REMARK    6  A    between atoms: C_22  and  C_26
REMARK    7  A    between atoms: C_29  and  C_32
REMARK                            x       y       z     vdW  Elec       q    Type
REMARK                         _______ _______ _______ _____ _____    ______ ____
ROOT
ATOM      1  O   UNL     1     111.302 127.769 136.877  0.00  0.00    +0.000 OA
ENDROOT
BRANCH   1   6
ATOM      2  O   UNL     1     112.871 126.360 136.316  0.00  0.00    +0.000 OA
ATOM      3  O   UNL     1     110.701 126.367 137.506  0.00  0.00    +0.000 OA
ATOM      4  O   UNL     1     110.799 124.949 137.753  0.00  0.00    +0.000 OA
ATOM      5  O   UNL     1     113.138 123.497 136.778  0.00  0.00    +0.000 OA
ATOM      6  C   UNL     1     111.725 127.065 136.795  0.00  0.00    +0.000 A 
ATOM      7  C   UNL     1     112.448 127.064 136.398  0.00  0.00    +0.000 A 
ATOM      8  C   UNL     1     111.424 126.365 137.109  0.00  0.00    +0.000 A 
ATOM      9  C   UNL     1     111.847 125.661 137.026  0.00  0.00    +0.000 A 
ATOM     10  C   UNL     1     112.570 125.658 136.630  0.00  0.00    +0.000 A 
ATOM     11  C   UNL     1     111.524 124.937 137.358  0.00  0.00    +0.000 A 
ATOM     12  C   UNL     1     113.021 124.932 136.537  0.00  0.00    +0.000 A 
ATOM     13  C   UNL     1     111.960 124.201 137.275  0.00  0.00    +0.000 A 
ATOM     14  C   UNL     1     112.713 124.199 136.862  0.00  0.00    +0.000 A 
BRANCH   7  15
ATOM     15  C   UNL     1     112.749 127.764 136.084  0.00  0.00    +0.000 A 
ATOM     16  C   UNL     1     112.468 128.046 135.361  0.00  0.00    +0.000 A 
ATOM     17  C   UNL     1     113.330 128.184 136.492  0.00  0.00    +0.000 A 
ATOM     18  C   UNL     1     112.769 128.747 135.046  0.00  0.00    +0.000 A 
ATOM     19  C   UNL     1     113.631 128.885 136.178  0.00  0.00    +0.000 A 
ATOM     20  C   UNL     1     113.350 129.166 135.455  0.00  0.00    +0.000 A 
BRANCH  20  21
ATOM     21  O   UNL     1     113.651 129.868 135.141  0.00  0.00    +0.000 OA
ATOM     22  C   UNL     1     114.394 129.874 134.782  0.00  0.00    +0.000 C 
ENDBRANCH  20  21
ENDBRANCH   7  15
ENDBRANCH   1   6
BRANCH   1  29
ATOM     23  O   UNL     1     111.597 127.971 138.261  0.00  0.00    +0.000 OA
ATOM     24  O   UNL     1     109.336 128.915 138.606  0.00  0.00    +0.000 OA
ATOM     25  O   UNL     1     110.385 128.802 139.874  0.00  0.00    +0.000 OA
ATOM     26  C   UNL     1     110.318 128.342 137.741  0.00  0.00    +0.000 C 
ATOM     27  C   UNL     1     110.090 128.600 138.491  0.00  0.00    +0.000 C 
ATOM     28  C   UNL     1     110.614 128.544 139.125  0.00  0.00    +0.000 C 
ATOM     29  C   UNL     1     111.072 128.027 137.626  0.00  0.00    +0.000 C 
ATOM     30  C   UNL     1     111.368 128.229 139.010  0.00  0.00    +0.000 C 
BRANCH  30  32
ATOM     31  O   UNL     1     112.619 128.565 139.613  0.00  0.00    +0.000 OA
ATOM     32  C   UNL     1     111.893 128.172 139.643  0.00  0.00    +0.000 C 
ENDBRANCH  30  32
BRANCH  26  33
ATOM     33  O   UNL     1     109.794 128.398 137.108  0.00  0.00    +0.000 OA
BRANCH  33  38
ATOM     34  O   UNL     1     110.152 129.768 136.911  0.00  0.00    +0.000 OA
ATOM     35  O   UNL     1     108.521 128.584 136.075  0.00  0.00    +0.000 OA
ATOM     36  O   UNL     1     108.243 130.046 135.362  0.00  0.00    +0.000 OA
ATOM     37  O   UNL     1     109.238 131.322 135.682  0.00  0.00    +0.000 OA
ATOM     38  C   UNL     1     109.655 129.129 136.751  0.00  0.00    +0.000 C 
ATOM     39  C   UNL     1     109.018 129.222 136.234  0.00  0.00    +0.000 C 
ATOM     40  C   UNL     1     108.879 129.953 135.878  0.00  0.00    +0.000 C 
ATOM     41  C   UNL     1     109.377 130.591 136.039  0.00  0.00    +0.000 C 
ATOM     42  C   UNL     1     110.013 130.499 136.555  0.00  0.00    +0.000 C 
ATOM     43  C   UNL     1     110.512 131.137 136.715  0.00  0.00    +0.000 C 
ENDBRANCH  33  38
ENDBRANCH  26  33
ENDBRANCH   1  29
TORSDOF 7
ENDMDL
MODEL 4
REMARK VINA RESULT:      -9.6      2.460      4.694
REMARK  Name = 44257994
REMARK  7 active torsions:
REMARK  status: ('A' for Active; 'I' for Inactive)
REMARK    1  A    between atoms: O_1  and  C_16
REMARK    2  A    between atoms: O_1  and  C_19
REMARK    3  A    between atoms: O_5  and  C_20
REMARK    4  A    between atoms: O_5  and  C_28
REMARK    5  A    between atoms: O_15  and  C_42
REMARK    6  A    between atoms: C_22  and  C_26
REMARK    7  A    between atoms: C_29  and  C_32
REMARK                            x       y       z     vdW  Elec       q    Type
REMARK                         _______ _______ _______ _____ _____    ______ ____
ROOT
ATOM      1  O   UNL     1     111.163 129.171 136.947  0.00  0.00    +0.000 OA
ENDROOT
BRANCH   1   6
ATOM      2  O   UNL     1     110.538 127.483 135.713  0.00  0.00    +0.000 OA
ATOM      3  O   UNL     1     112.015 127.942 137.645  0.00  0.00    +0.000 OA
ATOM      4  O   UNL     1     112.395 126.552 137.722  0.00  0.00    +0.000 OA
ATOM      5  O   UNL     1     111.259 124.663 135.808  0.00  0.00    +0.000 OA
ATOM      6  C   UNL     1     111.097 128.403 136.652  0.00  0.00    +0.000 A 
ATOM      7  C   UNL     1     110.604 128.250 136.008  0.00  0.00    +0.000 A 
ATOM      8  C   UNL     1     111.523 127.789 137.001  0.00  0.00    +0.000 A 
ATOM      9  C   UNL     1     111.456 127.022 136.706  0.00  0.00    +0.000 A 
ATOM     10  C   UNL     1     110.964 126.868 136.062  0.00  0.00    +0.000 A 
ATOM     11  C   UNL     1     111.905 126.390 137.078  0.00  0.00    +0.000 A 
ATOM     12  C   UNL     1     110.886 126.073 135.746  0.00  0.00    +0.000 A 
ATOM     13  C   UNL     1     111.840 125.588 136.775  0.00  0.00    +0.000 A 
ATOM     14  C   UNL     1     111.327 125.429 136.105  0.00  0.00    +0.000 A 
BRANCH   7  15
ATOM     15  C   UNL     1     110.178 128.864 135.659  0.00  0.00    +0.000 A 
ATOM     16  C   UNL     1     109.455 129.098 135.980  0.00  0.00    +0.000 A 
ATOM     17  C   UNL     1     110.475 129.244 134.990  0.00  0.00    +0.000 A 
ATOM     18  C   UNL     1     109.029 129.713 135.631  0.00  0.00    +0.000 A 
ATOM     19  C   UNL     1     110.049 129.858 134.641  0.00  0.00    +0.000 A 
ATOM     20  C   UNL     1     109.326 130.092 134.961  0.00  0.00    +0.000 A 
BRANCH  20  21
ATOM     21  O   UNL     1     108.899 130.707 134.612  0.00  0.00    +0.000 OA
ATOM     22  C   UNL     1     108.476 131.235 135.084  0.00  0.00    +0.000 C 
ENDBRANCH  20  21
ENDBRANCH   7  15
ENDBRANCH   1   6
BRANCH   1  29
ATOM     23  O   UNL     1     112.484 129.394 136.450  0.00  0.00    +0.000 OA
ATOM     24  O   UNL     1     112.982 130.818 138.412  0.00  0.00    +0.000 OA
ATOM     25  O   UNL     1     114.136 130.567 137.261  0.00  0.00    +0.000 OA
ATOM     26  C   UNL     1     112.072 129.994 137.680  0.00  0.00    +0.000 C 
ATOM     27  C   UNL     1     112.816 130.343 137.758  0.00  0.00    +0.000 C 
ATOM     28  C   UNL     1     113.393 130.218 137.183  0.00  0.00    +0.000 C 
ATOM     29  C   UNL     1     111.906 129.520 137.026  0.00  0.00    +0.000 C 
ATOM     30  C   UNL     1     113.227 129.744 136.529  0.00  0.00    +0.000 C 
BRANCH  30  32
ATOM     31  O   UNL     1     113.659 129.836 135.169  0.00  0.00    +0.000 OA
ATOM     32  C   UNL     1     113.804 129.618 135.952  0.00  0.00    +0.000 C 
ENDBRANCH  30  32
BRANCH  26  33
ATOM     33  O   UNL     1     111.495 130.120 138.256  0.00  0.00    +0.000 OA
BRANCH  33  38
ATOM     34  O   UNL     1     111.210 131.401 137.691  0.00  0.00    +0.000 OA
ATOM     35  O   UNL     1     110.375 130.391 139.436  0.00  0.00    +0.000 OA
ATOM     36  O   UNL     1     109.530 131.807 139.462  0.00  0.00    +0.000 OA
ATOM     37  O   UNL     1     109.805 132.953 138.307  0.00  0.00    +0.000 OA
ATOM     38  C   UNL     1     111.073 130.828 138.268  0.00  0.00    +0.000 C 
ATOM     39  C   UNL     1     110.512 130.964 138.859  0.00  0.00    +0.000 C 
ATOM     40  C   UNL     1     110.089 131.672 138.872  0.00  0.00    +0.000 C 
ATOM     41  C   UNL     1     110.227 132.245 138.294  0.00  0.00    +0.000 C 
ATOM     42  C   UNL     1     110.787 132.110 137.704  0.00  0.00    +0.000 C 
ATOM     43  C   UNL     1     110.925 132.682 137.126  0.00  0.00    +0.000 C 
ENDBRANCH  33  38
ENDBRANCH  26  33
ENDBRANCH   1  29
TORSDOF 7
ENDMDL
MODEL 5
REMARK VINA RESULT:      -9.6      1.682      3.918
REMARK  Name = 44257994
REMARK  7 active torsions:
REMARK  status: ('A' for Active; 'I' for Inactive)
REMARK    1  A    between atoms: O_1  and  C_16
REMARK    2  A    between atoms: O_1  and  C_19
REMARK    3  A    between atoms: O_5  and  C_20
REMARK    4  A    between atoms: O_5  and  C_28
REMARK    5  A    between atoms: O_15  and  C_42
REMARK    6  A    between atoms: C_22  and  C_26
REMARK    7  A    between atoms: C_29  and  C_32
REMARK                            x       y       z     vdW  Elec       q    Type
REMARK                         _______ _______ _______ _____ _____    ______ ____
ROOT
ATOM      1  O   UNL     1     111.552 127.256 137.057  0.00  0.00    +0.000 OA
ENDROOT
BRANCH   1   6
ATOM      2  O   UNL     1     113.633 126.776 137.509  0.00  0.00    +0.000 OA
ATOM      3  O   UNL     1     111.599 125.658 136.649  0.00  0.00    +0.000 OA
ATOM      4  O   UNL     1     112.307 124.408 136.516  0.00  0.00    +0.000 OA
ATOM      5  O   UNL     1     115.126 124.287 137.268  0.00  0.00    +0.000 OA
ATOM      6  C   UNL     1     112.254 126.830 137.140  0.00  0.00    +0.000 A 
ATOM      7  C   UNL     1     112.932 127.203 137.426  0.00  0.00    +0.000 A 
ATOM      8  C   UNL     1     112.277 126.031 136.936  0.00  0.00    +0.000 A 
ATOM      9  C   UNL     1     112.978 125.605 137.018  0.00  0.00    +0.000 A 
ATOM     10  C   UNL     1     113.656 125.976 137.305  0.00  0.00    +0.000 A 
ATOM     11  C   UNL     1     112.990 124.772 136.802  0.00  0.00    +0.000 A 
ATOM     12  C   UNL     1     114.393 125.544 137.396  0.00  0.00    +0.000 A 
ATOM     13  C   UNL     1     113.718 124.323 136.886  0.00  0.00    +0.000 A 
ATOM     14  C   UNL     1     114.423 124.711 137.185  0.00  0.00    +0.000 A 
BRANCH   7  15
ATOM     15  C   UNL     1     112.908 128.001 137.630  0.00  0.00    +0.000 A 
ATOM     16  C   UNL     1     112.774 128.223 138.414  0.00  0.00    +0.000 A 
ATOM     17  C   UNL     1     113.019 128.579 137.052  0.00  0.00    +0.000 A 
ATOM     18  C   UNL     1     112.751 129.023 138.618  0.00  0.00    +0.000 A 
ATOM     19  C   UNL     1     112.996 129.377 137.256  0.00  0.00    +0.000 A 
ATOM     20  C   UNL     1     112.862 129.599 138.039  0.00  0.00    +0.000 A 
BRANCH  20  21
ATOM     21  O   UNL     1     112.839 130.399 138.244  0.00  0.00    +0.000 OA
ATOM     22  C   UNL     1     112.648 130.965 137.675  0.00  0.00    +0.000 C 
ENDBRANCH  20  21
ENDBRANCH   7  15
ENDBRANCH   1   6
BRANCH   1  29
ATOM     23  O   UNL     1     110.906 126.660 138.183  0.00  0.00    +0.000 OA
ATOM     24  O   UNL     1     108.719 126.886 137.047  0.00  0.00    +0.000 OA
ATOM     25  O   UNL     1     108.801 126.215 138.551  0.00  0.00    +0.000 OA
ATOM     26  C   UNL     1     110.135 127.071 137.051  0.00  0.00    +0.000 C 
ATOM     27  C   UNL     1     109.448 126.811 137.426  0.00  0.00    +0.000 C 
ATOM     28  C   UNL     1     109.489 126.475 138.178  0.00  0.00    +0.000 C 
ATOM     29  C   UNL     1     110.864 126.996 137.430  0.00  0.00    +0.000 C 
ATOM     30  C   UNL     1     110.218 126.400 138.556  0.00  0.00    +0.000 C 
BRANCH  30  32
ATOM     31  O   UNL     1     110.526 126.515 139.947  0.00  0.00    +0.000 OA
ATOM     32  C   UNL     1     110.260 126.064 139.309  0.00  0.00    +0.000 C 
ENDBRANCH  30  32
BRANCH  26  33
ATOM     33  O   UNL     1     110.094 127.407 136.300  0.00  0.00    +0.000 OA
BRANCH  33  38
ATOM     34  O   UNL     1     109.654 128.639 136.873  0.00  0.00    +0.000 OA
ATOM     35  O   UNL     1     110.009 128.078 134.794  0.00  0.00    +0.000 OA
ATOM     36  O   UNL     1     109.526 129.645 134.616  0.00  0.00    +0.000 OA
ATOM     37  O   UNL     1     109.129 130.542 135.943  0.00  0.00    +0.000 OA
ATOM     38  C   UNL     1     109.853 128.191 136.210  0.00  0.00    +0.000 C 
ATOM     39  C   UNL     1     109.810 128.526 135.457  0.00  0.00    +0.000 C 
ATOM     40  C   UNL     1     109.569 129.310 135.368  0.00  0.00    +0.000 C 
ATOM     41  C   UNL     1     109.370 129.758 136.032  0.00  0.00    +0.000 C 
ATOM     42  C   UNL     1     109.413 129.423 136.784  0.00  0.00    +0.000 C 
ATOM     43  C   UNL     1     109.214 129.871 137.448  0.00  0.00    +0.000 C 
ENDBRANCH  33  38
ENDBRANCH  26  33
ENDBRANCH   1  29
TORSDOF 7
ENDMDL
MODEL 6
REMARK VINA RESULT:      -9.6      1.041      2.905
REMARK  Name = 44257994
REMARK  7 active torsions:
REMARK  status: ('A' for Active; 'I' for Inactive)
REMARK    1  A    between atoms: O_1  and  C_16
REMARK    2  A    between atoms: O_1  and  C_19
REMARK    3  A    between atoms: O_5  and  C_20
REMARK    4  A    between atoms: O_5  and  C_28
REMARK    5  A    between atoms: O_15  and  C_42
REMARK    6  A    between atoms: C_22  and  C_26
REMARK    7  A    between atoms: C_29  and  C_32
REMARK                            x       y       z     vdW  Elec       q    Type
REMARK                         _______ _______ _______ _____ _____    ______ ____
ROOT
ATOM      1  O   UNL     1     112.047 127.143 137.777  0.00  0.00    +0.000 OA
ENDROOT
BRANCH   1   6
ATOM      2  O   UNL     1     113.279 128.791 138.504  0.00  0.00    +0.000 OA
ATOM      3  O   UNL     1     112.364 126.639 139.316  0.00  0.00    +0.000 OA
ATOM      4  O   UNL     1     112.982 126.830 140.606  0.00  0.00    +0.000 OA
ATOM      5  O   UNL     1     114.554 129.244 141.083  0.00  0.00    +0.000 OA
ATOM      6  C   UNL     1     112.510 127.608 138.276  0.00  0.00    +0.000 A 
ATOM      7  C   UNL     1     112.815 128.326 138.005  0.00  0.00    +0.000 A 
ATOM      8  C   UNL     1     112.669 127.356 139.045  0.00  0.00    +0.000 A 
ATOM      9  C   UNL     1     113.133 127.822 139.544  0.00  0.00    +0.000 A 
ATOM     10  C   UNL     1     113.438 128.539 139.274  0.00  0.00    +0.000 A 
ATOM     11  C   UNL     1     113.291 127.549 140.344  0.00  0.00    +0.000 A 
ATOM     12  C   UNL     1     113.922 129.033 139.784  0.00  0.00    +0.000 A 
ATOM     13  C   UNL     1     113.773 128.029 140.868  0.00  0.00    +0.000 A 
ATOM     14  C   UNL     1     114.090 128.776 140.586  0.00  0.00    +0.000 A 
BRANCH   7  15
ATOM     15  C   UNL     1     112.656 128.578 137.236  0.00  0.00    +0.000 A 
ATOM     16  C   UNL     1     111.959 128.986 137.072  0.00  0.00    +0.000 A 
ATOM     17  C   UNL     1     113.195 128.421 136.631  0.00  0.00    +0.000 A 
ATOM     18  C   UNL     1     111.800 129.239 136.302  0.00  0.00    +0.000 A 
ATOM     19  C   UNL     1     113.036 128.673 135.862  0.00  0.00    +0.000 A 
ATOM     20  C   UNL     1     112.339 129.082 135.698  0.00  0.00    +0.000 A 
BRANCH  20  21
ATOM     21  O   UNL     1     112.180 129.334 134.928  0.00  0.00    +0.000 OA
ATOM     22  C   UNL     1     111.399 129.421 134.675  0.00  0.00    +0.000 C 
ENDBRANCH  20  21
ENDBRANCH   7  15
ENDBRANCH   1   6
BRANCH   1  29
ATOM     23  O   UNL     1     113.048 126.150 137.544  0.00  0.00    +0.000 OA
ATOM     24  O   UNL     1     111.290 124.414 137.390  0.00  0.00    +0.000 OA
ATOM     25  O   UNL     1     112.877 124.001 137.208  0.00  0.00    +0.000 OA
ATOM     26  C   UNL     1     111.668 125.778 137.584  0.00  0.00    +0.000 C 
ATOM     27  C   UNL     1     111.876 124.993 137.441  0.00  0.00    +0.000 C 
ATOM     28  C   UNL     1     112.669 124.786 137.351  0.00  0.00    +0.000 C 
ATOM     29  C   UNL     1     112.254 126.357 137.635  0.00  0.00    +0.000 C 
ATOM     30  C   UNL     1     113.255 125.364 137.402  0.00  0.00    +0.000 C 
BRANCH  30  32
ATOM     31  O   UNL     1     114.487 125.473 136.687  0.00  0.00    +0.000 OA
ATOM     32  C   UNL     1     114.048 125.158 137.311  0.00  0.00    +0.000 C 
ENDBRANCH  30  32
BRANCH  26  33
ATOM     33  O   UNL     1     110.875 125.985 137.674  0.00  0.00    +0.000 OA
BRANCH  33  38
ATOM     34  O   UNL     1     110.690 125.929 136.259  0.00  0.00    +0.000 OA
ATOM     35  O   UNL     1     109.359 126.614 137.847  0.00  0.00    +0.000 OA
ATOM     36  O   UNL     1     108.417 126.872 136.518  0.00  0.00    +0.000 OA
ATOM     37  O   UNL     1     108.990 126.501 135.015  0.00  0.00    +0.000 OA
ATOM     38  C   UNL     1     110.404 126.114 137.010  0.00  0.00    +0.000 C 
ATOM     39  C   UNL     1     109.645 126.429 137.096  0.00  0.00    +0.000 C 
ATOM     40  C   UNL     1     109.174 126.558 136.431  0.00  0.00    +0.000 C 
ATOM     41  C   UNL     1     109.461 126.372 135.680  0.00  0.00    +0.000 C 
ATOM     42  C   UNL     1     110.218 126.058 135.594  0.00  0.00    +0.000 C 
ATOM     43  C   UNL     1     110.506 125.872 134.843  0.00  0.00    +0.000 C 
ENDBRANCH  33  38
ENDBRANCH  26  33
ENDBRANCH   1  29
TORSDOF 7
ENDMDL
MODEL 7
REMARK VINA RESULT:      -9.6      1.569      3.696
REMARK  Name = 44257994
REMARK  7 active torsions:
REMARK  status: ('A' for Active; 'I' for Inactive)
REMARK    1  A    between atoms: O_1  and  C_16
REMARK    2  A    between atoms: O_1  and  C_19
REMARK    3  A    between atoms: O_5  and  C_20
REMARK    4  A    between atoms: O_5  and  C_28
REMARK    5  A    between atoms: O_15  and  C_42
REMARK    6  A    between atoms: C_22  and  C_26
REMARK    7  A    between atoms: C_29  and  C_32
REMARK                            x       y       z     vdW  Elec       q    Type
REMARK                         _______ _______ _______ _____ _____    ______ ____
ROOT
ATOM      1  O   UNL     1     112.438 127.621 138.193  0.00  0.00    +0.000 OA
ENDROOT
BRANCH   1   6
ATOM      2  O   UNL     1     113.344 129.607 138.177  0.00  0.00    +0.000 OA
ATOM      3  O   UNL     1     112.968 127.734 139.752  0.00  0.00    +0.000 OA
ATOM      4  O   UNL     1     113.626 128.457 140.813  0.00  0.00    +0.000 OA
ATOM      5  O   UNL     1     114.683 131.124 140.271  0.00  0.00    +0.000 OA
ATOM      6  C   UNL     1     112.828 128.302 138.448  0.00  0.00    +0.000 A 
ATOM      7  C   UNL     1     112.953 128.926 137.922  0.00  0.00    +0.000 A 
ATOM      8  C   UNL     1     113.093 128.358 139.226  0.00  0.00    +0.000 A 
ATOM      9  C   UNL     1     113.484 129.039 139.481  0.00  0.00    +0.000 A 
ATOM     10  C   UNL     1     113.609 129.663 138.957  0.00  0.00    +0.000 A 
ATOM     11  C   UNL     1     113.755 129.086 140.295  0.00  0.00    +0.000 A 
ATOM     12  C   UNL     1     114.015 130.378 139.209  0.00  0.00    +0.000 A 
ATOM     13  C   UNL     1     114.163 129.793 140.566  0.00  0.00    +0.000 A 
ATOM     14  C   UNL     1     114.293 130.442 140.019  0.00  0.00    +0.000 A 
BRANCH   7  15
ATOM     15  C   UNL     1     112.689 128.870 137.144  0.00  0.00    +0.000 A 
ATOM     16  C   UNL     1     113.142 128.470 136.582  0.00  0.00    +0.000 A 
ATOM     17  C   UNL     1     111.970 129.213 136.926  0.00  0.00    +0.000 A 
ATOM     18  C   UNL     1     112.877 128.414 135.802  0.00  0.00    +0.000 A 
ATOM     19  C   UNL     1     111.705 129.156 136.147  0.00  0.00    +0.000 A 
ATOM     20  C   UNL     1     112.159 128.757 135.585  0.00  0.00    +0.000 A 
BRANCH  20  21
ATOM     21  O   UNL     1     111.894 128.701 134.805  0.00  0.00    +0.000 OA
ATOM     22  C   UNL     1     111.087 128.629 134.648  0.00  0.00    +0.000 C 
ENDBRANCH  20  21
ENDBRANCH   7  15
ENDBRANCH   1   6
BRANCH   1  29
ATOM     23  O   UNL     1     111.214 127.895 138.878  0.00  0.00    +0.000 OA
ATOM     24  O   UNL     1     110.876 125.470 139.242  0.00  0.00    +0.000 OA
ATOM     25  O   UNL     1     109.766 126.551 139.805  0.00  0.00    +0.000 OA
ATOM     26  C   UNL     1     111.657 126.545 138.717  0.00  0.00    +0.000 C 
ATOM     27  C   UNL     1     110.989 126.278 139.121  0.00  0.00    +0.000 C 
ATOM     28  C   UNL     1     110.433 126.818 139.403  0.00  0.00    +0.000 C 
ATOM     29  C   UNL     1     111.770 127.353 138.596  0.00  0.00    +0.000 C 
ATOM     30  C   UNL     1     110.546 127.626 139.281  0.00  0.00    +0.000 C 
BRANCH  30  32
ATOM     31  O   UNL     1     109.540 128.610 139.031  0.00  0.00    +0.000 OA
ATOM     32  C   UNL     1     109.991 128.168 139.563  0.00  0.00    +0.000 C 
ENDBRANCH  30  32
BRANCH  26  33
ATOM     33  O   UNL     1     112.213 126.005 138.436  0.00  0.00    +0.000 OA
BRANCH  33  38
ATOM     34  O   UNL     1     111.373 125.724 137.314  0.00  0.00    +0.000 OA
ATOM     35  O   UNL     1     113.284 124.861 137.919  0.00  0.00    +0.000 OA
ATOM     36  O   UNL     1     112.980 124.010 136.539  0.00  0.00    +0.000 OA
ATOM     37  O   UNL     1     111.604 124.302 135.676  0.00  0.00    +0.000 OA
ATOM     38  C   UNL     1     112.061 125.579 137.746  0.00  0.00    +0.000 C 
ATOM     39  C   UNL     1     112.597 125.007 137.487  0.00  0.00    +0.000 C 
ATOM     40  C   UNL     1     112.444 124.581 136.797  0.00  0.00    +0.000 C 
ATOM     41  C   UNL     1     111.756 124.727 136.366  0.00  0.00    +0.000 C 
ATOM     42  C   UNL     1     111.221 125.299 136.624  0.00  0.00    +0.000 C 
ATOM     43  C   UNL     1     110.533 125.445 136.193  0.00  0.00    +0.000 C 
ENDBRANCH  33  38
ENDBRANCH  26  33
ENDBRANCH   1  29
TORSDOF 7
ENDMDL
MODEL 8
REMARK VINA RESULT:      -9.5      1.511      4.490
REMARK  Name = 44257994
REMARK  7 active torsions:
REMARK  status: ('A' for Active; 'I' for Inactive)
REMARK    1  A    between atoms: O_1  and  C_16
REMARK    2  A    between atoms: O_1  and  C_19
REMARK    3  A    between atoms: O_5  and  C_20
REMARK    4  A    between atoms: O_5  and  C_28
REMARK    5  A    between atoms: O_15  and  C_42
REMARK    6  A    between atoms: C_22  and  C_26
REMARK    7  A    between atoms: C_29  and  C_32
REMARK                            x       y       z     vdW  Elec       q    Type
REMARK                         _______ _______ _______ _____ _____    ______ ____
ROOT
ATOM      1  O   UNL     1     112.186 127.452 137.856  0.00  0.00    +0.000 OA
ENDROOT
BRANCH   1   6
ATOM      2  O   UNL     1     112.461 125.293 138.023  0.00  0.00    +0.000 OA
ATOM      3  O   UNL     1     111.503 126.941 136.444  0.00  0.00    +0.000 OA
ATOM      4  O   UNL     1     111.124 125.889 135.531  0.00  0.00    +0.000 OA
ATOM      5  O   UNL     1     111.726 123.119 136.231  0.00  0.00    +0.000 OA
ATOM      6  C   UNL     1     112.164 126.647 137.676  0.00  0.00    +0.000 A 
ATOM      7  C   UNL     1     112.483 126.098 138.203  0.00  0.00    +0.000 A 
ATOM      8  C   UNL     1     111.822 126.392 136.971  0.00  0.00    +0.000 A 
ATOM      9  C   UNL     1     111.800 125.587 136.791  0.00  0.00    +0.000 A 
ATOM     10  C   UNL     1     112.119 125.037 137.317  0.00  0.00    +0.000 A 
ATOM     11  C   UNL     1     111.441 125.332 136.052  0.00  0.00    +0.000 A 
ATOM     12  C   UNL     1     112.102 124.196 137.141  0.00  0.00    +0.000 A 
ATOM     13  C   UNL     1     111.414 124.496 135.860  0.00  0.00    +0.000 A 
ATOM     14  C   UNL     1     111.747 123.924 136.408  0.00  0.00    +0.000 A 
BRANCH   7  15
ATOM     15  C   UNL     1     112.825 126.353 138.908  0.00  0.00    +0.000 A 
ATOM     16  C   UNL     1     113.618 126.579 138.924  0.00  0.00    +0.000 A 
ATOM     17  C   UNL     1     112.374 126.383 139.599  0.00  0.00    +0.000 A 
ATOM     18  C   UNL     1     113.961 126.834 139.631  0.00  0.00    +0.000 A 
ATOM     19  C   UNL     1     112.715 126.638 140.304  0.00  0.00    +0.000 A 
ATOM     20  C   UNL     1     113.509 126.864 140.320  0.00  0.00    +0.000 A 
BRANCH  20  21
ATOM     21  O   UNL     1     113.851 127.120 141.027  0.00  0.00    +0.000 OA
ATOM     22  C   UNL     1     114.586 127.494 141.017  0.00  0.00    +0.000 C 
ENDBRANCH  20  21
ENDBRANCH   7  15
ENDBRANCH   1   6
BRANCH   1  29
ATOM     23  O   UNL     1     110.796 127.565 138.166  0.00  0.00    +0.000 OA
ATOM     24  O   UNL     1     110.784 129.872 137.272  0.00  0.00    +0.000 OA
ATOM     25  O   UNL     1     109.399 129.216 137.880  0.00  0.00    +0.000 OA
ATOM     26  C   UNL     1     111.485 128.662 137.564  0.00  0.00    +0.000 C 
ATOM     27  C   UNL     1     110.788 129.103 137.570  0.00  0.00    +0.000 C 
ATOM     28  C   UNL     1     110.095 128.775 137.874  0.00  0.00    +0.000 C 
ATOM     29  C   UNL     1     111.490 127.893 137.862  0.00  0.00    +0.000 C 
ATOM     30  C   UNL     1     110.099 128.006 138.172  0.00  0.00    +0.000 C 
BRANCH  30  32
ATOM     31  O   UNL     1     109.367 127.464 139.273  0.00  0.00    +0.000 OA
ATOM     32  C   UNL     1     109.407 127.677 138.477  0.00  0.00    +0.000 C 
ENDBRANCH  30  32
BRANCH  26  33
ATOM     33  O   UNL     1     112.178 128.990 137.260  0.00  0.00    +0.000 OA
BRANCH  33  38
ATOM     34  O   UNL     1     112.397 129.675 138.495  0.00  0.00    +0.000 OA
ATOM     35  O   UNL     1     113.569 129.640 136.654  0.00  0.00    +0.000 OA
ATOM     36  O   UNL     1     114.482 130.650 137.587  0.00  0.00    +0.000 OA
ATOM     37  O   UNL     1     114.004 131.009 139.125  0.00  0.00    +0.000 OA
ATOM     38  C   UNL     1     112.635 129.495 137.726  0.00  0.00    +0.000 C 
ATOM     39  C   UNL     1     113.331 129.820 137.423  0.00  0.00    +0.000 C 
ATOM     40  C   UNL     1     113.787 130.325 137.889  0.00  0.00    +0.000 C 
ATOM     41  C   UNL     1     113.548 130.504 138.658  0.00  0.00    +0.000 C 
ATOM     42  C   UNL     1     112.853 130.180 138.961  0.00  0.00    +0.000 C 
ATOM     43  C   UNL     1     112.614 130.359 139.730  0.00  0.00    +0.000 C 
ENDBRANCH  33  38
ENDBRANCH  26  33
ENDBRANCH   1  29
TORSDOF 7
ENDMDL
MODEL 9
REMARK VINA RESULT:      -9.5      1.810      3.564
REMARK  Name = 44257994
REMARK  7 active torsions:
REMARK  status: ('A' for Active; 'I' for Inactive)
REMARK    1  A    between atoms: O_1  and  C_16
REMARK    2  A    between atoms: O_1  and  C_19
REMARK    3  A    between atoms: O_5  and  C_20
REMARK    4  A    between atoms: O_5  and  C_28
REMARK    5  A    between atoms: O_15  and  C_42
REMARK    6  A    between atoms: C_22  and  C_26
REMARK    7  A    between atoms: C_29  and  C_32
REMARK                            x       y       z     vdW  Elec       q    Type
REMARK                         _______ _______ _______ _____ _____    ______ ____
ROOT
ATOM      1  O   UNL     1     111.887 127.885 137.633  0.00  0.00    +0.000 OA
ENDROOT
BRANCH   1   6
ATOM      2  O   UNL     1     113.364 127.796 136.029  0.00  0.00    +0.000 OA
ATOM      3  O   UNL     1     112.465 129.430 137.656  0.00  0.00    +0.000 OA
ATOM      4  O   UNL     1     113.341 130.459 137.151  0.00  0.00    +0.000 OA
ATOM      5  O   UNL     1     115.160 129.822 134.957  0.00  0.00    +0.000 OA
ATOM      6  C   UNL     1     112.476 128.113 137.102  0.00  0.00    +0.000 A 
ATOM      7  C   UNL     1     112.775 127.568 136.560  0.00  0.00    +0.000 A 
ATOM      8  C   UNL     1     112.764 128.885 137.114  0.00  0.00    +0.000 A 
ATOM      9  C   UNL     1     113.353 129.113 136.583  0.00  0.00    +0.000 A 
ATOM     10  C   UNL     1     113.653 128.569 136.040  0.00  0.00    +0.000 A 
ATOM     11  C   UNL     1     113.646 129.921 136.604  0.00  0.00    +0.000 A 
ATOM     12  C   UNL     1     114.266 128.794 135.482  0.00  0.00    +0.000 A 
ATOM     13  C   UNL     1     114.259 130.164 136.054  0.00  0.00    +0.000 A 
ATOM     14  C   UNL     1     114.571 129.597 135.489  0.00  0.00    +0.000 A 
BRANCH   7  15
ATOM     15  C   UNL     1     112.486 126.796 136.548  0.00  0.00    +0.000 A 
ATOM     16  C   UNL     1     112.791 126.233 137.069  0.00  0.00    +0.000 A 
ATOM     17  C   UNL     1     111.892 126.584 136.016  0.00  0.00    +0.000 A 
ATOM     18  C   UNL     1     112.502 125.460 137.058  0.00  0.00    +0.000 A 
ATOM     19  C   UNL     1     111.604 125.812 136.004  0.00  0.00    +0.000 A 
ATOM     20  C   UNL     1     111.909 125.250 136.525  0.00  0.00    +0.000 A 
BRANCH  20  21
ATOM     21  O   UNL     1     111.620 124.477 136.514  0.00  0.00    +0.000 OA
ATOM     22  C   UNL     1     111.755 123.976 137.156  0.00  0.00    +0.000 C 
ENDBRANCH  20  21
ENDBRANCH   7  15
ENDBRANCH   1   6
BRANCH   1  29
ATOM     23  O   UNL     1     110.824 128.580 136.979  0.00  0.00    +0.000 OA
ATOM     24  O   UNL     1     109.768 129.029 139.171  0.00  0.00    +0.000 OA
ATOM     25  O   UNL     1     109.058 129.575 137.786  0.00  0.00    +0.000 OA
ATOM     26  C   UNL     1     110.827 128.457 138.403  0.00  0.00    +0.000 C 
ATOM     27  C   UNL     1     110.120 128.880 138.441  0.00  0.00    +0.000 C 
ATOM     28  C   UNL     1     109.764 129.152 137.749  0.00  0.00    +0.000 C 
ATOM     29  C   UNL     1     111.180 128.307 137.672  0.00  0.00    +0.000 C 
ATOM     30  C   UNL     1     110.117 129.003 137.018  0.00  0.00    +0.000 C 
BRANCH  30  32
ATOM     31  O   UNL     1     109.506 128.737 135.753  0.00  0.00    +0.000 OA
ATOM     32  C   UNL     1     109.762 129.275 136.325  0.00  0.00    +0.000 C 
ENDBRANCH  30  32
BRANCH  26  33
ATOM     33  O   UNL     1     111.183 128.184 139.095  0.00  0.00    +0.000 OA
BRANCH  33  38
ATOM     34  O   UNL     1     110.270 127.085 139.131  0.00  0.00    +0.000 OA
ATOM     35  O   UNL     1     111.886 127.645 140.487  0.00  0.00    +0.000 OA
ATOM     36  O   UNL     1     111.325 126.276 141.218  0.00  0.00    +0.000 OA
ATOM     37  O   UNL     1     110.061 125.447 140.557  0.00  0.00    +0.000 OA
ATOM     38  C   UNL     1     110.902 127.500 139.461  0.00  0.00    +0.000 C 
ATOM     39  C   UNL     1     111.254 127.230 140.157  0.00  0.00    +0.000 C 
ATOM     40  C   UNL     1     110.973 126.546 140.523  0.00  0.00    +0.000 C 
ATOM     41  C   UNL     1     110.341 126.131 140.192  0.00  0.00    +0.000 C 
ATOM     42  C   UNL     1     109.990 126.401 139.496  0.00  0.00    +0.000 C 
ATOM     43  C   UNL     1     109.357 125.986 139.165  0.00  0.00    +0.000 C 
ENDBRANCH  33  38
ENDBRANCH  26  33
ENDBRANCH   1  29
TORSDOF 7
ENDMDL
MODEL 10
REMARK VINA RESULT:      -9.5      1.267      1.521
REMARK  Name = 44257994
REMARK  7 active torsions:
REMARK  status: ('A' for Active; 'I' for Inactive)
REMARK    1  A    between atoms: O_1  and  C_16
REMARK    2  A    between atoms: O_1  and  C_19
REMARK    3  A    between atoms: O_5  and  C_20
REMARK    4  A    between atoms: O_5  and  C_28
REMARK    5  A    between atoms: O_15  and  C_42
REMARK    6  A    between atoms: C_22  and  C_26
REMARK    7  A    between atoms: C_29  and  C_32
REMARK                            x       y       z     vdW  Elec       q    Type
REMARK                         _______ _______ _______ _____ _____    ______ ____
ROOT
ATOM      1  O   UNL     1     111.929 128.141 137.732  0.00  0.00    +0.000 OA
ENDROOT
BRANCH   1   6
ATOM      2  O   UNL     1     112.903 126.639 138.980  0.00  0.00    +0.000 OA
ATOM      3  O   UNL     1     112.755 129.102 138.789  0.00  0.00    +0.000 OA
ATOM      4  O   UNL     1     113.637 129.272 139.918  0.00  0.00    +0.000 OA
ATOM      5  O   UNL     1     114.688 126.905 141.266  0.00  0.00    +0.000 OA
ATOM      6  C   UNL     1     112.391 127.801 138.324  0.00  0.00    +0.000 A 
ATOM      7  C   UNL     1     112.440 126.979 138.388  0.00  0.00    +0.000 A 
ATOM      8  C   UNL     1     112.804 128.281 138.852  0.00  0.00    +0.000 A 
ATOM      9  C   UNL     1     113.267 127.940 139.445  0.00  0.00    +0.000 A 
ATOM     10  C   UNL     1     113.316 127.120 139.509  0.00  0.00    +0.000 A 
ATOM     11  C   UNL     1     113.693 128.452 139.989  0.00  0.00    +0.000 A 
ATOM     12  C   UNL     1     113.794 126.752 140.121  0.00  0.00    +0.000 A 
ATOM     13  C   UNL     1     114.176 128.103 140.608  0.00  0.00    +0.000 A 
ATOM     14  C   UNL     1     114.227 127.248 140.674  0.00  0.00    +0.000 A 
BRANCH   7  15
ATOM     15  C   UNL     1     112.028 126.499 137.860  0.00  0.00    +0.000 A 
ATOM     16  C   UNL     1     112.415 126.175 137.208  0.00  0.00    +0.000 A 
ATOM     17  C   UNL     1     111.227 126.341 137.984  0.00  0.00    +0.000 A 
ATOM     18  C   UNL     1     112.002 125.694 136.679  0.00  0.00    +0.000 A 
ATOM     19  C   UNL     1     110.814 125.861 137.456  0.00  0.00    +0.000 A 
ATOM     20  C   UNL     1     111.202 125.537 136.804  0.00  0.00    +0.000 A 
BRANCH  20  21
ATOM     21  O   UNL     1     110.789 125.056 136.275  0.00  0.00    +0.000 OA
ATOM     22  C   UNL     1     110.734 125.269 135.480  0.00  0.00    +0.000 C 
ENDBRANCH  20  21
ENDBRANCH   7  15
ENDBRANCH   1   6
BRANCH   1  29
ATOM     23  O   UNL     1     113.017 128.549 136.900  0.00  0.00    +0.000 OA
ATOM     24  O   UNL     1     111.760 130.580 136.253  0.00  0.00    +0.000 OA
ATOM     25  O   UNL     1     113.266 130.311 135.637  0.00  0.00    +0.000 OA
ATOM     26  C   UNL     1     111.844 129.361 136.993  0.00  0.00    +0.000 C 
ATOM     27  C   UNL     1     112.179 129.903 136.468  0.00  0.00    +0.000 C 
ATOM     28  C   UNL     1     112.932 129.769 136.160  0.00  0.00    +0.000 C 
ATOM     29  C   UNL     1     112.263 128.684 137.208  0.00  0.00    +0.000 C 
ATOM     30  C   UNL     1     113.350 129.091 136.376  0.00  0.00    +0.000 C 
BRANCH  30  32
ATOM     31  O   UNL     1     114.247 128.284 135.611  0.00  0.00    +0.000 OA
ATOM     32  C   UNL     1     114.104 128.956 136.068  0.00  0.00    +0.000 C 
ENDBRANCH  30  32
BRANCH  26  33
ATOM     33  O   UNL     1     111.091 129.496 137.301  0.00  0.00    +0.000 OA
BRANCH  33  38
ATOM     34  O   UNL     1     110.505 129.004 136.094  0.00  0.00    +0.000 OA
ATOM     35  O   UNL     1     109.595 129.914 137.857  0.00  0.00    +0.000 OA
ATOM     36  O   UNL     1     108.261 129.631 136.928  0.00  0.00    +0.000 OA
ATOM     37  O   UNL     1     108.423 128.931 135.443  0.00  0.00    +0.000 OA
ATOM     38  C   UNL     1     110.424 129.354 136.836  0.00  0.00    +0.000 C 
ATOM     39  C   UNL     1     109.675 129.564 137.114  0.00  0.00    +0.000 C 
ATOM     40  C   UNL     1     109.008 129.422 136.650  0.00  0.00    +0.000 C 
ATOM     41  C   UNL     1     109.090 129.072 135.907  0.00  0.00    +0.000 C 
ATOM     42  C   UNL     1     109.838 128.863 135.629  0.00  0.00    +0.000 C 
ATOM     43  C   UNL     1     109.919 128.513 134.887  0.00  0.00    +0.000 C 
ENDBRANCH  33  38
ENDBRANCH  26  33
ENDBRANCH   1  29
TORSDOF 7
ENDMDL
