MODEL 1
REMARK VINA RESULT:      -8.1      0.000      0.000
REMARK  Name = 131753027
REMARK  5 active torsions:
REMARK  status: ('A' for Active; 'I' for Inactive)
REMARK    1  A    between atoms: O_3  and  C_14
REMARK    2  A    between atoms: O_4  and  C_17
REMARK    3  A    between atoms: C_6  and  C_9
REMARK    4  A    between atoms: C_15  and  C_19
REMARK    5  A    between atoms: C_19  and  C_22
REMARK                            x       y       z     vdW  Elec       q    Type
REMARK                         _______ _______ _______ _____ _____    ______ ____
ROOT
ATOM      1  O   UNL     1     112.385 126.693 136.360  0.00  0.00    +0.000 OA
ATOM      2  C   UNL     1     111.231 125.954 135.957  0.00  0.00    +0.000 A 
ATOM      3  C   UNL     1     111.982 125.977 136.298  0.00  0.00    +0.000 A 
ATOM      4  C   UNL     1     110.827 125.237 135.895  0.00  0.00    +0.000 A 
ATOM      5  C   UNL     1     112.329 125.282 136.577  0.00  0.00    +0.000 A 
ATOM      6  C   UNL     1     111.925 124.565 136.515  0.00  0.00    +0.000 A 
ATOM      7  C   UNL     1     111.174 124.542 136.174  0.00  0.00    +0.000 A 
ENDROOT
BRANCH   2  10
ATOM      8  O   UNL     1     110.632 127.566 134.612  0.00  0.00    +0.000 OA
ATOM      9  O   UNL     1     109.025 129.951 135.068  0.00  0.00    +0.000 OA
ATOM     10  C   UNL     1     110.884 126.649 135.679  0.00  0.00    +0.000 C 
ATOM     11  C   UNL     1     110.441 127.122 136.190  0.00  0.00    +0.000 C 
ATOM     12  C   UNL     1     110.979 126.870 134.891  0.00  0.00    +0.000 C 
ATOM     13  C   UNL     1     110.094 127.817 135.911  0.00  0.00    +0.000 A 
ATOM     14  C   UNL     1     110.190 128.038 135.124  0.00  0.00    +0.000 A 
ATOM     15  C   UNL     1     109.635 128.301 136.454  0.00  0.00    +0.000 A 
ATOM     16  C   UNL     1     109.833 128.760 134.821  0.00  0.00    +0.000 A 
ATOM     17  C   UNL     1     109.271 129.026 136.171  0.00  0.00    +0.000 A 
ATOM     18  C   UNL     1     109.371 129.257 135.348  0.00  0.00    +0.000 A 
BRANCH  15  19
ATOM     19  O   UNL     1     109.545 128.071 137.241  0.00  0.00    +0.000 OA
ATOM     20  C   UNL     1     109.398 128.639 137.822  0.00  0.00    +0.000 C 
ENDBRANCH  15  19
ENDBRANCH   2  10
BRANCH   6  21
ATOM     21  O   UNL     1     112.273 123.870 136.794  0.00  0.00    +0.000 OA
ATOM     22  C   UNL     1     111.813 123.194 136.905  0.00  0.00    +0.000 C 
ENDBRANCH   6  21
BRANCH   5  23
ATOM     23  C   UNL     1     113.081 125.305 136.918  0.00  0.00    +0.000 C 
BRANCH  23  24
ATOM     24  C   UNL     1     113.751 125.275 136.438  0.00  0.00    +0.000 C 
ATOM     25  C   UNL     1     114.503 125.291 136.779  0.00  0.00    +0.000 C 
ATOM     26  C   UNL     1     115.173 125.262 136.300  0.00  0.00    +0.000 C 
ATOM     27  C   UNL     1     114.583 125.336 137.598  0.00  0.00    +0.000 C 
ENDBRANCH  23  24
ENDBRANCH   5  23
TORSDOF 5
ENDMDL
MODEL 2
REMARK VINA RESULT:      -8.1      2.689      3.509
REMARK  Name = 131753027
REMARK  5 active torsions:
REMARK  status: ('A' for Active; 'I' for Inactive)
REMARK    1  A    between atoms: O_3  and  C_14
REMARK    2  A    between atoms: O_4  and  C_17
REMARK    3  A    between atoms: C_6  and  C_9
REMARK    4  A    between atoms: C_15  and  C_19
REMARK    5  A    between atoms: C_19  and  C_22
REMARK                            x       y       z     vdW  Elec       q    Type
REMARK                         _______ _______ _______ _____ _____    ______ ____
ROOT
ATOM      1  O   UNL     1     112.331 126.855 136.935  0.00  0.00    +0.000 OA
ATOM      2  C   UNL     1     111.715 127.626 135.902  0.00  0.00    +0.000 A 
ATOM      3  C   UNL     1     111.816 126.906 136.294  0.00  0.00    +0.000 A 
ATOM      4  C   UNL     1     111.200 127.678 135.260  0.00  0.00    +0.000 A 
ATOM      5  C   UNL     1     111.402 126.239 136.042  0.00  0.00    +0.000 A 
ATOM      6  C   UNL     1     110.887 126.291 135.400  0.00  0.00    +0.000 A 
ATOM      7  C   UNL     1     110.785 127.009 135.008  0.00  0.00    +0.000 A 
ENDROOT
BRANCH   2  10
ATOM      8  O   UNL     1     112.251 129.420 137.024  0.00  0.00    +0.000 OA
ATOM      9  O   UNL     1     114.533 131.216 136.801  0.00  0.00    +0.000 OA
ATOM     10  C   UNL     1     112.129 128.294 136.154  0.00  0.00    +0.000 C 
ATOM     11  C   UNL     1     112.838 128.502 135.785  0.00  0.00    +0.000 C 
ATOM     12  C   UNL     1     111.836 128.752 136.772  0.00  0.00    +0.000 C 
ATOM     13  C   UNL     1     113.252 129.169 136.037  0.00  0.00    +0.000 A 
ATOM     14  C   UNL     1     112.959 129.628 136.655  0.00  0.00    +0.000 A 
ATOM     15  C   UNL     1     113.990 129.375 135.645  0.00  0.00    +0.000 A 
ATOM     16  C   UNL     1     113.382 130.326 136.927  0.00  0.00    +0.000 A 
ATOM     17  C   UNL     1     114.426 130.069 135.902  0.00  0.00    +0.000 A 
ATOM     18  C   UNL     1     114.120 130.548 136.547  0.00  0.00    +0.000 A 
BRANCH  15  19
ATOM     19  O   UNL     1     114.275 128.910 135.026  0.00  0.00    +0.000 OA
ATOM     20  C   UNL     1     114.961 129.134 134.625  0.00  0.00    +0.000 C 
ENDBRANCH  15  19
ENDBRANCH   2  10
BRANCH   6  21
ATOM     21  O   UNL     1     110.472 125.622 135.148  0.00  0.00    +0.000 OA
ATOM     22  C   UNL     1     109.849 125.700 134.613  0.00  0.00    +0.000 C 
ENDBRANCH   6  21
BRANCH   5  23
ATOM     23  C   UNL     1     111.503 125.519 136.433  0.00  0.00    +0.000 C 
BRANCH  23  24
ATOM     24  C   UNL     1     112.166 125.055 136.276  0.00  0.00    +0.000 C 
ATOM     25  C   UNL     1     112.278 124.345 136.683  0.00  0.00    +0.000 C 
ATOM     26  C   UNL     1     112.941 123.880 136.526  0.00  0.00    +0.000 C 
ATOM     27  C   UNL     1     111.727 124.100 137.245  0.00  0.00    +0.000 C 
ENDBRANCH  23  24
ENDBRANCH   5  23
TORSDOF 5
ENDMDL
MODEL 3
REMARK VINA RESULT:      -8.0      2.467      4.800
REMARK  Name = 131753027
REMARK  5 active torsions:
REMARK  status: ('A' for Active; 'I' for Inactive)
REMARK    1  A    between atoms: O_3  and  C_14
REMARK    2  A    between atoms: O_4  and  C_17
REMARK    3  A    between atoms: C_6  and  C_9
REMARK    4  A    between atoms: C_15  and  C_19
REMARK    5  A    between atoms: C_19  and  C_22
REMARK                            x       y       z     vdW  Elec       q    Type
REMARK                         _______ _______ _______ _____ _____    ______ ____
ROOT
ATOM      1  O   UNL     1     112.806 127.921 137.647  0.00  0.00    +0.000 OA
ATOM      2  C   UNL     1     113.496 127.524 136.461  0.00  0.00    +0.000 A 
ATOM      3  C   UNL     1     113.235 128.118 136.972  0.00  0.00    +0.000 A 
ATOM      4  C   UNL     1     113.927 127.721 135.785  0.00  0.00    +0.000 A 
ATOM      5  C   UNL     1     113.405 128.908 136.807  0.00  0.00    +0.000 A 
ATOM      6  C   UNL     1     113.835 129.105 136.131  0.00  0.00    +0.000 A 
ATOM      7  C   UNL     1     114.096 128.512 135.620  0.00  0.00    +0.000 A 
ENDROOT
BRANCH   2  10
ATOM      8  O   UNL     1     113.665 125.504 137.269  0.00  0.00    +0.000 OA
ATOM      9  O   UNL     1     111.948 123.169 136.982  0.00  0.00    +0.000 OA
ATOM     10  C   UNL     1     113.327 126.734 136.627  0.00  0.00    +0.000 C 
ATOM     11  C   UNL     1     112.648 126.384 136.314  0.00  0.00    +0.000 C 
ATOM     12  C   UNL     1     113.835 126.294 137.104  0.00  0.00    +0.000 C 
ATOM     13  C   UNL     1     112.478 125.594 136.480  0.00  0.00    +0.000 A 
ATOM     14  C   UNL     1     112.986 125.154 136.957  0.00  0.00    +0.000 A 
ATOM     15  C   UNL     1     111.767 125.241 136.148  0.00  0.00    +0.000 A 
ATOM     16  C   UNL     1     112.821 124.330 137.137  0.00  0.00    +0.000 A 
ATOM     17  C   UNL     1     111.585 124.419 136.317  0.00  0.00    +0.000 A 
ATOM     18  C   UNL     1     112.115 123.960 136.815  0.00  0.00    +0.000 A 
BRANCH  15  19
ATOM     19  O   UNL     1     111.264 125.689 135.672  0.00  0.00    +0.000 OA
ATOM     20  C   UNL     1     110.556 125.364 135.401  0.00  0.00    +0.000 C 
ENDBRANCH  15  19
ENDBRANCH   2  10
BRANCH   6  21
ATOM     21  O   UNL     1     114.004 129.896 135.965  0.00  0.00    +0.000 OA
ATOM     22  C   UNL     1     114.568 130.087 135.394  0.00  0.00    +0.000 C 
ENDBRANCH   6  21
BRANCH   5  23
ATOM     23  C   UNL     1     113.143 129.501 137.318  0.00  0.00    +0.000 C 
BRANCH  23  24
ATOM     24  C   UNL     1     112.381 129.807 137.238  0.00  0.00    +0.000 C 
ATOM     25  C   UNL     1     112.102 130.364 137.780  0.00  0.00    +0.000 C 
ATOM     26  C   UNL     1     111.340 130.670 137.701  0.00  0.00    +0.000 C 
ATOM     27  C   UNL     1     112.585 130.614 138.400  0.00  0.00    +0.000 C 
ENDBRANCH  23  24
ENDBRANCH   5  23
TORSDOF 5
ENDMDL
MODEL 4
REMARK VINA RESULT:      -8.0      3.721      4.645
REMARK  Name = 131753027
REMARK  5 active torsions:
REMARK  status: ('A' for Active; 'I' for Inactive)
REMARK    1  A    between atoms: O_3  and  C_14
REMARK    2  A    between atoms: O_4  and  C_17
REMARK    3  A    between atoms: C_6  and  C_9
REMARK    4  A    between atoms: C_15  and  C_19
REMARK    5  A    between atoms: C_19  and  C_22
REMARK                            x       y       z     vdW  Elec       q    Type
REMARK                         _______ _______ _______ _____ _____    ______ ____
ROOT
ATOM      1  O   UNL     1     114.240 126.742 138.936  0.00  0.00    +0.000 OA
ATOM      2  C   UNL     1     112.918 127.188 139.249  0.00  0.00    +0.000 A 
ATOM      3  C   UNL     1     113.423 126.650 138.876  0.00  0.00    +0.000 A 
ATOM      4  C   UNL     1     112.101 127.095 139.189  0.00  0.00    +0.000 A 
ATOM      5  C   UNL     1     113.109 126.022 138.445  0.00  0.00    +0.000 A 
ATOM      6  C   UNL     1     112.291 125.929 138.385  0.00  0.00    +0.000 A 
ATOM      7  C   UNL     1     111.787 126.466 138.756  0.00  0.00    +0.000 A 
ENDROOT
BRANCH   2  10
ATOM      8  O   UNL     1     113.738 128.346 140.907  0.00  0.00    +0.000 OA
ATOM      9  O   UNL     1     114.633 131.113 141.061  0.00  0.00    +0.000 OA
ATOM     10  C   UNL     1     113.232 127.816 139.680  0.00  0.00    +0.000 C 
ATOM     11  C   UNL     1     113.355 128.546 139.315  0.00  0.00    +0.000 C 
ATOM     12  C   UNL     1     113.424 127.716 140.476  0.00  0.00    +0.000 C 
ATOM     13  C   UNL     1     113.669 129.175 139.747  0.00  0.00    +0.000 A 
ATOM     14  C   UNL     1     113.861 129.075 140.542  0.00  0.00    +0.000 A 
ATOM     15  C   UNL     1     113.792 129.931 139.354  0.00  0.00    +0.000 A 
ATOM     16  C   UNL     1     114.189 129.723 141.003  0.00  0.00    +0.000 A 
ATOM     17  C   UNL     1     114.119 130.590 139.798  0.00  0.00    +0.000 A 
ATOM     18  C   UNL     1     114.319 130.485 140.628  0.00  0.00    +0.000 A 
BRANCH  15  19
ATOM     19  O   UNL     1     113.598 130.022 138.558  0.00  0.00    +0.000 OA
ATOM     20  C   UNL     1     113.880 130.673 138.137  0.00  0.00    +0.000 C 
ENDBRANCH  15  19
ENDBRANCH   2  10
BRANCH   6  21
ATOM     21  O   UNL     1     111.977 125.300 137.953  0.00  0.00    +0.000 OA
ATOM     22  C   UNL     1     111.167 125.147 137.975  0.00  0.00    +0.000 C 
ENDBRANCH   6  21
BRANCH   5  23
ATOM     23  C   UNL     1     113.614 125.484 138.073  0.00  0.00    +0.000 C 
BRANCH  23  24
ATOM     24  C   UNL     1     113.960 125.678 137.349  0.00  0.00    +0.000 C 
ATOM     25  C   UNL     1     114.501 125.161 137.001  0.00  0.00    +0.000 C 
ATOM     26  C   UNL     1     114.848 125.355 136.277  0.00  0.00    +0.000 C 
ATOM     27  C   UNL     1     114.696 124.453 137.375  0.00  0.00    +0.000 C 
ENDBRANCH  23  24
ENDBRANCH   5  23
TORSDOF 5
ENDMDL
MODEL 5
REMARK VINA RESULT:      -7.9      2.788      4.671
REMARK  Name = 131753027
REMARK  5 active torsions:
REMARK  status: ('A' for Active; 'I' for Inactive)
REMARK    1  A    between atoms: O_3  and  C_14
REMARK    2  A    between atoms: O_4  and  C_17
REMARK    3  A    between atoms: C_6  and  C_9
REMARK    4  A    between atoms: C_15  and  C_19
REMARK    5  A    between atoms: C_19  and  C_22
REMARK                            x       y       z     vdW  Elec       q    Type
REMARK                         _______ _______ _______ _____ _____    ______ ____
ROOT
ATOM      1  O   UNL     1     113.763 127.988 135.850  0.00  0.00    +0.000 OA
ATOM      2  C   UNL     1     112.697 128.054 136.799  0.00  0.00    +0.000 A 
ATOM      3  C   UNL     1     113.216 128.431 136.279  0.00  0.00    +0.000 A 
ATOM      4  C   UNL     1     112.150 128.498 137.228  0.00  0.00    +0.000 A 
ATOM      5  C   UNL     1     113.186 129.250 136.188  0.00  0.00    +0.000 A 
ATOM      6  C   UNL     1     112.639 129.693 136.617  0.00  0.00    +0.000 A 
ATOM      7  C   UNL     1     112.120 129.318 137.137  0.00  0.00    +0.000 A 
ENDROOT
BRANCH   2  10
ATOM      8  O   UNL     1     113.315 126.075 137.482  0.00  0.00    +0.000 OA
ATOM      9  O   UNL     1     112.309 123.420 136.838  0.00  0.00    +0.000 OA
ATOM     10  C   UNL     1     112.727 127.235 136.890  0.00  0.00    +0.000 C 
ATOM     11  C   UNL     1     112.197 126.755 136.477  0.00  0.00    +0.000 C 
ATOM     12  C   UNL     1     113.286 126.896 137.392  0.00  0.00    +0.000 C 
ATOM     13  C   UNL     1     112.227 125.936 136.568  0.00  0.00    +0.000 A 
ATOM     14  C   UNL     1     112.785 125.596 137.070  0.00  0.00    +0.000 A 
ATOM     15  C   UNL     1     111.669 125.447 136.132  0.00  0.00    +0.000 A 
ATOM     16  C   UNL     1     112.827 124.743 137.172  0.00  0.00    +0.000 A 
ATOM     17  C   UNL     1     111.695 124.593 136.222  0.00  0.00    +0.000 A 
ATOM     18  C   UNL     1     112.278 124.239 136.746  0.00  0.00    +0.000 A 
BRANCH  15  19
ATOM     19  O   UNL     1     111.113 125.796 135.632  0.00  0.00    +0.000 OA
ATOM     20  C   UNL     1     110.476 125.353 135.352  0.00  0.00    +0.000 C 
ENDBRANCH  15  19
ENDBRANCH   2  10
BRANCH   6  21
ATOM     21  O   UNL     1     112.609 130.513 136.526  0.00  0.00    +0.000 OA
ATOM     22  C   UNL     1     111.988 130.943 136.859  0.00  0.00    +0.000 C 
ENDBRANCH   6  21
BRANCH   5  23
ATOM     23  C   UNL     1     113.705 129.626 135.668  0.00  0.00    +0.000 C 
BRANCH  23  24
ATOM     24  C   UNL     1     114.414 129.942 135.949  0.00  0.00    +0.000 C 
ATOM     25  C   UNL     1     114.961 130.262 135.420  0.00  0.00    +0.000 C 
ATOM     26  C   UNL     1     115.670 130.577 135.701  0.00  0.00    +0.000 C 
ATOM     27  C   UNL     1     114.800 130.266 134.612  0.00  0.00    +0.000 C 
ENDBRANCH  23  24
ENDBRANCH   5  23
TORSDOF 5
ENDMDL
MODEL 6
REMARK VINA RESULT:      -7.9     11.112     12.972
REMARK  Name = 131753027
REMARK  5 active torsions:
REMARK  status: ('A' for Active; 'I' for Inactive)
REMARK    1  A    between atoms: O_3  and  C_14
REMARK    2  A    between atoms: O_4  and  C_17
REMARK    3  A    between atoms: C_6  and  C_9
REMARK    4  A    between atoms: C_15  and  C_19
REMARK    5  A    between atoms: C_19  and  C_22
REMARK                            x       y       z     vdW  Elec       q    Type
REMARK                         _______ _______ _______ _____ _____    ______ ____
ROOT
ATOM      1  O   UNL     1     105.004 126.131 146.390  0.00  0.00    +0.000 OA
ATOM      2  C   UNL     1     105.309 125.012 147.225  0.00  0.00    +0.000 A 
ATOM      3  C   UNL     1     105.548 125.700 146.835  0.00  0.00    +0.000 A 
ATOM      4  C   UNL     1     105.853 124.581 147.670  0.00  0.00    +0.000 A 
ATOM      5  C   UNL     1     106.330 125.954 146.890  0.00  0.00    +0.000 A 
ATOM      6  C   UNL     1     106.875 125.522 147.335  0.00  0.00    +0.000 A 
ATOM      7  C   UNL     1     106.637 124.835 147.725  0.00  0.00    +0.000 A 
ENDROOT
BRANCH   2  10
ATOM      8  O   UNL     1     103.177 124.794 147.638  0.00  0.00    +0.000 OA
ATOM      9  O   UNL     1     101.128 123.170 146.356  0.00  0.00    +0.000 OA
ATOM     10  C   UNL     1     104.526 124.758 147.170  0.00  0.00    +0.000 C 
ATOM     11  C   UNL     1     104.310 124.212 146.590  0.00  0.00    +0.000 C 
ATOM     12  C   UNL     1     103.960 125.049 147.694  0.00  0.00    +0.000 C 
ATOM     13  C   UNL     1     103.528 123.958 146.535  0.00  0.00    +0.000 A 
ATOM     14  C   UNL     1     102.962 124.248 147.058  0.00  0.00    +0.000 A 
ATOM     15  C   UNL     1     103.315 123.389 145.925  0.00  0.00    +0.000 A 
ATOM     16  C   UNL     1     102.142 123.991 147.011  0.00  0.00    +0.000 A 
ATOM     17  C   UNL     1     102.502 123.120 145.862  0.00  0.00    +0.000 A 
ATOM     18  C   UNL     1     101.911 123.423 146.409  0.00  0.00    +0.000 A 
BRANCH  15  19
ATOM     19  O   UNL     1     103.889 123.104 145.405  0.00  0.00    +0.000 OA
ATOM     20  C   UNL     1     103.661 122.740 144.701  0.00  0.00    +0.000 C 
ENDBRANCH  15  19
ENDBRANCH   2  10
BRANCH   6  21
ATOM     21  O   UNL     1     107.658 125.777 147.390  0.00  0.00    +0.000 OA
ATOM     22  C   UNL     1     108.236 125.273 147.695  0.00  0.00    +0.000 C 
ENDBRANCH   6  21
BRANCH   5  23
ATOM     23  C   UNL     1     106.569 126.641 146.499  0.00  0.00    +0.000 C 
BRANCH  23  24
ATOM     24  C   UNL     1     106.409 127.379 146.831  0.00  0.00    +0.000 C 
ATOM     25  C   UNL     1     106.627 128.067 146.429  0.00  0.00    +0.000 C 
ATOM     26  C   UNL     1     106.467 128.806 146.760  0.00  0.00    +0.000 C 
ATOM     27  C   UNL     1     107.002 128.016 145.697  0.00  0.00    +0.000 C 
ENDBRANCH  23  24
ENDBRANCH   5  23
TORSDOF 5
ENDMDL
MODEL 7
REMARK VINA RESULT:      -7.8      2.438      2.943
REMARK  Name = 131753027
REMARK  5 active torsions:
REMARK  status: ('A' for Active; 'I' for Inactive)
REMARK    1  A    between atoms: O_3  and  C_14
REMARK    2  A    between atoms: O_4  and  C_17
REMARK    3  A    between atoms: C_6  and  C_9
REMARK    4  A    between atoms: C_15  and  C_19
REMARK    5  A    between atoms: C_19  and  C_22
REMARK                            x       y       z     vdW  Elec       q    Type
REMARK                         _______ _______ _______ _____ _____    ______ ____
ROOT
ATOM      1  O   UNL     1     112.387 126.939 136.733  0.00  0.00    +0.000 OA
ATOM      2  C   UNL     1     111.745 127.630 135.659  0.00  0.00    +0.000 A 
ATOM      3  C   UNL     1     111.838 126.950 136.118  0.00  0.00    +0.000 A 
ATOM      4  C   UNL     1     111.196 127.641 135.044  0.00  0.00    +0.000 A 
ATOM      5  C   UNL     1     111.381 126.282 135.961  0.00  0.00    +0.000 A 
ATOM      6  C   UNL     1     110.831 126.292 135.345  0.00  0.00    +0.000 A 
ATOM      7  C   UNL     1     110.739 126.971 134.886  0.00  0.00    +0.000 A 
ENDROOT
BRANCH   2  10
ATOM      8  O   UNL     1     113.415 129.036 135.651  0.00  0.00    +0.000 OA
ATOM      9  O   UNL     1     113.754 131.623 136.945  0.00  0.00    +0.000 OA
ATOM     10  C   UNL     1     112.202 128.298 135.816  0.00  0.00    +0.000 C 
ATOM     11  C   UNL     1     111.903 128.899 136.297  0.00  0.00    +0.000 C 
ATOM     12  C   UNL     1     112.957 128.367 135.494  0.00  0.00    +0.000 C 
ATOM     13  C   UNL     1     112.360 129.567 136.455  0.00  0.00    +0.000 A 
ATOM     14  C   UNL     1     113.115 129.636 136.132  0.00  0.00    +0.000 A 
ATOM     15  C   UNL     1     112.036 130.185 136.957  0.00  0.00    +0.000 A 
ATOM     16  C   UNL     1     113.601 130.328 136.289  0.00  0.00    +0.000 A 
ATOM     17  C   UNL     1     112.507 130.884 137.125  0.00  0.00    +0.000 A 
ATOM     18  C   UNL     1     113.295 130.956 136.789  0.00  0.00    +0.000 A 
BRANCH  15  19
ATOM     19  O   UNL     1     111.279 130.108 137.276  0.00  0.00    +0.000 OA
ATOM     20  C   UNL     1     110.984 130.689 137.782  0.00  0.00    +0.000 C 
ENDBRANCH  15  19
ENDBRANCH   2  10
BRANCH   6  21
ATOM     21  O   UNL     1     110.374 125.623 135.188  0.00  0.00    +0.000 OA
ATOM     22  C   UNL     1     109.731 125.674 134.675  0.00  0.00    +0.000 C 
ENDBRANCH   6  21
BRANCH   5  23
ATOM     23  C   UNL     1     111.474 125.602 136.420  0.00  0.00    +0.000 C 
BRANCH  23  24
ATOM     24  C   UNL     1     112.108 125.094 136.280  0.00  0.00    +0.000 C 
ATOM     25  C   UNL     1     112.216 124.428 136.756  0.00  0.00    +0.000 C 
ATOM     26  C   UNL     1     112.851 123.920 136.616  0.00  0.00    +0.000 C 
ATOM     27  C   UNL     1     111.690 124.271 137.370  0.00  0.00    +0.000 C 
ENDBRANCH  23  24
ENDBRANCH   5  23
TORSDOF 5
ENDMDL
MODEL 8
REMARK VINA RESULT:      -7.8     12.297     14.570
REMARK  Name = 131753027
REMARK  5 active torsions:
REMARK  status: ('A' for Active; 'I' for Inactive)
REMARK    1  A    between atoms: O_3  and  C_14
REMARK    2  A    between atoms: O_4  and  C_17
REMARK    3  A    between atoms: C_6  and  C_9
REMARK    4  A    between atoms: C_15  and  C_19
REMARK    5  A    between atoms: C_19  and  C_22
REMARK                            x       y       z     vdW  Elec       q    Type
REMARK                         _______ _______ _______ _____ _____    ______ ____
ROOT
ATOM      1  O   UNL     1     103.896 124.090 148.005  0.00  0.00    +0.000 OA
ATOM      2  C   UNL     1     104.151 125.268 148.772  0.00  0.00    +0.000 A 
ATOM      3  C   UNL     1     103.618 124.736 148.434  0.00  0.00    +0.000 A 
ATOM      4  C   UNL     1     103.872 125.915 149.202  0.00  0.00    +0.000 A 
ATOM      5  C   UNL     1     102.806 124.851 148.527  0.00  0.00    +0.000 A 
ATOM      6  C   UNL     1     102.528 125.498 148.957  0.00  0.00    +0.000 A 
ATOM      7  C   UNL     1     103.060 126.030 149.294  0.00  0.00    +0.000 A 
ENDROOT
BRANCH   2  10
ATOM      8  O   UNL     1     106.179 124.527 149.091  0.00  0.00    +0.000 OA
ATOM      9  O   UNL     1     108.672 125.088 147.693  0.00  0.00    +0.000 OA
ATOM     10  C   UNL     1     104.962 125.153 148.679  0.00  0.00    +0.000 C 
ATOM     11  C   UNL     1     105.369 125.550 148.080  0.00  0.00    +0.000 C 
ATOM     12  C   UNL     1     105.367 124.642 149.184  0.00  0.00    +0.000 C 
ATOM     13  C   UNL     1     106.181 125.434 147.988  0.00  0.00    +0.000 A 
ATOM     14  C   UNL     1     106.585 124.923 148.492  0.00  0.00    +0.000 A 
ATOM     15  C   UNL     1     106.593 125.854 147.360  0.00  0.00    +0.000 A 
ATOM     16  C   UNL     1     107.431 124.795 148.406  0.00  0.00    +0.000 A 
ATOM     17  C   UNL     1     107.438 125.738 147.258  0.00  0.00    +0.000 A 
ATOM     18  C   UNL     1     107.860 125.205 147.784  0.00  0.00    +0.000 A 
BRANCH  15  19
ATOM     19  O   UNL     1     106.180 126.363 146.859  0.00  0.00    +0.000 OA
ATOM     20  C   UNL     1     106.582 126.775 146.269  0.00  0.00    +0.000 C 
ENDBRANCH  15  19
ENDBRANCH   2  10
BRANCH   6  21
ATOM     21  O   UNL     1     101.715 125.613 149.049  0.00  0.00    +0.000 OA
ATOM     22  C   UNL     1     101.436 126.149 149.611  0.00  0.00    +0.000 C 
ENDBRANCH   6  21
BRANCH   5  23
ATOM     23  C   UNL     1     102.273 124.319 148.189  0.00  0.00    +0.000 C 
BRANCH  23  24
ATOM     24  C   UNL     1     102.067 124.391 147.394  0.00  0.00    +0.000 C 
ATOM     25  C   UNL     1     101.548 123.848 147.052  0.00  0.00    +0.000 C 
ATOM     26  C   UNL     1     101.342 123.921 146.256  0.00  0.00    +0.000 C 
ATOM     27  C   UNL     1     101.235 123.235 147.505  0.00  0.00    +0.000 C 
ENDBRANCH  23  24
ENDBRANCH   5  23
TORSDOF 5
ENDMDL
MODEL 9
REMARK VINA RESULT:      -7.8      2.815      3.668
REMARK  Name = 131753027
REMARK  5 active torsions:
REMARK  status: ('A' for Active; 'I' for Inactive)
REMARK    1  A    between atoms: O_3  and  C_14
REMARK    2  A    between atoms: O_4  and  C_17
REMARK    3  A    between atoms: C_6  and  C_9
REMARK    4  A    between atoms: C_15  and  C_19
REMARK    5  A    between atoms: C_19  and  C_22
REMARK                            x       y       z     vdW  Elec       q    Type
REMARK                         _______ _______ _______ _____ _____    ______ ____
ROOT
ATOM      1  O   UNL     1     111.955 127.516 135.368  0.00  0.00    +0.000 OA
ATOM      2  C   UNL     1     112.875 127.204 136.416  0.00  0.00    +0.000 A 
ATOM      3  C   UNL     1     112.226 126.998 135.950  0.00  0.00    +0.000 A 
ATOM      4  C   UNL     1     113.146 126.686 136.998  0.00  0.00    +0.000 A 
ATOM      5  C   UNL     1     111.848 126.274 136.066  0.00  0.00    +0.000 A 
ATOM      6  C   UNL     1     112.119 125.756 136.648  0.00  0.00    +0.000 A 
ATOM      7  C   UNL     1     112.768 125.962 137.114  0.00  0.00    +0.000 A 
ENDROOT
BRANCH   2  10
ATOM      8  O   UNL     1     114.229 128.721 135.620  0.00  0.00    +0.000 OA
ATOM      9  O   UNL     1     114.560 131.538 136.281  0.00  0.00    +0.000 OA
ATOM     10  C   UNL     1     113.253 127.928 136.299  0.00  0.00    +0.000 C 
ATOM     11  C   UNL     1     113.031 128.586 136.747  0.00  0.00    +0.000 C 
ATOM     12  C   UNL     1     113.851 127.996 135.736  0.00  0.00    +0.000 C 
ATOM     13  C   UNL     1     113.409 129.310 136.630  0.00  0.00    +0.000 A 
ATOM     14  C   UNL     1     114.007 129.377 136.067  0.00  0.00    +0.000 A 
ATOM     15  C   UNL     1     113.168 129.987 137.103  0.00  0.00    +0.000 A 
ATOM     16  C   UNL     1     114.408 130.127 135.936  0.00  0.00    +0.000 A 
ATOM     17  C   UNL     1     113.557 130.744 136.986  0.00  0.00    +0.000 A 
ATOM     18  C   UNL     1     114.181 130.814 136.399  0.00  0.00    +0.000 A 
BRANCH  15  19
ATOM     19  O   UNL     1     112.568 129.910 137.664  0.00  0.00    +0.000 OA
ATOM     20  C   UNL     1     112.309 130.572 138.083  0.00  0.00    +0.000 C 
ENDBRANCH  15  19
ENDBRANCH   2  10
BRANCH   6  21
ATOM     21  O   UNL     1     111.741 125.032 136.765  0.00  0.00    +0.000 OA
ATOM     22  C   UNL     1     112.094 124.453 137.236  0.00  0.00    +0.000 C 
ENDBRANCH   6  21
BRANCH   5  23
ATOM     23  C   UNL     1     111.199 126.068 135.600  0.00  0.00    +0.000 C 
BRANCH  23  24
ATOM     24  C   UNL     1     110.450 126.363 135.783  0.00  0.00    +0.000 C 
ATOM     25  C   UNL     1     109.810 126.198 135.289  0.00  0.00    +0.000 C 
ATOM     26  C   UNL     1     109.062 126.492 135.472  0.00  0.00    +0.000 C 
ATOM     27  C   UNL     1     109.919 125.739 134.613  0.00  0.00    +0.000 C 
ENDBRANCH  23  24
ENDBRANCH   5  23
TORSDOF 5
ENDMDL
MODEL 10
REMARK VINA RESULT:      -7.7     11.684     13.717
REMARK  Name = 131753027
REMARK  5 active torsions:
REMARK  status: ('A' for Active; 'I' for Inactive)
REMARK    1  A    between atoms: O_3  and  C_14
REMARK    2  A    between atoms: O_4  and  C_17
REMARK    3  A    between atoms: C_6  and  C_9
REMARK    4  A    between atoms: C_15  and  C_19
REMARK    5  A    between atoms: C_19  and  C_22
REMARK                            x       y       z     vdW  Elec       q    Type
REMARK                         _______ _______ _______ _____ _____    ______ ____
ROOT
ATOM      1  O   UNL     1     103.423 124.466 147.878  0.00  0.00    +0.000 OA
ATOM      2  C   UNL     1     103.895 124.020 146.605  0.00  0.00    +0.000 A 
ATOM      3  C   UNL     1     103.294 124.065 147.170  0.00  0.00    +0.000 A 
ATOM      4  C   UNL     1     103.765 123.619 145.896  0.00  0.00    +0.000 A 
ATOM      5  C   UNL     1     102.564 123.710 147.023  0.00  0.00    +0.000 A 
ATOM      6  C   UNL     1     102.434 123.309 146.314  0.00  0.00    +0.000 A 
ATOM      7  C   UNL     1     103.034 123.263 145.750  0.00  0.00    +0.000 A 
ENDROOT
BRANCH   2  10
ATOM      8  O   UNL     1     105.903 124.361 147.389  0.00  0.00    +0.000 OA
ATOM      9  O   UNL     1     107.772 126.559 146.993  0.00  0.00    +0.000 OA
ATOM     10  C   UNL     1     104.624 124.375 146.752  0.00  0.00    +0.000 C 
ATOM     11  C   UNL     1     104.805 125.103 146.406  0.00  0.00    +0.000 C 
ATOM     12  C   UNL     1     105.173 124.005 147.243  0.00  0.00    +0.000 C 
ATOM     13  C   UNL     1     105.535 125.458 146.552  0.00  0.00    +0.000 A 
ATOM     14  C   UNL     1     106.083 125.088 147.043  0.00  0.00    +0.000 A 
ATOM     15  C   UNL     1     105.711 126.216 146.185  0.00  0.00    +0.000 A 
ATOM     16  C   UNL     1     106.848 125.448 147.203  0.00  0.00    +0.000 A 
ATOM     17  C   UNL     1     106.470 126.591 146.333  0.00  0.00    +0.000 A 
ATOM     18  C   UNL     1     107.042 126.205 146.846  0.00  0.00    +0.000 A 
BRANCH  15  19
ATOM     19  O   UNL     1     105.156 126.579 145.695  0.00  0.00    +0.000 OA
ATOM     20  C   UNL     1     105.356 127.268 145.287  0.00  0.00    +0.000 C 
ENDBRANCH  15  19
ENDBRANCH   2  10
BRANCH   6  21
ATOM     21  O   UNL     1     101.703 122.954 146.168  0.00  0.00    +0.000 OA
ATOM     22  C   UNL     1     101.495 122.739 145.399  0.00  0.00    +0.000 C 
ENDBRANCH   6  21
BRANCH   5  23
ATOM     23  C   UNL     1     101.963 123.756 147.588  0.00  0.00    +0.000 C 
BRANCH  23  24
ATOM     24  C   UNL     1     101.943 123.217 148.212  0.00  0.00    +0.000 C 
ATOM     25  C   UNL     1     101.362 123.284 148.795  0.00  0.00    +0.000 C 
ATOM     26  C   UNL     1     101.342 122.745 149.420  0.00  0.00    +0.000 C 
ATOM     27  C   UNL     1     100.803 123.888 148.753  0.00  0.00    +0.000 C 
ENDBRANCH  23  24
ENDBRANCH   5  23
TORSDOF 5
ENDMDL
