MODEL 1
REMARK VINA RESULT:     -11.8      0.000      0.000
REMARK  Name = 131752280
REMARK  10 active torsions:
REMARK  status: ('A' for Active; 'I' for Inactive)
REMARK    1  A    between atoms: O_1  and  C_18
REMARK    2  A    between atoms: O_1  and  C_23
REMARK    3  A    between atoms: O_10  and  C_30
REMARK    4  A    between atoms: O_10  and  C_39
REMARK    5  A    between atoms: C_20  and  C_28
REMARK    6  A    between atoms: C_22  and  C_29
REMARK    7  A    between atoms: C_27  and  C_30
REMARK    8  A    between atoms: C_38  and  C_40
REMARK    9  A    between atoms: C_39  and  C_41
REMARK   10  A    between atoms: C_44  and  C_48
REMARK                            x       y       z     vdW  Elec       q    Type
REMARK                         _______ _______ _______ _____ _____    ______ ____
ROOT
ATOM      1  O   UNL     1     105.194 128.025 143.268  0.00  0.00    +0.000 OA
ATOM      2  O   UNL     1     106.768 128.027 141.359  0.00  0.00    +0.000 OA
ATOM      3  O   UNL     1     105.253 128.655 141.180  0.00  0.00    +0.000 OA
ATOM      4  C   UNL     1     106.477 127.712 142.722  0.00  0.00    +0.000 C 
ATOM      5  C   UNL     1     106.243 128.027 141.995  0.00  0.00    +0.000 C 
ATOM      6  C   UNL     1     105.952 127.711 143.358  0.00  0.00    +0.000 C 
ATOM      7  C   UNL     1     105.486 128.340 141.906  0.00  0.00    +0.000 C 
ATOM      8  C   UNL     1     104.961 128.339 142.543  0.00  0.00    +0.000 C 
ENDROOT
BRANCH   6  13
ATOM      9  O   UNL     1     105.427 126.215 143.815  0.00  0.00    +0.000 OA
ATOM     10  O   UNL     1     106.943 128.577 144.353  0.00  0.00    +0.000 OA
ATOM     11  O   UNL     1     106.901 126.449 146.295  0.00  0.00    +0.000 OA
ATOM     12  O   UNL     1     105.381 125.127 144.762  0.00  0.00    +0.000 OA
ATOM     13  C   UNL     1     106.185 127.396 144.084  0.00  0.00    +0.000 A 
ATOM     14  C   UNL     1     105.923 126.648 144.312  0.00  0.00    +0.000 A 
ATOM     15  C   UNL     1     106.681 127.829 144.582  0.00  0.00    +0.000 A 
ATOM     16  C   UNL     1     106.156 126.333 145.039  0.00  0.00    +0.000 A 
ATOM     17  C   UNL     1     106.914 127.514 145.307  0.00  0.00    +0.000 A 
ATOM     18  C   UNL     1     106.652 126.766 145.536  0.00  0.00    +0.000 A 
ATOM     19  C   UNL     1     105.876 125.553 145.265  0.00  0.00    +0.000 A 
ATOM     20  C   UNL     1     106.115 125.219 146.020  0.00  0.00    +0.000 A 
ATOM     21  C   UNL     1     106.631 125.670 146.539  0.00  0.00    +0.000 A 
BRANCH  21  23
ATOM     22  O   UNL     1     107.571 124.420 149.444  0.00  0.00    +0.000 OA
ATOM     23  C   UNL     1     106.866 125.357 147.265  0.00  0.00    +0.000 A 
ATOM     24  C   UNL     1     107.666 125.230 147.420  0.00  0.00    +0.000 A 
ATOM     25  C   UNL     1     106.301 125.172 147.837  0.00  0.00    +0.000 A 
ATOM     26  C   UNL     1     107.901 124.918 148.146  0.00  0.00    +0.000 A 
ATOM     27  C   UNL     1     106.536 124.859 148.563  0.00  0.00    +0.000 A 
ATOM     28  C   UNL     1     107.337 124.733 148.717  0.00  0.00    +0.000 A 
ENDBRANCH  21  23
ENDBRANCH   6  13
BRANCH   8  30
ATOM     29  O   UNL     1     103.928 129.224 142.982  0.00  0.00    +0.000 OA
ATOM     30  C   UNL     1     104.204 128.653 142.453  0.00  0.00    +0.000 C 
ENDBRANCH   8  30
BRANCH   4  31
ATOM     31  O   UNL     1     107.235 127.398 142.811  0.00  0.00    +0.000 OA
BRANCH  31  36
ATOM     32  O   UNL     1     107.065 126.225 142.012  0.00  0.00    +0.000 OA
ATOM     33  O   UNL     1     108.747 127.605 142.185  0.00  0.00    +0.000 OA
ATOM     34  O   UNL     1     109.334 126.536 141.074  0.00  0.00    +0.000 OA
ATOM     35  O   UNL     1     108.407 125.260 140.587  0.00  0.00    +0.000 OA
ATOM     36  C   UNL     1     107.527 126.863 142.255  0.00  0.00    +0.000 C 
ATOM     37  C   UNL     1     108.284 126.966 141.942  0.00  0.00    +0.000 C 
ATOM     38  C   UNL     1     108.577 126.432 141.386  0.00  0.00    +0.000 C 
ATOM     39  C   UNL     1     108.114 125.794 141.143  0.00  0.00    +0.000 C 
ATOM     40  C   UNL     1     107.357 125.690 141.456  0.00  0.00    +0.000 C 
BRANCH  40  41
ATOM     41  C   UNL     1     106.895 125.053 141.213  0.00  0.00    +0.000 C 
BRANCH  41  42
ATOM     42  O   UNL     1     106.115 125.176 140.974  0.00  0.00    +0.000 OA
BRANCH  42  44
ATOM     43  O   UNL     1     105.553 123.956 141.461  0.00  0.00    +0.000 OA
ATOM     44  C   UNL     1     105.607 124.534 140.874  0.00  0.00    +0.000 C 
BRANCH  44  45
ATOM     45  C   UNL     1     105.153 124.468 140.189  0.00  0.00    +0.000 C 
ATOM     46  C   UNL     1     104.716 123.783 140.047  0.00  0.00    +0.000 C 
BRANCH  46  48
ATOM     47  O   UNL     1     102.897 123.521 137.306  0.00  0.00    +0.000 OA
ATOM     48  C   UNL     1     104.262 123.718 139.361  0.00  0.00    +0.000 A 
ATOM     49  C   UNL     1     104.628 123.591 138.633  0.00  0.00    +0.000 A 
ATOM     50  C   UNL     1     103.440 123.779 139.404  0.00  0.00    +0.000 A 
ATOM     51  C   UNL     1     104.174 123.526 137.949  0.00  0.00    +0.000 A 
ATOM     52  C   UNL     1     102.985 123.713 138.719  0.00  0.00    +0.000 A 
ATOM     53  C   UNL     1     103.352 123.587 137.991  0.00  0.00    +0.000 A 
ENDBRANCH  46  48
ENDBRANCH  44  45
ENDBRANCH  42  44
ENDBRANCH  41  42
ENDBRANCH  40  41
ENDBRANCH  31  36
ENDBRANCH   4  31
TORSDOF 10
ENDMDL
MODEL 2
REMARK VINA RESULT:     -11.5      5.950      8.778
REMARK  Name = 131752280
REMARK  10 active torsions:
REMARK  status: ('A' for Active; 'I' for Inactive)
REMARK    1  A    between atoms: O_1  and  C_18
REMARK    2  A    between atoms: O_1  and  C_23
REMARK    3  A    between atoms: O_10  and  C_30
REMARK    4  A    between atoms: O_10  and  C_39
REMARK    5  A    between atoms: C_20  and  C_28
REMARK    6  A    between atoms: C_22  and  C_29
REMARK    7  A    between atoms: C_27  and  C_30
REMARK    8  A    between atoms: C_38  and  C_40
REMARK    9  A    between atoms: C_39  and  C_41
REMARK   10  A    between atoms: C_44  and  C_48
REMARK                            x       y       z     vdW  Elec       q    Type
REMARK                         _______ _______ _______ _____ _____    ______ ____
ROOT
ATOM      1  O   UNL     1     114.076 129.546 140.314  0.00  0.00    +0.000 OA
ATOM      2  O   UNL     1     112.676 130.090 142.282  0.00  0.00    +0.000 OA
ATOM      3  O   UNL     1     113.857 131.135 141.794  0.00  0.00    +0.000 OA
ATOM      4  C   UNL     1     113.019 129.204 141.214  0.00  0.00    +0.000 C 
ATOM      5  C   UNL     1     113.143 129.909 141.626  0.00  0.00    +0.000 C 
ATOM      6  C   UNL     1     113.485 129.024 140.558  0.00  0.00    +0.000 C 
ATOM      7  C   UNL     1     113.733 130.431 141.382  0.00  0.00    +0.000 C 
ATOM      8  C   UNL     1     114.199 130.249 140.726  0.00  0.00    +0.000 C 
ENDROOT
BRANCH   6  13
ATOM      9  O   UNL     1     112.680 129.042 139.118  0.00  0.00    +0.000 OA
ATOM     10  O   UNL     1     114.042 127.598 141.174  0.00  0.00    +0.000 OA
ATOM     11  O   UNL     1     112.990 126.172 138.902  0.00  0.00    +0.000 OA
ATOM     12  O   UNL     1     112.138 128.365 137.964  0.00  0.00    +0.000 OA
ATOM     13  C   UNL     1     113.361 128.319 140.146  0.00  0.00    +0.000 A 
ATOM     14  C   UNL     1     112.958 128.329 139.426  0.00  0.00    +0.000 A 
ATOM     15  C   UNL     1     113.640 127.606 140.453  0.00  0.00    +0.000 A 
ATOM     16  C   UNL     1     112.834 127.624 139.013  0.00  0.00    +0.000 A 
ATOM     17  C   UNL     1     113.516 126.903 140.041  0.00  0.00    +0.000 A 
ATOM     18  C   UNL     1     113.113 126.911 139.321  0.00  0.00    +0.000 A 
ATOM     19  C   UNL     1     112.414 127.647 138.265  0.00  0.00    +0.000 A 
ATOM     20  C   UNL     1     112.281 126.918 137.830  0.00  0.00    +0.000 A 
ATOM     21  C   UNL     1     112.571 126.175 138.151  0.00  0.00    +0.000 A 
BRANCH  21  23
ATOM     22  O   UNL     1     112.081 123.354 136.510  0.00  0.00    +0.000 OA
ATOM     23  C   UNL     1     112.448 125.470 137.741  0.00  0.00    +0.000 A 
ATOM     24  C   UNL     1     113.053 125.151 137.279  0.00  0.00    +0.000 A 
ATOM     25  C   UNL     1     111.721 125.083 137.793  0.00  0.00    +0.000 A 
ATOM     26  C   UNL     1     112.931 124.446 136.869  0.00  0.00    +0.000 A 
ATOM     27  C   UNL     1     111.599 124.378 137.383  0.00  0.00    +0.000 A 
ATOM     28  C   UNL     1     112.204 124.060 136.921  0.00  0.00    +0.000 A 
ENDBRANCH  21  23
ENDBRANCH   6  13
BRANCH   8  30
ATOM     29  O   UNL     1     115.569 130.508 140.408  0.00  0.00    +0.000 OA
ATOM     30  C   UNL     1     114.790 130.771 140.483  0.00  0.00    +0.000 C 
ENDBRANCH   8  30
BRANCH   4  31
ATOM     31  O   UNL     1     112.428 128.682 141.458  0.00  0.00    +0.000 OA
BRANCH  31  36
ATOM     32  O   UNL     1     111.344 129.560 141.150  0.00  0.00    +0.000 OA
ATOM     33  O   UNL     1     111.562 128.050 142.711  0.00  0.00    +0.000 OA
ATOM     34  O   UNL     1     110.044 128.612 143.031  0.00  0.00    +0.000 OA
ATOM     35  O   UNL     1     109.392 129.806 142.096  0.00  0.00    +0.000 OA
ATOM     36  C   UNL     1     111.669 128.964 141.617  0.00  0.00    +0.000 C 
ATOM     37  C   UNL     1     111.236 128.648 142.244  0.00  0.00    +0.000 C 
ATOM     38  C   UNL     1     110.477 128.928 142.404  0.00  0.00    +0.000 C 
ATOM     39  C   UNL     1     110.151 129.526 141.936  0.00  0.00    +0.000 C 
ATOM     40  C   UNL     1     110.584 129.842 141.309  0.00  0.00    +0.000 C 
BRANCH  40  41
ATOM     41  C   UNL     1     110.259 130.438 140.843  0.00  0.00    +0.000 C 
BRANCH  41  42
ATOM     42  O   UNL     1     110.246 130.360 140.021  0.00  0.00    +0.000 OA
BRANCH  42  44
ATOM     43  O   UNL     1     110.396 131.747 139.715  0.00  0.00    +0.000 OA
ATOM     44  C   UNL     1     110.066 131.010 139.547  0.00  0.00    +0.000 C 
BRANCH  44  45
ATOM     45  C   UNL     1     109.556 130.924 138.904  0.00  0.00    +0.000 C 
ATOM     46  C   UNL     1     109.800 131.148 138.150  0.00  0.00    +0.000 C 
BRANCH  46  48
ATOM     47  O   UNL     1     107.759 130.807 135.580  0.00  0.00    +0.000 OA
ATOM     48  C   UNL     1     109.290 131.062 137.507  0.00  0.00    +0.000 A 
ATOM     49  C   UNL     1     109.280 130.358 137.079  0.00  0.00    +0.000 A 
ATOM     50  C   UNL     1     108.790 131.682 137.293  0.00  0.00    +0.000 A 
ATOM     51  C   UNL     1     108.770 130.273 136.437  0.00  0.00    +0.000 A 
ATOM     52  C   UNL     1     108.279 131.598 136.651  0.00  0.00    +0.000 A 
ATOM     53  C   UNL     1     108.270 130.892 136.223  0.00  0.00    +0.000 A 
ENDBRANCH  46  48
ENDBRANCH  44  45
ENDBRANCH  42  44
ENDBRANCH  41  42
ENDBRANCH  40  41
ENDBRANCH  31  36
ENDBRANCH   4  31
TORSDOF 10
ENDMDL
MODEL 3
REMARK VINA RESULT:     -11.3      5.981      8.348
REMARK  Name = 131752280
REMARK  10 active torsions:
REMARK  status: ('A' for Active; 'I' for Inactive)
REMARK    1  A    between atoms: O_1  and  C_18
REMARK    2  A    between atoms: O_1  and  C_23
REMARK    3  A    between atoms: O_10  and  C_30
REMARK    4  A    between atoms: O_10  and  C_39
REMARK    5  A    between atoms: C_20  and  C_28
REMARK    6  A    between atoms: C_22  and  C_29
REMARK    7  A    between atoms: C_27  and  C_30
REMARK    8  A    between atoms: C_38  and  C_40
REMARK    9  A    between atoms: C_39  and  C_41
REMARK   10  A    between atoms: C_44  and  C_48
REMARK                            x       y       z     vdW  Elec       q    Type
REMARK                         _______ _______ _______ _____ _____    ______ ____
ROOT
ATOM      1  O   UNL     1     112.913 129.087 136.762  0.00  0.00    +0.000 OA
ATOM      2  O   UNL     1     111.096 129.700 135.198  0.00  0.00    +0.000 OA
ATOM      3  O   UNL     1     112.561 129.216 134.613  0.00  0.00    +0.000 OA
ATOM      4  C   UNL     1     111.575 129.533 136.534  0.00  0.00    +0.000 C 
ATOM      5  C   UNL     1     111.702 129.495 135.719  0.00  0.00    +0.000 C 
ATOM      6  C   UNL     1     112.181 129.329 137.055  0.00  0.00    +0.000 C 
ATOM      7  C   UNL     1     112.435 129.254 135.426  0.00  0.00    +0.000 C 
ATOM      8  C   UNL     1     113.040 129.049 135.949  0.00  0.00    +0.000 C 
ENDROOT
BRANCH   6  13
ATOM      9  O   UNL     1     111.947 127.942 137.918  0.00  0.00    +0.000 OA
ATOM     10  O   UNL     1     112.161 130.791 137.820  0.00  0.00    +0.000 OA
ATOM     11  O   UNL     1     111.669 129.494 140.346  0.00  0.00    +0.000 OA
ATOM     12  O   UNL     1     111.701 127.255 139.164  0.00  0.00    +0.000 OA
ATOM     13  C   UNL     1     112.054 129.367 137.870  0.00  0.00    +0.000 A 
ATOM     14  C   UNL     1     111.937 128.673 138.301  0.00  0.00    +0.000 A 
ATOM     15  C   UNL     1     112.044 130.098 138.253  0.00  0.00    +0.000 A 
ATOM     16  C   UNL     1     111.810 128.711 139.116  0.00  0.00    +0.000 A 
ATOM     17  C   UNL     1     111.917 130.135 139.066  0.00  0.00    +0.000 A 
ATOM     18  C   UNL     1     111.800 129.442 139.499  0.00  0.00    +0.000 A 
ATOM     19  C   UNL     1     111.689 127.982 139.554  0.00  0.00    +0.000 A 
ATOM     20  C   UNL     1     111.556 128.014 140.402  0.00  0.00    +0.000 A 
ATOM     21  C   UNL     1     111.546 128.775 140.801  0.00  0.00    +0.000 A 
BRANCH  21  23
ATOM     22  O   UNL     1     111.038 128.937 144.058  0.00  0.00    +0.000 OA
ATOM     23  C   UNL     1     111.420 128.816 141.616  0.00  0.00    +0.000 A 
ATOM     24  C   UNL     1     110.654 128.909 141.910  0.00  0.00    +0.000 A 
ATOM     25  C   UNL     1     112.058 128.763 142.136  0.00  0.00    +0.000 A 
ATOM     26  C   UNL     1     110.527 128.950 142.723  0.00  0.00    +0.000 A 
ATOM     27  C   UNL     1     111.930 128.804 142.950  0.00  0.00    +0.000 A 
ATOM     28  C   UNL     1     111.165 128.897 143.243  0.00  0.00    +0.000 A 
ENDBRANCH  21  23
ENDBRANCH   6  13
BRANCH   8  30
ATOM     29  O   UNL     1     114.450 129.249 135.823  0.00  0.00    +0.000 OA
ATOM     30  C   UNL     1     113.772 128.808 135.656  0.00  0.00    +0.000 C 
ENDBRANCH   8  30
BRANCH   4  31
ATOM     31  O   UNL     1     110.843 129.775 136.827  0.00  0.00    +0.000 OA
BRANCH  31  36
ATOM     32  O   UNL     1     110.112 128.612 136.432  0.00  0.00    +0.000 OA
ATOM     33  O   UNL     1     109.534 130.716 136.475  0.00  0.00    +0.000 OA
ATOM     34  O   UNL     1     108.149 130.024 135.905  0.00  0.00    +0.000 OA
ATOM     35  O   UNL     1     108.072 128.391 135.687  0.00  0.00    +0.000 OA
ATOM     36  C   UNL     1     110.150 129.428 136.542  0.00  0.00    +0.000 C 
ATOM     37  C   UNL     1     109.496 129.899 136.366  0.00  0.00    +0.000 C 
ATOM     38  C   UNL     1     108.803 129.553 136.081  0.00  0.00    +0.000 C 
ATOM     39  C   UNL     1     108.765 128.736 135.972  0.00  0.00    +0.000 C 
ATOM     40  C   UNL     1     109.419 128.265 136.147  0.00  0.00    +0.000 C 
BRANCH  40  41
ATOM     41  C   UNL     1     109.381 127.449 136.038  0.00  0.00    +0.000 C 
BRANCH  41  42
ATOM     42  O   UNL     1     110.008 127.050 135.679  0.00  0.00    +0.000 OA
BRANCH  42  44
ATOM     43  O   UNL     1     109.450 125.798 135.278  0.00  0.00    +0.000 OA
ATOM     44  C   UNL     1     110.028 126.226 135.681  0.00  0.00    +0.000 C 
BRANCH  44  45
ATOM     45  C   UNL     1     110.627 125.829 136.087  0.00  0.00    +0.000 C 
ATOM     46  C   UNL     1     111.174 125.372 135.672  0.00  0.00    +0.000 C 
BRANCH  46  48
ATOM     47  O   UNL     1     113.568 123.782 137.295  0.00  0.00    +0.000 OA
ATOM     48  C   UNL     1     111.773 124.975 136.078  0.00  0.00    +0.000 A 
ATOM     49  C   UNL     1     112.525 125.307 136.132  0.00  0.00    +0.000 A 
ATOM     50  C   UNL     1     111.618 124.245 136.430  0.00  0.00    +0.000 A 
ATOM     51  C   UNL     1     113.123 124.909 136.537  0.00  0.00    +0.000 A 
ATOM     52  C   UNL     1     112.216 123.847 136.836  0.00  0.00    +0.000 A 
ATOM     53  C   UNL     1     112.969 124.180 136.889  0.00  0.00    +0.000 A 
ENDBRANCH  46  48
ENDBRANCH  44  45
ENDBRANCH  42  44
ENDBRANCH  41  42
ENDBRANCH  40  41
ENDBRANCH  31  36
ENDBRANCH   4  31
TORSDOF 10
ENDMDL
MODEL 4
REMARK VINA RESULT:     -11.2      5.411      7.303
REMARK  Name = 131752280
REMARK  10 active torsions:
REMARK  status: ('A' for Active; 'I' for Inactive)
REMARK    1  A    between atoms: O_1  and  C_18
REMARK    2  A    between atoms: O_1  and  C_23
REMARK    3  A    between atoms: O_10  and  C_30
REMARK    4  A    between atoms: O_10  and  C_39
REMARK    5  A    between atoms: C_20  and  C_28
REMARK    6  A    between atoms: C_22  and  C_29
REMARK    7  A    between atoms: C_27  and  C_30
REMARK    8  A    between atoms: C_38  and  C_40
REMARK    9  A    between atoms: C_39  and  C_41
REMARK   10  A    between atoms: C_44  and  C_48
REMARK                            x       y       z     vdW  Elec       q    Type
REMARK                         _______ _______ _______ _____ _____    ______ ____
ROOT
ATOM      1  O   UNL     1     110.312 130.927 141.835  0.00  0.00    +0.000 OA
ATOM      2  O   UNL     1     112.078 130.662 140.122  0.00  0.00    +0.000 OA
ATOM      3  O   UNL     1     110.489 130.603 139.684  0.00  0.00    +0.000 OA
ATOM      4  C   UNL     1     111.696 130.869 141.483  0.00  0.00    +0.000 C 
ATOM      5  C   UNL     1     111.489 130.750 140.692  0.00  0.00    +0.000 C 
ATOM      6  C   UNL     1     111.107 130.957 142.054  0.00  0.00    +0.000 C 
ATOM      7  C   UNL     1     110.695 130.721 140.474  0.00  0.00    +0.000 C 
ATOM      8  C   UNL     1     110.106 130.809 141.045  0.00  0.00    +0.000 C 
ENDROOT
BRANCH   6  13
ATOM      9  O   UNL     1     111.543 132.460 142.576  0.00  0.00    +0.000 OA
ATOM     10  O   UNL     1     111.084 129.690 143.111  0.00  0.00    +0.000 OA
ATOM     11  O   UNL     1     111.939 131.422 145.249  0.00  0.00    +0.000 OA
ATOM     12  O   UNL     1     111.972 133.360 143.620  0.00  0.00    +0.000 OA
ATOM     13  C   UNL     1     111.314 131.075 142.844  0.00  0.00    +0.000 A 
ATOM     14  C   UNL     1     111.531 131.827 143.105  0.00  0.00    +0.000 A 
ATOM     15  C   UNL     1     111.302 130.442 143.373  0.00  0.00    +0.000 A 
ATOM     16  C   UNL     1     111.738 131.945 143.896  0.00  0.00    +0.000 A 
ATOM     17  C   UNL     1     111.508 130.560 144.162  0.00  0.00    +0.000 A 
ATOM     18  C   UNL     1     111.726 131.312 144.424  0.00  0.00    +0.000 A 
ATOM     19  C   UNL     1     111.963 132.732 144.155  0.00  0.00    +0.000 A 
ATOM     20  C   UNL     1     112.179 132.863 144.977  0.00  0.00    +0.000 A 
ATOM     21  C   UNL     1     112.167 132.203 145.528  0.00  0.00    +0.000 A 
BRANCH  21  23
ATOM     22  O   UNL     1     112.990 132.665 148.689  0.00  0.00    +0.000 OA
ATOM     23  C   UNL     1     112.373 132.318 146.318  0.00  0.00    +0.000 A 
ATOM     24  C   UNL     1     111.858 132.718 146.824  0.00  0.00    +0.000 A 
ATOM     25  C   UNL     1     113.094 132.035 146.602  0.00  0.00    +0.000 A 
ATOM     26  C   UNL     1     112.064 132.833 147.614  0.00  0.00    +0.000 A 
ATOM     27  C   UNL     1     113.299 132.151 147.393  0.00  0.00    +0.000 A 
ATOM     28  C   UNL     1     112.784 132.550 147.899  0.00  0.00    +0.000 A 
ENDBRANCH  21  23
ENDBRANCH   6  13
BRANCH   8  30
ATOM     29  O   UNL     1     108.755 131.238 141.229  0.00  0.00    +0.000 OA
ATOM     30  C   UNL     1     109.311 130.780 140.827  0.00  0.00    +0.000 C 
ENDBRANCH   8  30
BRANCH   4  31
ATOM     31  O   UNL     1     112.491 130.898 141.702  0.00  0.00    +0.000 OA
BRANCH  31  36
ATOM     32  O   UNL     1     112.784 129.559 141.300  0.00  0.00    +0.000 OA
ATOM     33  O   UNL     1     114.029 131.352 141.312  0.00  0.00    +0.000 OA
ATOM     34  O   UNL     1     115.091 130.239 140.714  0.00  0.00    +0.000 OA
ATOM     35  O   UNL     1     114.615 128.673 140.507  0.00  0.00    +0.000 OA
ATOM     36  C   UNL     1     113.022 130.341 141.403  0.00  0.00    +0.000 C 
ATOM     37  C   UNL     1     113.790 130.568 141.208  0.00  0.00    +0.000 C 
ATOM     38  C   UNL     1     114.322 130.012 140.909  0.00  0.00    +0.000 C 
ATOM     39  C   UNL     1     114.083 129.229 140.806  0.00  0.00    +0.000 C 
ATOM     40  C   UNL     1     113.315 129.002 141.001  0.00  0.00    +0.000 C 
BRANCH  40  41
ATOM     41  C   UNL     1     113.077 128.219 140.897  0.00  0.00    +0.000 C 
BRANCH  41  42
ATOM     42  O   UNL     1     112.491 127.898 141.381  0.00  0.00    +0.000 OA
BRANCH  42  44
ATOM     43  O   UNL     1     112.613 126.488 141.183  0.00  0.00    +0.000 OA
ATOM     44  C   UNL     1     112.150 127.172 141.190  0.00  0.00    +0.000 C 
BRANCH  44  45
ATOM     45  C   UNL     1     111.347 127.127 141.005  0.00  0.00    +0.000 C 
ATOM     46  C   UNL     1     110.844 126.659 141.460  0.00  0.00    +0.000 C 
BRANCH  46  48
ATOM     47  O   UNL     1     107.632 126.484 140.724  0.00  0.00    +0.000 OA
ATOM     48  C   UNL     1     110.041 126.615 141.276  0.00  0.00    +0.000 A 
ATOM     49  C   UNL     1     109.756 125.991 140.818  0.00  0.00    +0.000 A 
ATOM     50  C   UNL     1     109.523 127.195 141.550  0.00  0.00    +0.000 A 
ATOM     51  C   UNL     1     108.954 125.948 140.634  0.00  0.00    +0.000 A 
ATOM     52  C   UNL     1     108.720 127.152 141.367  0.00  0.00    +0.000 A 
ATOM     53  C   UNL     1     108.436 126.528 140.908  0.00  0.00    +0.000 A 
ENDBRANCH  46  48
ENDBRANCH  44  45
ENDBRANCH  42  44
ENDBRANCH  41  42
ENDBRANCH  40  41
ENDBRANCH  31  36
ENDBRANCH   4  31
TORSDOF 10
ENDMDL
MODEL 5
REMARK VINA RESULT:     -11.1      5.420      9.801
REMARK  Name = 131752280
REMARK  10 active torsions:
REMARK  status: ('A' for Active; 'I' for Inactive)
REMARK    1  A    between atoms: O_1  and  C_18
REMARK    2  A    between atoms: O_1  and  C_23
REMARK    3  A    between atoms: O_10  and  C_30
REMARK    4  A    between atoms: O_10  and  C_39
REMARK    5  A    between atoms: C_20  and  C_28
REMARK    6  A    between atoms: C_22  and  C_29
REMARK    7  A    between atoms: C_27  and  C_30
REMARK    8  A    between atoms: C_38  and  C_40
REMARK    9  A    between atoms: C_39  and  C_41
REMARK   10  A    between atoms: C_44  and  C_48
REMARK                            x       y       z     vdW  Elec       q    Type
REMARK                         _______ _______ _______ _____ _____    ______ ____
ROOT
ATOM      1  O   UNL     1     111.428 125.867 136.850  0.00  0.00    +0.000 OA
ATOM      2  O   UNL     1     110.616 124.954 139.003  0.00  0.00    +0.000 OA
ATOM      3  O   UNL     1     111.641 124.066 138.064  0.00  0.00    +0.000 OA
ATOM      4  C   UNL     1     110.645 126.007 138.037  0.00  0.00    +0.000 C 
ATOM      5  C   UNL     1     110.887 125.258 138.285  0.00  0.00    +0.000 C 
ATOM      6  C   UNL     1     110.916 126.311 137.320  0.00  0.00    +0.000 C 
ATOM      7  C   UNL     1     111.400 124.814 137.816  0.00  0.00    +0.000 C 
ATOM      8  C   UNL     1     111.670 125.119 137.098  0.00  0.00    +0.000 C 
ENDROOT
BRANCH   6  13
ATOM      9  O   UNL     1     109.439 126.508 136.611  0.00  0.00    +0.000 OA
ATOM     10  O   UNL     1     111.908 127.612 137.533  0.00  0.00    +0.000 OA
ATOM     11  O   UNL     1     109.948 129.342 136.322  0.00  0.00    +0.000 OA
ATOM     12  O   UNL     1     108.432 127.341 135.999  0.00  0.00    +0.000 OA
ATOM     13  C   UNL     1     110.673 127.060 137.072  0.00  0.00    +0.000 A 
ATOM     14  C   UNL     1     109.935 127.158 136.717  0.00  0.00    +0.000 A 
ATOM     15  C   UNL     1     111.170 127.711 137.178  0.00  0.00    +0.000 A 
ATOM     16  C   UNL     1     109.693 127.907 136.469  0.00  0.00    +0.000 A 
ATOM     17  C   UNL     1     110.927 128.459 136.930  0.00  0.00    +0.000 A 
ATOM     18  C   UNL     1     110.189 128.558 136.576  0.00  0.00    +0.000 A 
ATOM     19  C   UNL     1     108.922 127.996 136.101  0.00  0.00    +0.000 A 
ATOM     20  C   UNL     1     108.663 128.773 135.841  0.00  0.00    +0.000 A 
ATOM     21  C   UNL     1     109.180 129.451 135.952  0.00  0.00    +0.000 A 
BRANCH  21  23
ATOM     22  O   UNL     1     108.221 132.450 134.965  0.00  0.00    +0.000 OA
ATOM     23  C   UNL     1     108.940 130.201 135.705  0.00  0.00    +0.000 A 
ATOM     24  C   UNL     1     108.436 130.650 136.179  0.00  0.00    +0.000 A 
ATOM     25  C   UNL     1     109.205 130.502 134.983  0.00  0.00    +0.000 A 
ATOM     26  C   UNL     1     108.197 131.399 135.933  0.00  0.00    +0.000 A 
ATOM     27  C   UNL     1     108.964 131.252 134.737  0.00  0.00    +0.000 A 
ATOM     28  C   UNL     1     108.460 131.700 135.212  0.00  0.00    +0.000 A 
ENDBRANCH  21  23
ENDBRANCH   6  13
BRANCH   8  30
ATOM     29  O   UNL     1     112.039 124.596 135.820  0.00  0.00    +0.000 OA
ATOM     30  C   UNL     1     112.183 124.674 136.629  0.00  0.00    +0.000 C 
ENDBRANCH   8  30
BRANCH   4  31
ATOM     31  O   UNL     1     110.132 126.452 138.507  0.00  0.00    +0.000 OA
BRANCH  31  36
ATOM     32  O   UNL     1     111.020 126.612 139.614  0.00  0.00    +0.000 OA
ATOM     33  O   UNL     1     108.857 126.334 139.547  0.00  0.00    +0.000 OA
ATOM     34  O   UNL     1     109.107 126.435 141.174  0.00  0.00    +0.000 OA
ATOM     35  O   UNL     1     110.634 126.654 141.762  0.00  0.00    +0.000 OA
ATOM     36  C   UNL     1     110.258 126.502 139.320  0.00  0.00    +0.000 C 
ATOM     37  C   UNL     1     109.620 126.443 139.841  0.00  0.00    +0.000 C 
ATOM     38  C   UNL     1     109.745 126.494 140.654  0.00  0.00    +0.000 C 
ATOM     39  C   UNL     1     110.509 126.604 140.948  0.00  0.00    +0.000 C 
ATOM     40  C   UNL     1     111.147 126.663 140.428  0.00  0.00    +0.000 C 
BRANCH  40  41
ATOM     41  C   UNL     1     111.909 126.772 140.722  0.00  0.00    +0.000 C 
BRANCH  41  42
ATOM     42  O   UNL     1     112.363 127.412 140.465  0.00  0.00    +0.000 OA
BRANCH  42  44
ATOM     43  O   UNL     1     113.635 126.805 140.696  0.00  0.00    +0.000 OA
ATOM     44  C   UNL     1     113.153 127.474 140.692  0.00  0.00    +0.000 C 
BRANCH  44  45
ATOM     45  C   UNL     1     113.463 128.206 140.914  0.00  0.00    +0.000 C 
ATOM     46  C   UNL     1     113.789 128.707 140.345  0.00  0.00    +0.000 C 
BRANCH  46  48
ATOM     47  O   UNL     1     115.025 131.634 141.235  0.00  0.00    +0.000 OA
ATOM     48  C   UNL     1     114.099 129.438 140.568  0.00  0.00    +0.000 A 
ATOM     49  C   UNL     1     114.860 129.652 140.335  0.00  0.00    +0.000 A 
ATOM     50  C   UNL     1     113.645 129.956 141.022  0.00  0.00    +0.000 A 
ATOM     51  C   UNL     1     115.169 130.384 140.558  0.00  0.00    +0.000 A 
ATOM     52  C   UNL     1     113.954 130.688 141.245  0.00  0.00    +0.000 A 
ATOM     53  C   UNL     1     114.716 130.902 141.012  0.00  0.00    +0.000 A 
ENDBRANCH  46  48
ENDBRANCH  44  45
ENDBRANCH  42  44
ENDBRANCH  41  42
ENDBRANCH  40  41
ENDBRANCH  31  36
ENDBRANCH   4  31
TORSDOF 10
ENDMDL
MODEL 6
REMARK VINA RESULT:     -11.0      1.737      4.889
REMARK  Name = 131752280
REMARK  10 active torsions:
REMARK  status: ('A' for Active; 'I' for Inactive)
REMARK    1  A    between atoms: O_1  and  C_18
REMARK    2  A    between atoms: O_1  and  C_23
REMARK    3  A    between atoms: O_10  and  C_30
REMARK    4  A    between atoms: O_10  and  C_39
REMARK    5  A    between atoms: C_20  and  C_28
REMARK    6  A    between atoms: C_22  and  C_29
REMARK    7  A    between atoms: C_27  and  C_30
REMARK    8  A    between atoms: C_38  and  C_40
REMARK    9  A    between atoms: C_39  and  C_41
REMARK   10  A    between atoms: C_44  and  C_48
REMARK                            x       y       z     vdW  Elec       q    Type
REMARK                         _______ _______ _______ _____ _____    ______ ____
ROOT
ATOM      1  O   UNL     1     107.521 128.626 141.452  0.00  0.00    +0.000 OA
ATOM      2  O   UNL     1     108.083 126.990 143.221  0.00  0.00    +0.000 OA
ATOM      3  O   UNL     1     109.085 127.180 141.924  0.00  0.00    +0.000 OA
ATOM      4  C   UNL     1     107.207 127.986 142.690  0.00  0.00    +0.000 C 
ATOM      5  C   UNL     1     107.896 127.535 142.631  0.00  0.00    +0.000 C 
ATOM      6  C   UNL     1     107.020 128.531 142.100  0.00  0.00    +0.000 C 
ATOM      7  C   UNL     1     108.397 127.630 141.983  0.00  0.00    +0.000 C 
ATOM      8  C   UNL     1     108.209 128.176 141.393  0.00  0.00    +0.000 C 
ENDROOT
BRANCH   6  13
ATOM      9  O   UNL     1     105.662 128.072 141.283  0.00  0.00    +0.000 OA
ATOM     10  O   UNL     1     107.000 129.891 143.035  0.00  0.00    +0.000 OA
ATOM     11  O   UNL     1     104.242 130.360 142.346  0.00  0.00    +0.000 OA
ATOM     12  O   UNL     1     104.281 128.272 140.914  0.00  0.00    +0.000 OA
ATOM     13  C   UNL     1     106.330 128.982 142.159  0.00  0.00    +0.000 A 
ATOM     14  C   UNL     1     105.652 128.752 141.751  0.00  0.00    +0.000 A 
ATOM     15  C   UNL     1     106.321 129.662 142.627  0.00  0.00    +0.000 A 
ATOM     16  C   UNL     1     104.963 129.203 141.810  0.00  0.00    +0.000 A 
ATOM     17  C   UNL     1     105.632 130.111 142.685  0.00  0.00    +0.000 A 
ATOM     18  C   UNL     1     104.953 129.882 142.277  0.00  0.00    +0.000 A 
ATOM     19  C   UNL     1     104.262 128.953 141.379  0.00  0.00    +0.000 A 
ATOM     20  C   UNL     1     103.541 129.417 141.436  0.00  0.00    +0.000 A 
ATOM     21  C   UNL     1     103.531 130.126 141.923  0.00  0.00    +0.000 A 
BRANCH  21  23
ATOM     22  O   UNL     1     100.782 131.934 142.164  0.00  0.00    +0.000 OA
ATOM     23  C   UNL     1     102.844 130.578 141.984  0.00  0.00    +0.000 A 
ATOM     24  C   UNL     1     102.393 130.735 141.311  0.00  0.00    +0.000 A 
ATOM     25  C   UNL     1     102.608 130.874 142.717  0.00  0.00    +0.000 A 
ATOM     26  C   UNL     1     101.706 131.186 141.371  0.00  0.00    +0.000 A 
ATOM     27  C   UNL     1     101.920 131.326 142.777  0.00  0.00    +0.000 A 
ATOM     28  C   UNL     1     101.469 131.482 142.103  0.00  0.00    +0.000 A 
ENDBRANCH  21  23
ENDBRANCH   6  13
BRANCH   8  30
ATOM     29  O   UNL     1     108.649 128.945 140.272  0.00  0.00    +0.000 OA
ATOM     30  C   UNL     1     108.710 128.271 140.745  0.00  0.00    +0.000 C 
ENDBRANCH   8  30
BRANCH   4  31
ATOM     31  O   UNL     1     106.706 127.891 143.339  0.00  0.00    +0.000 OA
BRANCH  31  36
ATOM     32  O   UNL     1     106.396 126.526 143.051  0.00  0.00    +0.000 OA
ATOM     33  O   UNL     1     106.525 127.591 144.951  0.00  0.00    +0.000 OA
ATOM     34  O   UNL     1     106.125 126.077 145.469  0.00  0.00    +0.000 OA
ATOM     35  O   UNL     1     105.906 124.861 144.375  0.00  0.00    +0.000 OA
ATOM     36  C   UNL     1     106.506 127.133 143.597  0.00  0.00    +0.000 C 
ATOM     37  C   UNL     1     106.415 126.983 144.404  0.00  0.00    +0.000 C 
ATOM     38  C   UNL     1     106.215 126.226 144.663  0.00  0.00    +0.000 C 
ATOM     39  C   UNL     1     106.106 125.618 144.115  0.00  0.00    +0.000 C 
ATOM     40  C   UNL     1     106.196 125.768 143.309  0.00  0.00    +0.000 C 
BRANCH  40  41
ATOM     41  C   UNL     1     106.087 125.161 142.763  0.00  0.00    +0.000 C 
BRANCH  41  42
ATOM     42  O   UNL     1     105.824 125.334 141.999  0.00  0.00    +0.000 OA
BRANCH  42  44
ATOM     43  O   UNL     1     106.548 124.324 141.296  0.00  0.00    +0.000 OA
ATOM     44  C   UNL     1     105.856 124.757 141.411  0.00  0.00    +0.000 C 
BRANCH  44  45
ATOM     45  C   UNL     1     105.196 124.613 140.938  0.00  0.00    +0.000 C 
ATOM     46  C   UNL     1     105.281 124.539 140.121  0.00  0.00    +0.000 C 
BRANCH  46  48
ATOM     47  O   UNL     1     102.641 123.965 138.227  0.00  0.00    +0.000 OA
ATOM     48  C   UNL     1     104.621 124.394 139.648  0.00  0.00    +0.000 A 
ATOM     49  C   UNL     1     104.317 123.631 139.585  0.00  0.00    +0.000 A 
ATOM     50  C   UNL     1     104.265 125.015 139.237  0.00  0.00    +0.000 A 
ATOM     51  C   UNL     1     103.657 123.487 139.111  0.00  0.00    +0.000 A 
ATOM     52  C   UNL     1     103.605 124.872 138.764  0.00  0.00    +0.000 A 
ATOM     53  C   UNL     1     103.301 124.108 138.701  0.00  0.00    +0.000 A 
ENDBRANCH  46  48
ENDBRANCH  44  45
ENDBRANCH  42  44
ENDBRANCH  41  42
ENDBRANCH  40  41
ENDBRANCH  31  36
ENDBRANCH   4  31
TORSDOF 10
ENDMDL
MODEL 7
REMARK VINA RESULT:     -11.0      2.690      6.624
REMARK  Name = 131752280
REMARK  10 active torsions:
REMARK  status: ('A' for Active; 'I' for Inactive)
REMARK    1  A    between atoms: O_1  and  C_18
REMARK    2  A    between atoms: O_1  and  C_23
REMARK    3  A    between atoms: O_10  and  C_30
REMARK    4  A    between atoms: O_10  and  C_39
REMARK    5  A    between atoms: C_20  and  C_28
REMARK    6  A    between atoms: C_22  and  C_29
REMARK    7  A    between atoms: C_27  and  C_30
REMARK    8  A    between atoms: C_38  and  C_40
REMARK    9  A    between atoms: C_39  and  C_41
REMARK   10  A    between atoms: C_44  and  C_48
REMARK                            x       y       z     vdW  Elec       q    Type
REMARK                         _______ _______ _______ _____ _____    ______ ____
ROOT
ATOM      1  O   UNL     1     105.282 127.124 142.906  0.00  0.00    +0.000 OA
ATOM      2  O   UNL     1     107.625 127.431 142.169  0.00  0.00    +0.000 OA
ATOM      3  O   UNL     1     107.190 126.068 142.992  0.00  0.00    +0.000 OA
ATOM      4  C   UNL     1     106.280 127.908 142.249  0.00  0.00    +0.000 C 
ATOM      5  C   UNL     1     106.844 127.328 142.415  0.00  0.00    +0.000 C 
ATOM      6  C   UNL     1     105.500 127.805 142.495  0.00  0.00    +0.000 C 
ATOM      7  C   UNL     1     106.627 126.647 142.827  0.00  0.00    +0.000 C 
ATOM      8  C   UNL     1     105.846 126.545 143.072  0.00  0.00    +0.000 C 
ENDROOT
BRANCH   6  13
ATOM      9  O   UNL     1     105.030 128.861 143.673  0.00  0.00    +0.000 OA
ATOM     10  O   UNL     1     104.842 127.908 140.985  0.00  0.00    +0.000 OA
ATOM     11  O   UNL     1     103.221 130.142 141.811  0.00  0.00    +0.000 OA
ATOM     12  O   UNL     1     104.235 129.977 144.126  0.00  0.00    +0.000 OA
ATOM     13  C   UNL     1     104.935 128.385 142.329  0.00  0.00    +0.000 A 
ATOM     14  C   UNL     1     104.701 128.912 142.918  0.00  0.00    +0.000 A 
ATOM     15  C   UNL     1     104.607 128.436 141.574  0.00  0.00    +0.000 A 
ATOM     16  C   UNL     1     104.137 129.492 142.752  0.00  0.00    +0.000 A 
ATOM     17  C   UNL     1     104.044 129.015 141.408  0.00  0.00    +0.000 A 
ATOM     18  C   UNL     1     103.808 129.543 141.997  0.00  0.00    +0.000 A 
ATOM     19  C   UNL     1     103.901 130.035 143.373  0.00  0.00    +0.000 A 
ATOM     20  C   UNL     1     103.314 130.641 143.208  0.00  0.00    +0.000 A 
ATOM     21  C   UNL     1     102.972 130.695 142.421  0.00  0.00    +0.000 A 
BRANCH  21  23
ATOM     22  O   UNL     1     100.718 133.008 141.746  0.00  0.00    +0.000 OA
ATOM     23  C   UNL     1     102.408 131.273 142.252  0.00  0.00    +0.000 A 
ATOM     24  C   UNL     1     102.648 132.031 142.034  0.00  0.00    +0.000 A 
ATOM     25  C   UNL     1     101.604 131.093 142.302  0.00  0.00    +0.000 A 
ATOM     26  C   UNL     1     102.085 132.609 141.865  0.00  0.00    +0.000 A 
ATOM     27  C   UNL     1     101.041 131.672 142.133  0.00  0.00    +0.000 A 
ATOM     28  C   UNL     1     101.282 132.430 141.915  0.00  0.00    +0.000 A 
ENDBRANCH  21  23
ENDBRANCH   6  13
BRANCH   8  30
ATOM     29  O   UNL     1     105.206 125.926 144.190  0.00  0.00    +0.000 OA
ATOM     30  C   UNL     1     105.628 125.864 143.484  0.00  0.00    +0.000 C 
ENDBRANCH   8  30
BRANCH   4  31
ATOM     31  O   UNL     1     106.497 128.589 141.837  0.00  0.00    +0.000 OA
BRANCH  31  36
ATOM     32  O   UNL     1     107.368 129.054 142.871  0.00  0.00    +0.000 OA
ATOM     33  O   UNL     1     107.410 129.380 140.713  0.00  0.00    +0.000 OA
ATOM     34  O   UNL     1     108.736 130.241 141.184  0.00  0.00    +0.000 OA
ATOM     35  O   UNL     1     109.150 130.311 142.780  0.00  0.00    +0.000 OA
ATOM     36  C   UNL     1     107.161 129.019 142.074  0.00  0.00    +0.000 C 
ATOM     37  C   UNL     1     107.617 129.415 141.511  0.00  0.00    +0.000 C 
ATOM     38  C   UNL     1     108.280 129.845 141.746  0.00  0.00    +0.000 C 
ATOM     39  C   UNL     1     108.487 129.880 142.545  0.00  0.00    +0.000 C 
ATOM     40  C   UNL     1     108.031 129.485 143.107  0.00  0.00    +0.000 C 
BRANCH  40  41
ATOM     41  C   UNL     1     108.238 129.519 143.904  0.00  0.00    +0.000 C 
BRANCH  41  42
ATOM     42  O   UNL     1     107.655 129.624 144.479  0.00  0.00    +0.000 OA
BRANCH  42  44
ATOM     43  O   UNL     1     108.250 130.065 145.700  0.00  0.00    +0.000 OA
ATOM     44  C   UNL     1     107.831 129.496 145.274  0.00  0.00    +0.000 C 
BRANCH  44  45
ATOM     45  C   UNL     1     107.587 128.801 145.645  0.00  0.00    +0.000 C 
ATOM     46  C   UNL     1     107.034 128.830 146.255  0.00  0.00    +0.000 C 
BRANCH  46  48
ATOM     47  O   UNL     1     106.062 126.046 147.737  0.00  0.00    +0.000 OA
ATOM     48  C   UNL     1     106.790 128.134 146.626  0.00  0.00    +0.000 A 
ATOM     49  C   UNL     1     106.042 128.089 146.969  0.00  0.00    +0.000 A 
ATOM     50  C   UNL     1     107.296 127.483 146.653  0.00  0.00    +0.000 A 
ATOM     51  C   UNL     1     105.799 127.394 147.339  0.00  0.00    +0.000 A 
ATOM     52  C   UNL     1     107.054 126.787 147.023  0.00  0.00    +0.000 A 
ATOM     53  C   UNL     1     106.305 126.743 147.366  0.00  0.00    +0.000 A 
ENDBRANCH  46  48
ENDBRANCH  44  45
ENDBRANCH  42  44
ENDBRANCH  41  42
ENDBRANCH  40  41
ENDBRANCH  31  36
ENDBRANCH   4  31
TORSDOF 10
ENDMDL
MODEL 8
REMARK VINA RESULT:     -10.9      5.185      8.648
REMARK  Name = 131752280
REMARK  10 active torsions:
REMARK  status: ('A' for Active; 'I' for Inactive)
REMARK    1  A    between atoms: O_1  and  C_18
REMARK    2  A    between atoms: O_1  and  C_23
REMARK    3  A    between atoms: O_10  and  C_30
REMARK    4  A    between atoms: O_10  and  C_39
REMARK    5  A    between atoms: C_20  and  C_28
REMARK    6  A    between atoms: C_22  and  C_29
REMARK    7  A    between atoms: C_27  and  C_30
REMARK    8  A    between atoms: C_38  and  C_40
REMARK    9  A    between atoms: C_39  and  C_41
REMARK   10  A    between atoms: C_44  and  C_48
REMARK                            x       y       z     vdW  Elec       q    Type
REMARK                         _______ _______ _______ _____ _____    ______ ____
ROOT
ATOM      1  O   UNL     1     111.587 130.690 141.460  0.00  0.00    +0.000 OA
ATOM      2  O   UNL     1     110.925 128.713 142.794  0.00  0.00    +0.000 OA
ATOM      3  O   UNL     1     112.144 129.694 143.320  0.00  0.00    +0.000 OA
ATOM      4  C   UNL     1     110.757 129.541 141.641  0.00  0.00    +0.000 C 
ATOM      5  C   UNL     1     111.146 129.372 142.350  0.00  0.00    +0.000 C 
ATOM      6  C   UNL     1     110.978 130.200 141.197  0.00  0.00    +0.000 C 
ATOM      7  C   UNL     1     111.755 129.862 142.613  0.00  0.00    +0.000 C 
ATOM      8  C   UNL     1     111.975 130.521 142.168  0.00  0.00    +0.000 C 
ENDROOT
BRANCH   6  13
ATOM      9  O   UNL     1     111.683 129.811 139.756  0.00  0.00    +0.000 OA
ATOM     10  O   UNL     1     109.497 130.925 141.221  0.00  0.00    +0.000 OA
ATOM     11  O   UNL     1     109.397 130.886 138.342  0.00  0.00    +0.000 OA
ATOM     12  O   UNL     1     111.671 129.773 138.314  0.00  0.00    +0.000 OA
ATOM     13  C   UNL     1     110.589 130.368 140.488  0.00  0.00    +0.000 A 
ATOM     14  C   UNL     1     110.942 130.174 139.769  0.00  0.00    +0.000 A 
ATOM     15  C   UNL     1     109.848 130.731 140.501  0.00  0.00    +0.000 A 
ATOM     16  C   UNL     1     110.553 130.343 139.060  0.00  0.00    +0.000 A 
ATOM     17  C   UNL     1     109.460 130.900 139.793  0.00  0.00    +0.000 A 
ATOM     18  C   UNL     1     109.812 130.705 139.072  0.00  0.00    +0.000 A 
ATOM     19  C   UNL     1     110.930 130.135 138.317  0.00  0.00    +0.000 A 
ATOM     20  C   UNL     1     110.531 130.308 137.576  0.00  0.00    +0.000 A 
ATOM     21  C   UNL     1     109.759 130.686 137.588  0.00  0.00    +0.000 A 
BRANCH  21  23
ATOM     22  O   UNL     1     108.197 131.366 134.763  0.00  0.00    +0.000 OA
ATOM     23  C   UNL     1     109.368 130.856 136.882  0.00  0.00    +0.000 A 
ATOM     24  C   UNL     1     109.328 131.633 136.610  0.00  0.00    +0.000 A 
ATOM     25  C   UNL     1     109.018 130.247 136.448  0.00  0.00    +0.000 A 
ATOM     26  C   UNL     1     108.937 131.803 135.904  0.00  0.00    +0.000 A 
ATOM     27  C   UNL     1     108.628 130.418 135.741  0.00  0.00    +0.000 A 
ATOM     28  C   UNL     1     108.587 131.196 135.469  0.00  0.00    +0.000 A 
ENDBRANCH  21  23
ENDBRANCH   6  13
BRANCH   8  30
ATOM     29  O   UNL     1     112.501 131.832 142.390  0.00  0.00    +0.000 OA
ATOM     30  C   UNL     1     112.585 131.011 142.431  0.00  0.00    +0.000 C 
ENDBRANCH   8  30
BRANCH   4  31
ATOM     31  O   UNL     1     110.148 129.051 141.378  0.00  0.00    +0.000 OA
BRANCH  31  36
ATOM     32  O   UNL     1     110.976 127.914 141.126  0.00  0.00    +0.000 OA
ATOM     33  O   UNL     1     108.915 128.052 141.830  0.00  0.00    +0.000 OA
ATOM     34  O   UNL     1     109.126 126.416 141.803  0.00  0.00    +0.000 OA
ATOM     35  O   UNL     1     110.571 125.778 141.325  0.00  0.00    +0.000 OA
ATOM     36  C   UNL     1     110.254 128.232 141.365  0.00  0.00    +0.000 C 
ATOM     37  C   UNL     1     109.638 127.733 141.590  0.00  0.00    +0.000 C 
ATOM     38  C   UNL     1     109.743 126.915 141.577  0.00  0.00    +0.000 C 
ATOM     39  C   UNL     1     110.466 126.596 141.338  0.00  0.00    +0.000 C 
ATOM     40  C   UNL     1     111.082 127.095 141.112  0.00  0.00    +0.000 C 
BRANCH  40  41
ATOM     41  C   UNL     1     111.804 126.777 140.873  0.00  0.00    +0.000 C 
BRANCH  41  42
ATOM     42  O   UNL     1     112.102 126.945 140.122  0.00  0.00    +0.000 OA
BRANCH  42  44
ATOM     43  O   UNL     1     113.498 126.967 140.425  0.00  0.00    +0.000 OA
ATOM     44  C   UNL     1     112.877 126.741 139.930  0.00  0.00    +0.000 C 
BRANCH  44  45
ATOM     45  C   UNL     1     113.034 126.311 139.244  0.00  0.00    +0.000 C 
ATOM     46  C   UNL     1     113.651 126.538 138.746  0.00  0.00    +0.000 C 
BRANCH  46  48
ATOM     47  O   UNL     1     114.279 124.817 136.001  0.00  0.00    +0.000 OA
ATOM     48  C   UNL     1     113.807 126.108 138.059  0.00  0.00    +0.000 A 
ATOM     49  C   UNL     1     113.435 126.310 137.352  0.00  0.00    +0.000 A 
ATOM     50  C   UNL     1     114.337 125.476 138.081  0.00  0.00    +0.000 A 
ATOM     51  C   UNL     1     113.592 125.880 136.666  0.00  0.00    +0.000 A 
ATOM     52  C   UNL     1     114.494 125.045 137.395  0.00  0.00    +0.000 A 
ATOM     53  C   UNL     1     114.121 125.248 136.688  0.00  0.00    +0.000 A 
ENDBRANCH  46  48
ENDBRANCH  44  45
ENDBRANCH  42  44
ENDBRANCH  41  42
ENDBRANCH  40  41
ENDBRANCH  31  36
ENDBRANCH   4  31
TORSDOF 10
ENDMDL
MODEL 9
REMARK VINA RESULT:     -10.9      6.163      8.988
REMARK  Name = 131752280
REMARK  10 active torsions:
REMARK  status: ('A' for Active; 'I' for Inactive)
REMARK    1  A    between atoms: O_1  and  C_18
REMARK    2  A    between atoms: O_1  and  C_23
REMARK    3  A    between atoms: O_10  and  C_30
REMARK    4  A    between atoms: O_10  and  C_39
REMARK    5  A    between atoms: C_20  and  C_28
REMARK    6  A    between atoms: C_22  and  C_29
REMARK    7  A    between atoms: C_27  and  C_30
REMARK    8  A    between atoms: C_38  and  C_40
REMARK    9  A    between atoms: C_39  and  C_41
REMARK   10  A    between atoms: C_44  and  C_48
REMARK                            x       y       z     vdW  Elec       q    Type
REMARK                         _______ _______ _______ _____ _____    ______ ____
ROOT
ATOM      1  O   UNL     1     113.349 125.838 137.259  0.00  0.00    +0.000 OA
ATOM      2  O   UNL     1     111.218 124.650 137.680  0.00  0.00    +0.000 OA
ATOM      3  O   UNL     1     112.159 124.227 136.392  0.00  0.00    +0.000 OA
ATOM      4  C   UNL     1     112.168 125.654 138.044  0.00  0.00    +0.000 C 
ATOM      5  C   UNL     1     111.928 125.046 137.540  0.00  0.00    +0.000 C 
ATOM      6  C   UNL     1     112.879 126.049 137.903  0.00  0.00    +0.000 C 
ATOM      7  C   UNL     1     112.399 124.834 136.896  0.00  0.00    +0.000 C 
ATOM      8  C   UNL     1     113.109 125.230 136.756  0.00  0.00    +0.000 C 
ENDROOT
BRANCH   6  13
ATOM      9  O   UNL     1     112.705 127.623 137.439  0.00  0.00    +0.000 OA
ATOM     10  O   UNL     1     113.532 125.691 139.376  0.00  0.00    +0.000 OA
ATOM     11  O   UNL     1     113.852 128.496 139.949  0.00  0.00    +0.000 OA
ATOM     12  O   UNL     1     112.848 129.037 137.689  0.00  0.00    +0.000 OA
ATOM     13  C   UNL     1     113.119 126.657 138.408  0.00  0.00    +0.000 A 
ATOM     14  C   UNL     1     113.031 127.444 138.175  0.00  0.00    +0.000 A 
ATOM     15  C   UNL     1     113.445 126.478 139.144  0.00  0.00    +0.000 A 
ATOM     16  C   UNL     1     113.271 128.052 138.680  0.00  0.00    +0.000 A 
ATOM     17  C   UNL     1     113.685 127.085 139.647  0.00  0.00    +0.000 A 
ATOM     18  C   UNL     1     113.598 127.872 139.416  0.00  0.00    +0.000 A 
ATOM     19  C   UNL     1     113.176 128.867 138.426  0.00  0.00    +0.000 A 
ATOM     20  C   UNL     1     113.423 129.505 138.946  0.00  0.00    +0.000 A 
ATOM     21  C   UNL     1     113.764 129.318 139.713  0.00  0.00    +0.000 A 
BRANCH  21  23
ATOM     22  O   UNL     1     114.725 131.740 141.737  0.00  0.00    +0.000 OA
ATOM     23  C   UNL     1     114.004 129.924 140.219  0.00  0.00    +0.000 A 
ATOM     24  C   UNL     1     113.527 130.144 140.855  0.00  0.00    +0.000 A 
ATOM     25  C   UNL     1     114.722 130.309 140.089  0.00  0.00    +0.000 A 
ATOM     26  C   UNL     1     113.767 130.749 141.361  0.00  0.00    +0.000 A 
ATOM     27  C   UNL     1     114.962 130.915 140.596  0.00  0.00    +0.000 A 
ATOM     28  C   UNL     1     114.484 131.135 141.231  0.00  0.00    +0.000 A 
ENDBRANCH  21  23
ENDBRANCH   6  13
BRANCH   8  30
ATOM     29  O   UNL     1     114.402 125.039 136.177  0.00  0.00    +0.000 OA
ATOM     30  C   UNL     1     113.579 125.019 136.112  0.00  0.00    +0.000 C 
ENDBRANCH   8  30
BRANCH   4  31
ATOM     31  O   UNL     1     111.698 125.865 138.688  0.00  0.00    +0.000 OA
BRANCH  31  36
ATOM     32  O   UNL     1     110.634 126.368 137.877  0.00  0.00    +0.000 OA
ATOM     33  O   UNL     1     110.615 125.484 139.873  0.00  0.00    +0.000 OA
ATOM     34  O   UNL     1     109.010 125.796 139.655  0.00  0.00    +0.000 OA
ATOM     35  O   UNL     1     108.487 126.489 138.252  0.00  0.00    +0.000 OA
ATOM     36  C   UNL     1     110.895 126.022 138.578  0.00  0.00    +0.000 C 
ATOM     37  C   UNL     1     110.354 125.831 139.171  0.00  0.00    +0.000 C 
ATOM     38  C   UNL     1     109.551 125.987 139.063  0.00  0.00    +0.000 C 
ATOM     39  C   UNL     1     109.290 126.333 138.360  0.00  0.00    +0.000 C 
ATOM     40  C   UNL     1     109.831 126.524 137.768  0.00  0.00    +0.000 C 
BRANCH  40  41
ATOM     41  C   UNL     1     109.570 126.870 137.067  0.00  0.00    +0.000 C 
BRANCH  41  42
ATOM     42  O   UNL     1     109.790 127.643 136.880  0.00  0.00    +0.000 OA
BRANCH  42  44
ATOM     43  O   UNL     1     109.431 127.451 135.511  0.00  0.00    +0.000 OA
ATOM     44  C   UNL     1     109.611 127.956 136.138  0.00  0.00    +0.000 C 
BRANCH  44  45
ATOM     45  C   UNL     1     109.612 128.773 136.023  0.00  0.00    +0.000 C 
ATOM     46  C   UNL     1     108.957 129.143 135.687  0.00  0.00    +0.000 C 
BRANCH  46  48
ATOM     47  O   UNL     1     108.960 132.411 135.228  0.00  0.00    +0.000 OA
ATOM     48  C   UNL     1     108.958 129.960 135.571  0.00  0.00    +0.000 A 
ATOM     49  C   UNL     1     109.335 130.284 134.913  0.00  0.00    +0.000 A 
ATOM     50  C   UNL     1     108.582 130.453 136.115  0.00  0.00    +0.000 A 
ATOM     51  C   UNL     1     109.336 131.100 134.799  0.00  0.00    +0.000 A 
ATOM     52  C   UNL     1     108.583 131.270 136.002  0.00  0.00    +0.000 A 
ATOM     53  C   UNL     1     108.959 131.593 135.343  0.00  0.00    +0.000 A 
ENDBRANCH  46  48
ENDBRANCH  44  45
ENDBRANCH  42  44
ENDBRANCH  41  42
ENDBRANCH  40  41
ENDBRANCH  31  36
ENDBRANCH   4  31
TORSDOF 10
ENDMDL
MODEL 10
REMARK VINA RESULT:     -10.9      3.292      7.473
REMARK  Name = 131752280
REMARK  10 active torsions:
REMARK  status: ('A' for Active; 'I' for Inactive)
REMARK    1  A    between atoms: O_1  and  C_18
REMARK    2  A    between atoms: O_1  and  C_23
REMARK    3  A    between atoms: O_10  and  C_30
REMARK    4  A    between atoms: O_10  and  C_39
REMARK    5  A    between atoms: C_20  and  C_28
REMARK    6  A    between atoms: C_22  and  C_29
REMARK    7  A    between atoms: C_27  and  C_30
REMARK    8  A    between atoms: C_38  and  C_40
REMARK    9  A    between atoms: C_39  and  C_41
REMARK   10  A    between atoms: C_44  and  C_48
REMARK                            x       y       z     vdW  Elec       q    Type
REMARK                         _______ _______ _______ _____ _____    ______ ____
ROOT
ATOM      1  O   UNL     1     106.861 125.795 146.678  0.00  0.00    +0.000 OA
ATOM      2  O   UNL     1     105.312 123.980 147.336  0.00  0.00    +0.000 OA
ATOM      3  O   UNL     1     106.692 124.241 148.202  0.00  0.00    +0.000 OA
ATOM      4  C   UNL     1     105.655 125.059 146.464  0.00  0.00    +0.000 C 
ATOM      5  C   UNL     1     105.829 124.584 147.117  0.00  0.00    +0.000 C 
ATOM      6  C   UNL     1     106.171 125.664 146.245  0.00  0.00    +0.000 C 
ATOM      7  C   UNL     1     106.519 124.715 147.550  0.00  0.00    +0.000 C 
ATOM      8  C   UNL     1     107.035 125.321 147.330  0.00  0.00    +0.000 C 
ENDROOT
BRANCH   6  13
ATOM      9  O   UNL     1     105.585 127.190 146.467  0.00  0.00    +0.000 OA
ATOM     10  O   UNL     1     106.410 125.086 144.718  0.00  0.00    +0.000 OA
ATOM     11  O   UNL     1     105.472 127.570 143.600  0.00  0.00    +0.000 OA
ATOM     12  O   UNL     1     105.109 128.449 145.947  0.00  0.00    +0.000 OA
ATOM     13  C   UNL     1     105.997 126.138 145.592  0.00  0.00    +0.000 A 
ATOM     14  C   UNL     1     105.704 126.901 145.704  0.00  0.00    +0.000 A 
ATOM     15  C   UNL     1     106.117 125.849 144.828  0.00  0.00    +0.000 A 
ATOM     16  C   UNL     1     105.530 127.375 145.051  0.00  0.00    +0.000 A 
ATOM     17  C   UNL     1     105.943 126.323 144.177  0.00  0.00    +0.000 A 
ATOM     18  C   UNL     1     105.649 127.086 144.287  0.00  0.00    +0.000 A 
ATOM     19  C   UNL     1     105.225 128.168 145.180  0.00  0.00    +0.000 A 
ATOM     20  C   UNL     1     105.042 128.667 144.505  0.00  0.00    +0.000 A 
ATOM     21  C   UNL     1     105.166 128.366 143.709  0.00  0.00    +0.000 A 
BRANCH  21  23
ATOM     22  O   UNL     1     104.473 130.253 141.093  0.00  0.00    +0.000 OA
ATOM     23  C   UNL     1     104.993 128.838 143.055  0.00  0.00    +0.000 A 
ATOM     24  C   UNL     1     104.268 128.759 142.669  0.00  0.00    +0.000 A 
ATOM     25  C   UNL     1     105.545 129.389 142.786  0.00  0.00    +0.000 A 
ATOM     26  C   UNL     1     104.095 129.230 142.016  0.00  0.00    +0.000 A 
ATOM     27  C   UNL     1     105.371 129.861 142.132  0.00  0.00    +0.000 A 
ATOM     28  C   UNL     1     104.646 129.781 141.747  0.00  0.00    +0.000 A 
ENDBRANCH  21  23
ENDBRANCH   6  13
BRANCH   8  30
ATOM     29  O   UNL     1     108.457 125.456 147.382  0.00  0.00    +0.000 OA
ATOM     30  C   UNL     1     107.724 125.452 147.763  0.00  0.00    +0.000 C 
ENDBRANCH   8  30
BRANCH   4  31
ATOM     31  O   UNL     1     104.965 124.928 146.031  0.00  0.00    +0.000 OA
BRANCH  31  36
ATOM     32  O   UNL     1     104.043 125.316 147.051  0.00  0.00    +0.000 OA
ATOM     33  O   UNL     1     103.935 123.730 145.555  0.00  0.00    +0.000 OA
ATOM     34  O   UNL     1     102.497 123.519 146.338  0.00  0.00    +0.000 OA
ATOM     35  O   UNL     1     102.090 124.506 147.596  0.00  0.00    +0.000 OA
ATOM     36  C   UNL     1     104.246 124.823 146.423  0.00  0.00    +0.000 C 
ATOM     37  C   UNL     1     103.731 124.224 146.185  0.00  0.00    +0.000 C 
ATOM     38  C   UNL     1     103.013 124.118 146.576  0.00  0.00    +0.000 C 
ATOM     39  C   UNL     1     102.809 124.612 147.205  0.00  0.00    +0.000 C 
ATOM     40  C   UNL     1     103.324 125.211 147.443  0.00  0.00    +0.000 C 
BRANCH  40  41
ATOM     41  C   UNL     1     103.120 125.704 148.071  0.00  0.00    +0.000 C 
BRANCH  41  42
ATOM     42  O   UNL     1     103.239 126.519 148.013  0.00  0.00    +0.000 OA
BRANCH  42  44
ATOM     43  O   UNL     1     103.250 126.818 149.409  0.00  0.00    +0.000 OA
ATOM     44  C   UNL     1     103.029 127.012 148.639  0.00  0.00    +0.000 C 
BRANCH  44  45
ATOM     45  C   UNL     1     102.598 127.701 148.495  0.00  0.00    +0.000 C 
ATOM     46  C   UNL     1     102.902 128.433 148.720  0.00  0.00    +0.000 C 
BRANCH  46  48
ATOM     47  O   UNL     1     101.177 131.188 148.148  0.00  0.00    +0.000 OA
ATOM     48  C   UNL     1     102.471 129.122 148.577  0.00  0.00    +0.000 A 
ATOM     49  C   UNL     1     102.794 129.722 148.112  0.00  0.00    +0.000 A 
ATOM     50  C   UNL     1     101.717 129.211 148.900  0.00  0.00    +0.000 A 
ATOM     51  C   UNL     1     102.363 130.410 147.969  0.00  0.00    +0.000 A 
ATOM     52  C   UNL     1     101.285 129.899 148.757  0.00  0.00    +0.000 A 
ATOM     53  C   UNL     1     101.609 130.499 148.291  0.00  0.00    +0.000 A 
ENDBRANCH  46  48
ENDBRANCH  44  45
ENDBRANCH  42  44
ENDBRANCH  41  42
ENDBRANCH  40  41
ENDBRANCH  31  36
ENDBRANCH   4  31
TORSDOF 10
ENDMDL
