MODEL 1
REMARK VINA RESULT:      -8.8      0.000      0.000
REMARK  Name = 131834275
REMARK  5 active torsions:
REMARK  status: ('A' for Active; 'I' for Inactive)
REMARK    1  A    between atoms: S_1  and  C_24
REMARK    2  A    between atoms: S_2  and  O_6
REMARK    3  A    between atoms: O_6  and  C_26
REMARK    4  A    between atoms: O_7  and  C_28
REMARK    5  A    between atoms: C_15  and  C_19
REMARK                            x       y       z     vdW  Elec       q    Type
REMARK                         _______ _______ _______ _____ _____    ______ ____
ROOT
ATOM      1  O   UNL     1     104.956 124.333 147.387  0.00  0.00    +0.000 OA
ATOM      2  O   UNL     1     104.434 124.906 145.286  0.00  0.00    +0.000 OA
ATOM      3  O   UNL     1     107.222 125.663 146.174  0.00  0.00    +0.000 OA
ATOM      4  O   UNL     1     108.081 125.481 147.571  0.00  0.00    +0.000 OA
ATOM      5  C   UNL     1     104.861 124.814 145.985  0.00  0.00    +0.000 C 
ATOM      6  C   UNL     1     104.503 124.424 146.662  0.00  0.00    +0.000 C 
ATOM      7  C   UNL     1     105.668 125.107 146.042  0.00  0.00    +0.000 C 
ATOM      8  C   UNL     1     106.104 125.006 146.775  0.00  0.00    +0.000 A 
ATOM      9  C   UNL     1     105.760 124.632 147.425  0.00  0.00    +0.000 A 
ATOM     10  C   UNL     1     106.878 125.289 146.824  0.00  0.00    +0.000 A 
ATOM     11  C   UNL     1     106.190 124.541 148.124  0.00  0.00    +0.000 A 
ATOM     12  C   UNL     1     106.963 124.824 148.172  0.00  0.00    +0.000 A 
ATOM     13  C   UNL     1     107.307 125.198 147.522  0.00  0.00    +0.000 A 
ENDROOT
BRANCH   6  14
ATOM     14  C   UNL     1     103.730 124.140 146.617  0.00  0.00    +0.000 A 
ATOM     15  C   UNL     1     103.129 124.507 147.048  0.00  0.00    +0.000 A 
ATOM     16  C   UNL     1     103.557 123.488 146.141  0.00  0.00    +0.000 A 
ATOM     17  C   UNL     1     102.357 124.222 147.003  0.00  0.00    +0.000 A 
ATOM     18  C   UNL     1     102.785 123.203 146.096  0.00  0.00    +0.000 A 
ATOM     19  C   UNL     1     102.184 123.570 146.526  0.00  0.00    +0.000 A 
BRANCH  19  20
ATOM     20  O   UNL     1     101.412 123.286 146.481  0.00  0.00    +0.000 OA
ATOM     21  C   UNL     1     101.207 122.739 145.899  0.00  0.00    +0.000 C 
ENDBRANCH  19  20
BRANCH  17  22
ATOM     22  O   UNL     1     101.756 124.589 147.433  0.00  0.00    +0.000 OA
BRANCH  22  23
ATOM     23  S   UNL     1     101.944 125.063 148.082  0.00  0.00    +0.000 S 
ATOM     24  O   UNL     1     102.131 125.536 148.731  0.00  0.00    +0.000 OA
ATOM     25  O   UNL     1     101.973 124.393 148.563  0.00  0.00    +0.000 OA
ATOM     26  O   UNL     1     101.915 125.733 147.602  0.00  0.00    +0.000 OA
ENDBRANCH  22  23
ENDBRANCH  17  22
ENDBRANCH   6  14
BRANCH  12  27
ATOM     27  S   UNL     1     107.393 124.733 148.871  0.00  0.00    +0.000 S 
ATOM     28  O   UNL     1     108.022 124.200 148.903  0.00  0.00    +0.000 OA
ATOM     29  O   UNL     1     107.193 125.176 149.538  0.00  0.00    +0.000 OA
ENDBRANCH  12  27
TORSDOF 5
ENDMDL
MODEL 2
REMARK VINA RESULT:      -8.4     10.121     11.905
REMARK  Name = 131834275
REMARK  5 active torsions:
REMARK  status: ('A' for Active; 'I' for Inactive)
REMARK    1  A    between atoms: S_1  and  C_24
REMARK    2  A    between atoms: S_2  and  O_6
REMARK    3  A    between atoms: O_6  and  C_26
REMARK    4  A    between atoms: O_7  and  C_28
REMARK    5  A    between atoms: C_15  and  C_19
REMARK                            x       y       z     vdW  Elec       q    Type
REMARK                         _______ _______ _______ _____ _____    ______ ____
ROOT
ATOM      1  O   UNL     1     112.225 126.374 138.682  0.00  0.00    +0.000 OA
ATOM      2  O   UNL     1     110.091 125.741 138.937  0.00  0.00    +0.000 OA
ATOM      3  O   UNL     1     111.439 126.765 141.440  0.00  0.00    +0.000 OA
ATOM      4  O   UNL     1     112.947 127.337 141.791  0.00  0.00    +0.000 OA
ATOM      5  C   UNL     1     110.846 126.026 139.110  0.00  0.00    +0.000 C 
ATOM      6  C   UNL     1     111.441 126.075 138.492  0.00  0.00    +0.000 C 
ATOM      7  C   UNL     1     111.041 126.277 139.908  0.00  0.00    +0.000 C 
ATOM      8  C   UNL     1     111.829 126.573 140.079  0.00  0.00    +0.000 A 
ATOM      9  C   UNL     1     112.401 126.620 139.486  0.00  0.00    +0.000 A 
ATOM     10  C   UNL     1     112.011 126.812 140.847  0.00  0.00    +0.000 A 
ATOM     11  C   UNL     1     113.155 126.906 139.662  0.00  0.00    +0.000 A 
ATOM     12  C   UNL     1     113.336 127.145 140.430  0.00  0.00    +0.000 A 
ATOM     13  C   UNL     1     112.764 127.098 141.023  0.00  0.00    +0.000 A 
ENDROOT
BRANCH   6  14
ATOM     14  C   UNL     1     111.263 125.837 137.723  0.00  0.00    +0.000 A 
ATOM     15  C   UNL     1     111.563 125.126 137.430  0.00  0.00    +0.000 A 
ATOM     16  C   UNL     1     110.784 126.310 137.245  0.00  0.00    +0.000 A 
ATOM     17  C   UNL     1     111.385 124.888 136.661  0.00  0.00    +0.000 A 
ATOM     18  C   UNL     1     110.606 126.073 136.476  0.00  0.00    +0.000 A 
ATOM     19  C   UNL     1     110.906 125.362 136.183  0.00  0.00    +0.000 A 
BRANCH  19  20
ATOM     20  O   UNL     1     110.728 125.124 135.415  0.00  0.00    +0.000 OA
ATOM     21  C   UNL     1     110.216 125.575 134.951  0.00  0.00    +0.000 C 
ENDBRANCH  19  20
BRANCH  17  22
ATOM     22  O   UNL     1     111.685 124.178 136.369  0.00  0.00    +0.000 OA
BRANCH  22  23
ATOM     23  S   UNL     1     112.286 123.785 136.776  0.00  0.00    +0.000 S 
ATOM     24  O   UNL     1     112.888 123.393 137.182  0.00  0.00    +0.000 OA
ATOM     25  O   UNL     1     112.850 124.227 136.367  0.00  0.00    +0.000 OA
ATOM     26  O   UNL     1     111.722 123.343 137.184  0.00  0.00    +0.000 OA
ENDBRANCH  22  23
ENDBRANCH  17  22
ENDBRANCH   6  14
BRANCH  12  27
ATOM     27  S   UNL     1     114.091 127.431 140.606  0.00  0.00    +0.000 S 
ATOM     28  O   UNL     1     114.241 128.242 140.577  0.00  0.00    +0.000 OA
ATOM     29  O   UNL     1     114.693 126.906 140.810  0.00  0.00    +0.000 OA
ENDBRANCH  12  27
TORSDOF 5
ENDMDL
MODEL 3
REMARK VINA RESULT:      -8.2      7.605      8.726
REMARK  Name = 131834275
REMARK  5 active torsions:
REMARK  status: ('A' for Active; 'I' for Inactive)
REMARK    1  A    between atoms: S_1  and  C_24
REMARK    2  A    between atoms: S_2  and  O_6
REMARK    3  A    between atoms: O_6  and  C_26
REMARK    4  A    between atoms: O_7  and  C_28
REMARK    5  A    between atoms: C_15  and  C_19
REMARK                            x       y       z     vdW  Elec       q    Type
REMARK                         _______ _______ _______ _____ _____    ______ ____
ROOT
ATOM      1  O   UNL     1     103.555 130.095 142.118  0.00  0.00    +0.000 OA
ATOM      2  O   UNL     1     102.398 130.076 140.200  0.00  0.00    +0.000 OA
ATOM      3  O   UNL     1     104.105 127.633 140.701  0.00  0.00    +0.000 OA
ATOM      4  O   UNL     1     105.117 127.156 141.914  0.00  0.00    +0.000 OA
ATOM      5  C   UNL     1     102.903 129.841 140.808  0.00  0.00    +0.000 C 
ATOM      6  C   UNL     1     103.026 130.349 141.489  0.00  0.00    +0.000 C 
ATOM      7  C   UNL     1     103.311 129.084 140.764  0.00  0.00    +0.000 C 
ATOM      8  C   UNL     1     103.835 128.848 141.402  0.00  0.00    +0.000 A 
ATOM      9  C   UNL     1     103.953 129.336 142.056  0.00  0.00    +0.000 A 
ATOM     10  C   UNL     1     104.223 128.121 141.355  0.00  0.00    +0.000 A 
ATOM     11  C   UNL     1     104.459 129.098 142.664  0.00  0.00    +0.000 A 
ATOM     12  C   UNL     1     104.847 128.371 142.615  0.00  0.00    +0.000 A 
ATOM     13  C   UNL     1     104.728 127.883 141.961  0.00  0.00    +0.000 A 
ENDROOT
BRANCH   6  14
ATOM     14  C   UNL     1     102.640 131.077 141.540  0.00  0.00    +0.000 A 
ATOM     15  C   UNL     1     103.029 131.768 141.313  0.00  0.00    +0.000 A 
ATOM     16  C   UNL     1     101.864 131.112 141.819  0.00  0.00    +0.000 A 
ATOM     17  C   UNL     1     102.643 132.494 141.364  0.00  0.00    +0.000 A 
ATOM     18  C   UNL     1     101.478 131.839 141.870  0.00  0.00    +0.000 A 
ATOM     19  C   UNL     1     101.866 132.530 141.643  0.00  0.00    +0.000 A 
BRANCH  19  20
ATOM     20  O   UNL     1     101.480 133.257 141.694  0.00  0.00    +0.000 OA
ATOM     21  C   UNL     1     100.710 133.295 141.987  0.00  0.00    +0.000 C 
ENDBRANCH  19  20
BRANCH  17  22
ATOM     22  O   UNL     1     103.032 133.185 141.137  0.00  0.00    +0.000 OA
BRANCH  22  23
ATOM     23  S   UNL     1     103.836 133.165 140.952  0.00  0.00    +0.000 S 
ATOM     24  O   UNL     1     104.640 133.144 140.768  0.00  0.00    +0.000 OA
ATOM     25  O   UNL     1     104.022 133.259 141.751  0.00  0.00    +0.000 OA
ATOM     26  O   UNL     1     103.650 133.070 140.154  0.00  0.00    +0.000 OA
ENDBRANCH  22  23
ENDBRANCH  17  22
ENDBRANCH   6  14
BRANCH  12  27
ATOM     27  S   UNL     1     105.353 128.133 143.222  0.00  0.00    +0.000 S 
ATOM     28  O   UNL     1     105.069 127.658 143.834  0.00  0.00    +0.000 OA
ATOM     29  O   UNL     1     106.143 128.370 143.216  0.00  0.00    +0.000 OA
ENDBRANCH  12  27
TORSDOF 5
ENDMDL
MODEL 4
REMARK VINA RESULT:      -8.2     12.253     13.231
REMARK  Name = 131834275
REMARK  5 active torsions:
REMARK  status: ('A' for Active; 'I' for Inactive)
REMARK    1  A    between atoms: S_1  and  C_24
REMARK    2  A    between atoms: S_2  and  O_6
REMARK    3  A    between atoms: O_6  and  C_26
REMARK    4  A    between atoms: O_7  and  C_28
REMARK    5  A    between atoms: C_15  and  C_19
REMARK                            x       y       z     vdW  Elec       q    Type
REMARK                         _______ _______ _______ _____ _____    ______ ____
ROOT
ATOM      1  O   UNL     1     112.049 126.471 136.317  0.00  0.00    +0.000 OA
ATOM      2  O   UNL     1     110.031 125.740 135.675  0.00  0.00    +0.000 OA
ATOM      3  O   UNL     1     111.998 123.581 136.450  0.00  0.00    +0.000 OA
ATOM      4  O   UNL     1     113.562 123.574 136.977  0.00  0.00    +0.000 OA
ATOM      5  C   UNL     1     110.813 125.740 135.938  0.00  0.00    +0.000 C 
ATOM      6  C   UNL     1     111.234 126.481 136.042  0.00  0.00    +0.000 C 
ATOM      7  C   UNL     1     111.211 124.998 136.111  0.00  0.00    +0.000 C 
ATOM      8  C   UNL     1     112.025 125.008 136.385  0.00  0.00    +0.000 A 
ATOM      9  C   UNL     1     112.430 125.720 136.484  0.00  0.00    +0.000 A 
ATOM     10  C   UNL     1     112.403 124.293 136.549  0.00  0.00    +0.000 A 
ATOM     11  C   UNL     1     113.213 125.717 136.748  0.00  0.00    +0.000 A 
ATOM     12  C   UNL     1     113.589 125.001 136.912  0.00  0.00    +0.000 A 
ATOM     13  C   UNL     1     113.184 124.289 136.812  0.00  0.00    +0.000 A 
ENDROOT
BRANCH   6  14
ATOM     14  C   UNL     1     110.860 127.199 135.878  0.00  0.00    +0.000 A 
ATOM     15  C   UNL     1     110.562 127.659 136.495  0.00  0.00    +0.000 A 
ATOM     16  C   UNL     1     110.784 127.455 135.098  0.00  0.00    +0.000 A 
ATOM     17  C   UNL     1     110.188 128.375 136.331  0.00  0.00    +0.000 A 
ATOM     18  C   UNL     1     110.410 128.172 134.934  0.00  0.00    +0.000 A 
ATOM     19  C   UNL     1     110.112 128.632 135.550  0.00  0.00    +0.000 A 
BRANCH  19  20
ATOM     20  O   UNL     1     109.739 129.349 135.387  0.00  0.00    +0.000 OA
ATOM     21  C   UNL     1     109.704 129.628 134.612  0.00  0.00    +0.000 C 
ENDBRANCH  19  20
BRANCH  17  22
ATOM     22  O   UNL     1     109.891 128.835 136.948  0.00  0.00    +0.000 OA
BRANCH  22  23
ATOM     23  S   UNL     1     110.038 128.622 137.731  0.00  0.00    +0.000 S 
ATOM     24  O   UNL     1     110.186 128.408 138.514  0.00  0.00    +0.000 OA
ATOM     25  O   UNL     1     109.328 128.202 137.751  0.00  0.00    +0.000 OA
ATOM     26  O   UNL     1     110.749 129.041 137.711  0.00  0.00    +0.000 OA
ENDBRANCH  22  23
ENDBRANCH  17  22
ENDBRANCH   6  14
BRANCH  12  27
ATOM     27  S   UNL     1     114.371 124.999 137.175  0.00  0.00    +0.000 S 
ATOM     28  O   UNL     1     114.534 125.012 137.984  0.00  0.00    +0.000 OA
ATOM     29  O   UNL     1     114.990 124.982 136.630  0.00  0.00    +0.000 OA
ENDBRANCH  12  27
TORSDOF 5
ENDMDL
MODEL 5
REMARK VINA RESULT:      -8.1      6.186      8.481
REMARK  Name = 131834275
REMARK  5 active torsions:
REMARK  status: ('A' for Active; 'I' for Inactive)
REMARK    1  A    between atoms: S_1  and  C_24
REMARK    2  A    between atoms: S_2  and  O_6
REMARK    3  A    between atoms: O_6  and  C_26
REMARK    4  A    between atoms: O_7  and  C_28
REMARK    5  A    between atoms: C_15  and  C_19
REMARK                            x       y       z     vdW  Elec       q    Type
REMARK                         _______ _______ _______ _____ _____    ______ ____
ROOT
ATOM      1  O   UNL     1     106.131 125.341 140.521  0.00  0.00    +0.000 OA
ATOM      2  O   UNL     1     106.825 124.632 142.529  0.00  0.00    +0.000 OA
ATOM      3  O   UNL     1     104.763 122.879 141.184  0.00  0.00    +0.000 OA
ATOM      4  O   UNL     1     103.950 122.940 139.750  0.00  0.00    +0.000 OA
ATOM      5  C   UNL     1     106.419 124.666 141.812  0.00  0.00    +0.000 C 
ATOM      6  C   UNL     1     106.558 125.315 141.266  0.00  0.00    +0.000 C 
ATOM      7  C   UNL     1     105.855 124.051 141.604  0.00  0.00    +0.000 C 
ATOM      8  C   UNL     1     105.437 124.095 140.855  0.00  0.00    +0.000 A 
ATOM      9  C   UNL     1     105.571 124.718 140.331  0.00  0.00    +0.000 A 
ATOM     10  C   UNL     1     104.897 123.502 140.660  0.00  0.00    +0.000 A 
ATOM     11  C   UNL     1     105.164 124.749 139.613  0.00  0.00    +0.000 A 
ATOM     12  C   UNL     1     104.624 124.156 139.420  0.00  0.00    +0.000 A 
ATOM     13  C   UNL     1     104.490 123.533 139.944  0.00  0.00    +0.000 A 
ENDROOT
BRANCH   6  14
ATOM     14  C   UNL     1     107.098 125.910 141.457  0.00  0.00    +0.000 A 
ATOM     15  C   UNL     1     107.864 125.886 141.151  0.00  0.00    +0.000 A 
ATOM     16  C   UNL     1     106.871 126.528 141.954  0.00  0.00    +0.000 A 
ATOM     17  C   UNL     1     108.402 126.480 141.341  0.00  0.00    +0.000 A 
ATOM     18  C   UNL     1     107.410 127.123 142.144  0.00  0.00    +0.000 A 
ATOM     19  C   UNL     1     108.176 127.099 141.838  0.00  0.00    +0.000 A 
BRANCH  19  20
ATOM     20  O   UNL     1     108.715 127.693 142.029  0.00  0.00    +0.000 OA
ATOM     21  C   UNL     1     108.480 128.327 142.501  0.00  0.00    +0.000 C 
ENDBRANCH  19  20
BRANCH  17  22
ATOM     22  O   UNL     1     109.168 126.456 141.035  0.00  0.00    +0.000 OA
BRANCH  22  23
ATOM     23  S   UNL     1     109.404 125.822 140.562  0.00  0.00    +0.000 S 
ATOM     24  O   UNL     1     109.640 125.188 140.090  0.00  0.00    +0.000 OA
ATOM     25  O   UNL     1     109.676 125.424 141.232  0.00  0.00    +0.000 OA
ATOM     26  O   UNL     1     109.132 126.220 139.893  0.00  0.00    +0.000 OA
ENDBRANCH  22  23
ENDBRANCH  17  22
ENDBRANCH   6  14
BRANCH  12  27
ATOM     27  S   UNL     1     104.217 124.187 138.703  0.00  0.00    +0.000 S 
ATOM     28  O   UNL     1     104.536 123.830 138.031  0.00  0.00    +0.000 OA
ATOM     29  O   UNL     1     103.490 124.575 138.658  0.00  0.00    +0.000 OA
ENDBRANCH  12  27
TORSDOF 5
ENDMDL
MODEL 6
REMARK VINA RESULT:      -8.1     12.744     14.051
REMARK  Name = 131834275
REMARK  5 active torsions:
REMARK  status: ('A' for Active; 'I' for Inactive)
REMARK    1  A    between atoms: S_1  and  C_24
REMARK    2  A    between atoms: S_2  and  O_6
REMARK    3  A    between atoms: O_6  and  C_26
REMARK    4  A    between atoms: O_7  and  C_28
REMARK    5  A    between atoms: C_15  and  C_19
REMARK                            x       y       z     vdW  Elec       q    Type
REMARK                         _______ _______ _______ _____ _____    ______ ____
ROOT
ATOM      1  O   UNL     1     113.114 127.392 136.200  0.00  0.00    +0.000 OA
ATOM      2  O   UNL     1     112.060 127.041 138.145  0.00  0.00    +0.000 OA
ATOM      3  O   UNL     1     113.258 129.794 137.807  0.00  0.00    +0.000 OA
ATOM      4  O   UNL     1     114.109 130.548 136.610  0.00  0.00    +0.000 OA
ATOM      5  C   UNL     1     112.485 127.415 137.545  0.00  0.00    +0.000 C 
ATOM      6  C   UNL     1     112.670 126.994 136.820  0.00  0.00    +0.000 C 
ATOM      7  C   UNL     1     112.746 128.228 137.642  0.00  0.00    +0.000 C 
ATOM      8  C   UNL     1     113.188 128.609 137.012  0.00  0.00    +0.000 A 
ATOM      9  C   UNL     1     113.366 128.205 136.315  0.00  0.00    +0.000 A 
ATOM     10  C   UNL     1     113.436 129.390 137.110  0.00  0.00    +0.000 A 
ATOM     11  C   UNL     1     113.792 128.582 135.716  0.00  0.00    +0.000 A 
ATOM     12  C   UNL     1     114.039 129.362 135.815  0.00  0.00    +0.000 A 
ATOM     13  C   UNL     1     113.861 129.767 136.512  0.00  0.00    +0.000 A 
ENDROOT
BRANCH   6  14
ATOM     14  C   UNL     1     112.424 126.213 136.717  0.00  0.00    +0.000 A 
ATOM     15  C   UNL     1     111.742 126.048 136.284  0.00  0.00    +0.000 A 
ATOM     16  C   UNL     1     112.861 125.597 137.050  0.00  0.00    +0.000 A 
ATOM     17  C   UNL     1     111.497 125.268 136.182  0.00  0.00    +0.000 A 
ATOM     18  C   UNL     1     112.616 124.816 136.948  0.00  0.00    +0.000 A 
ATOM     19  C   UNL     1     111.934 124.651 136.514  0.00  0.00    +0.000 A 
BRANCH  19  20
ATOM     20  O   UNL     1     111.688 123.870 136.412  0.00  0.00    +0.000 OA
ATOM     21  C   UNL     1     112.044 123.266 136.846  0.00  0.00    +0.000 C 
ENDBRANCH  19  20
BRANCH  17  22
ATOM     22  O   UNL     1     110.815 125.103 135.748  0.00  0.00    +0.000 OA
BRANCH  22  23
ATOM     23  S   UNL     1     110.377 125.719 135.417  0.00  0.00    +0.000 S 
ATOM     24  O   UNL     1     109.940 126.335 135.086  0.00  0.00    +0.000 OA
ATOM     25  O   UNL     1     110.826 125.667 134.727  0.00  0.00    +0.000 OA
ATOM     26  O   UNL     1     109.928 125.771 136.107  0.00  0.00    +0.000 OA
ENDBRANCH  22  23
ENDBRANCH  17  22
ENDBRANCH   6  14
BRANCH  12  27
ATOM     27  S   UNL     1     114.465 129.739 135.217  0.00  0.00    +0.000 S 
ATOM     28  O   UNL     1     115.290 129.721 135.223  0.00  0.00    +0.000 OA
ATOM     29  O   UNL     1     114.065 130.134 134.613  0.00  0.00    +0.000 OA
ENDBRANCH  12  27
TORSDOF 5
ENDMDL
MODEL 7
REMARK VINA RESULT:      -8.1      1.764      2.877
REMARK  Name = 131834275
REMARK  5 active torsions:
REMARK  status: ('A' for Active; 'I' for Inactive)
REMARK    1  A    between atoms: S_1  and  C_24
REMARK    2  A    between atoms: S_2  and  O_6
REMARK    3  A    between atoms: O_6  and  C_26
REMARK    4  A    between atoms: O_7  and  C_28
REMARK    5  A    between atoms: C_15  and  C_19
REMARK                            x       y       z     vdW  Elec       q    Type
REMARK                         _______ _______ _______ _____ _____    ______ ____
ROOT
ATOM      1  O   UNL     1     104.108 125.490 146.315  0.00  0.00    +0.000 OA
ATOM      2  O   UNL     1     104.618 123.985 147.893  0.00  0.00    +0.000 OA
ATOM      3  O   UNL     1     106.951 124.956 146.235  0.00  0.00    +0.000 OA
ATOM      4  O   UNL     1     107.120 126.023 144.988  0.00  0.00    +0.000 OA
ATOM      5  C   UNL     1     104.700 124.519 147.270  0.00  0.00    +0.000 C 
ATOM      6  C   UNL     1     104.013 124.936 146.965  0.00  0.00    +0.000 C 
ATOM      7  C   UNL     1     105.472 124.663 146.921  0.00  0.00    +0.000 C 
ATOM      8  C   UNL     1     105.547 125.221 146.273  0.00  0.00    +0.000 A 
ATOM      9  C   UNL     1     104.888 125.621 145.979  0.00  0.00    +0.000 A 
ATOM     10  C   UNL     1     106.291 125.356 145.942  0.00  0.00    +0.000 A 
ATOM     11  C   UNL     1     104.972 126.155 145.355  0.00  0.00    +0.000 A 
ATOM     12  C   UNL     1     105.716 126.288 145.025  0.00  0.00    +0.000 A 
ATOM     13  C   UNL     1     106.376 125.889 145.319  0.00  0.00    +0.000 A 
ENDROOT
BRANCH   6  14
ATOM     14  C   UNL     1     103.267 124.804 147.293  0.00  0.00    +0.000 A 
ATOM     15  C   UNL     1     102.732 124.303 146.915  0.00  0.00    +0.000 A 
ATOM     16  C   UNL     1     103.057 125.174 148.000  0.00  0.00    +0.000 A 
ATOM     17  C   UNL     1     101.987 124.172 147.243  0.00  0.00    +0.000 A 
ATOM     18  C   UNL     1     102.312 125.043 148.329  0.00  0.00    +0.000 A 
ATOM     19  C   UNL     1     101.777 124.543 147.950  0.00  0.00    +0.000 A 
BRANCH  19  20
ATOM     20  O   UNL     1     101.032 124.411 148.278  0.00  0.00    +0.000 OA
ATOM     21  C   UNL     1     100.861 124.687 149.037  0.00  0.00    +0.000 C 
ENDBRANCH  19  20
BRANCH  17  22
ATOM     22  O   UNL     1     101.452 123.672 146.864  0.00  0.00    +0.000 OA
BRANCH  22  23
ATOM     23  S   UNL     1     101.588 123.434 146.086  0.00  0.00    +0.000 S 
ATOM     24  O   UNL     1     101.725 123.197 145.308  0.00  0.00    +0.000 OA
ATOM     25  O   UNL     1     101.208 124.113 145.812  0.00  0.00    +0.000 OA
ATOM     26  O   UNL     1     101.968 122.755 146.360  0.00  0.00    +0.000 OA
ENDBRANCH  22  23
ENDBRANCH  17  22
ENDBRANCH   6  14
BRANCH  12  27
ATOM     27  S   UNL     1     105.801 126.822 144.401  0.00  0.00    +0.000 S 
ATOM     28  O   UNL     1     105.669 126.575 143.625  0.00  0.00    +0.000 OA
ATOM     29  O   UNL     1     106.016 127.604 144.554  0.00  0.00    +0.000 OA
ENDBRANCH  12  27
TORSDOF 5
ENDMDL
MODEL 8
REMARK VINA RESULT:      -8.1      1.124      4.787
REMARK  Name = 131834275
REMARK  5 active torsions:
REMARK  status: ('A' for Active; 'I' for Inactive)
REMARK    1  A    between atoms: S_1  and  C_24
REMARK    2  A    between atoms: S_2  and  O_6
REMARK    3  A    between atoms: O_6  and  C_26
REMARK    4  A    between atoms: O_7  and  C_28
REMARK    5  A    between atoms: C_15  and  C_19
REMARK                            x       y       z     vdW  Elec       q    Type
REMARK                         _______ _______ _______ _____ _____    ______ ____
ROOT
ATOM      1  O   UNL     1     104.369 125.060 146.850  0.00  0.00    +0.000 OA
ATOM      2  O   UNL     1     105.697 124.425 145.162  0.00  0.00    +0.000 OA
ATOM      3  O   UNL     1     103.221 122.739 145.558  0.00  0.00    +0.000 OA
ATOM      4  O   UNL     1     101.956 122.771 146.617  0.00  0.00    +0.000 OA
ATOM      5  C   UNL     1     105.066 124.444 145.693  0.00  0.00    +0.000 C 
ATOM      6  C   UNL     1     105.030 125.048 146.302  0.00  0.00    +0.000 C 
ATOM      7  C   UNL     1     104.439 123.858 145.640  0.00  0.00    +0.000 C 
ATOM      8  C   UNL     1     103.786 123.885 146.197  0.00  0.00    +0.000 A 
ATOM      9  C   UNL     1     103.752 124.466 146.782  0.00  0.00    +0.000 A 
ATOM     10  C   UNL     1     103.187 123.320 146.143  0.00  0.00    +0.000 A 
ATOM     11  C   UNL     1     103.119 124.482 147.312  0.00  0.00    +0.000 A 
ATOM     12  C   UNL     1     102.521 123.917 147.256  0.00  0.00    +0.000 A 
ATOM     13  C   UNL     1     102.555 123.336 146.672  0.00  0.00    +0.000 A 
ENDROOT
BRANCH   6  14
ATOM     14  C   UNL     1     105.628 125.615 146.360  0.00  0.00    +0.000 A 
ATOM     15  C   UNL     1     106.228 125.527 146.918  0.00  0.00    +0.000 A 
ATOM     16  C   UNL     1     105.623 126.271 145.859  0.00  0.00    +0.000 A 
ATOM     17  C   UNL     1     106.824 126.093 146.976  0.00  0.00    +0.000 A 
ATOM     18  C   UNL     1     106.220 126.838 145.917  0.00  0.00    +0.000 A 
ATOM     19  C   UNL     1     106.820 126.750 146.475  0.00  0.00    +0.000 A 
BRANCH  19  20
ATOM     20  O   UNL     1     107.416 127.316 146.533  0.00  0.00    +0.000 OA
ATOM     21  C   UNL     1     107.319 128.055 146.181  0.00  0.00    +0.000 C 
ENDBRANCH  19  20
BRANCH  17  22
ATOM     22  O   UNL     1     107.425 126.004 147.535  0.00  0.00    +0.000 OA
BRANCH  22  23
ATOM     23  S   UNL     1     107.523 125.284 147.924  0.00  0.00    +0.000 S 
ATOM     24  O   UNL     1     107.621 124.563 148.314  0.00  0.00    +0.000 OA
ATOM     25  O   UNL     1     108.042 125.035 147.333  0.00  0.00    +0.000 OA
ATOM     26  O   UNL     1     107.005 125.533 148.516  0.00  0.00    +0.000 OA
ENDBRANCH  22  23
ENDBRANCH  17  22
ENDBRANCH   6  14
BRANCH  12  27
ATOM     27  S   UNL     1     101.888 123.933 147.786  0.00  0.00    +0.000 S 
ATOM     28  O   UNL     1     101.929 123.507 148.492  0.00  0.00    +0.000 OA
ATOM     29  O   UNL     1     101.214 124.375 147.610  0.00  0.00    +0.000 OA
ENDBRANCH  12  27
TORSDOF 5
ENDMDL
MODEL 9
REMARK VINA RESULT:      -8.1     12.852     14.849
REMARK  Name = 131834275
REMARK  5 active torsions:
REMARK  status: ('A' for Active; 'I' for Inactive)
REMARK    1  A    between atoms: S_1  and  C_24
REMARK    2  A    between atoms: S_2  and  O_6
REMARK    3  A    between atoms: O_6  and  C_26
REMARK    4  A    between atoms: O_7  and  C_28
REMARK    5  A    between atoms: C_15  and  C_19
REMARK                            x       y       z     vdW  Elec       q    Type
REMARK                         _______ _______ _______ _____ _____    ______ ____
ROOT
ATOM      1  O   UNL     1     112.875 127.682 136.133  0.00  0.00    +0.000 OA
ATOM      2  O   UNL     1     112.002 129.274 134.820  0.00  0.00    +0.000 OA
ATOM      3  O   UNL     1     110.337 126.765 135.087  0.00  0.00    +0.000 OA
ATOM      4  O   UNL     1     110.512 125.341 135.903  0.00  0.00    +0.000 OA
ATOM      5  C   UNL     1     112.092 128.563 135.229  0.00  0.00    +0.000 C 
ATOM      6  C   UNL     1     112.790 128.426 135.710  0.00  0.00    +0.000 C 
ATOM      7  C   UNL     1     111.488 127.953 135.175  0.00  0.00    +0.000 C 
ATOM      8  C   UNL     1     111.590 127.216 135.605  0.00  0.00    +0.000 A 
ATOM      9  C   UNL     1     112.261 127.085 136.067  0.00  0.00    +0.000 A 
ATOM     10  C   UNL     1     111.008 126.634 135.550  0.00  0.00    +0.000 A 
ATOM     11  C   UNL     1     112.349 126.373 136.475  0.00  0.00    +0.000 A 
ATOM     12  C   UNL     1     111.765 125.792 136.420  0.00  0.00    +0.000 A 
ATOM     13  C   UNL     1     111.095 125.923 135.957  0.00  0.00    +0.000 A 
ENDROOT
BRANCH   6  14
ATOM     14  C   UNL     1     113.375 129.006 135.768  0.00  0.00    +0.000 A 
ATOM     15  C   UNL     1     113.390 129.515 136.416  0.00  0.00    +0.000 A 
ATOM     16  C   UNL     1     113.946 129.075 135.176  0.00  0.00    +0.000 A 
ATOM     17  C   UNL     1     113.974 130.093 136.473  0.00  0.00    +0.000 A 
ATOM     18  C   UNL     1     114.531 129.653 135.232  0.00  0.00    +0.000 A 
ATOM     19  C   UNL     1     114.546 130.163 135.881  0.00  0.00    +0.000 A 
BRANCH  19  20
ATOM     20  O   UNL     1     115.130 130.741 135.938  0.00  0.00    +0.000 OA
ATOM     21  C   UNL     1     115.665 130.849 135.320  0.00  0.00    +0.000 C 
ENDBRANCH  19  20
BRANCH  17  22
ATOM     22  O   UNL     1     113.989 130.603 137.122  0.00  0.00    +0.000 OA
BRANCH  22  23
ATOM     23  S   UNL     1     113.395 130.562 137.692  0.00  0.00    +0.000 S 
ATOM     24  O   UNL     1     112.800 130.521 138.263  0.00  0.00    +0.000 OA
ATOM     25  O   UNL     1     113.831 129.997 138.106  0.00  0.00    +0.000 OA
ATOM     26  O   UNL     1     112.959 131.127 137.279  0.00  0.00    +0.000 OA
ENDBRANCH  22  23
ENDBRANCH  17  22
ENDBRANCH   6  14
BRANCH  12  27
ATOM     27  S   UNL     1     111.853 125.080 136.828  0.00  0.00    +0.000 S 
ATOM     28  O   UNL     1     112.234 124.443 136.468  0.00  0.00    +0.000 OA
ATOM     29  O   UNL     1     111.559 125.006 137.595  0.00  0.00    +0.000 OA
ENDBRANCH  12  27
TORSDOF 5
ENDMDL
MODEL 10
REMARK VINA RESULT:      -8.0      3.127      4.788
REMARK  Name = 131834275
REMARK  5 active torsions:
REMARK  status: ('A' for Active; 'I' for Inactive)
REMARK    1  A    between atoms: S_1  and  C_24
REMARK    2  A    between atoms: S_2  and  O_6
REMARK    3  A    between atoms: O_6  and  C_26
REMARK    4  A    between atoms: O_7  and  C_28
REMARK    5  A    between atoms: C_15  and  C_19
REMARK                            x       y       z     vdW  Elec       q    Type
REMARK                         _______ _______ _______ _____ _____    ______ ____
ROOT
ATOM      1  O   UNL     1     105.976 125.003 143.945  0.00  0.00    +0.000 OA
ATOM      2  O   UNL     1     105.720 126.924 145.069  0.00  0.00    +0.000 OA
ATOM      3  O   UNL     1     105.844 127.195 142.061  0.00  0.00    +0.000 OA
ATOM      4  O   UNL     1     106.017 126.134 140.809  0.00  0.00    +0.000 OA
ATOM      5  C   UNL     1     105.807 126.391 144.445  0.00  0.00    +0.000 C 
ATOM      6  C   UNL     1     105.886 125.550 144.602  0.00  0.00    +0.000 C 
ATOM      7  C   UNL     1     105.819 126.673 143.633  0.00  0.00    +0.000 C 
ATOM      8  C   UNL     1     105.909 126.111 142.990  0.00  0.00    +0.000 A 
ATOM      9  C   UNL     1     105.985 125.303 143.141  0.00  0.00    +0.000 A 
ATOM     10  C   UNL     1     105.920 126.387 142.212  0.00  0.00    +0.000 A 
ATOM     11  C   UNL     1     106.072 124.772 142.514  0.00  0.00    +0.000 A 
ATOM     12  C   UNL     1     106.082 125.050 141.738  0.00  0.00    +0.000 A 
ATOM     13  C   UNL     1     106.006 125.857 141.587  0.00  0.00    +0.000 A 
ENDROOT
BRANCH   6  14
ATOM     14  C   UNL     1     105.876 125.269 145.378  0.00  0.00    +0.000 A 
ATOM     15  C   UNL     1     105.205 124.889 145.671  0.00  0.00    +0.000 A 
ATOM     16  C   UNL     1     106.537 125.370 145.861  0.00  0.00    +0.000 A 
ATOM     17  C   UNL     1     105.195 124.609 146.446  0.00  0.00    +0.000 A 
ATOM     18  C   UNL     1     106.528 125.090 146.637  0.00  0.00    +0.000 A 
ATOM     19  C   UNL     1     105.857 124.709 146.930  0.00  0.00    +0.000 A 
BRANCH  19  20
ATOM     20  O   UNL     1     105.847 124.429 147.705  0.00  0.00    +0.000 OA
ATOM     21  C   UNL     1     106.469 124.609 148.216  0.00  0.00    +0.000 C 
ENDBRANCH  19  20
BRANCH  17  22
ATOM     22  O   UNL     1     104.525 124.228 146.739  0.00  0.00    +0.000 OA
BRANCH  22  23
ATOM     23  S   UNL     1     103.915 124.013 146.226  0.00  0.00    +0.000 S 
ATOM     24  O   UNL     1     103.306 123.798 145.713  0.00  0.00    +0.000 OA
ATOM     25  O   UNL     1     104.297 123.298 146.073  0.00  0.00    +0.000 OA
ATOM     26  O   UNL     1     103.534 124.728 146.379  0.00  0.00    +0.000 OA
ENDBRANCH  22  23
ENDBRANCH  17  22
ENDBRANCH   6  14
BRANCH  12  27
ATOM     27  S   UNL     1     106.169 124.519 141.111  0.00  0.00    +0.000 S 
ATOM     28  O   UNL     1     106.922 124.317 140.843  0.00  0.00    +0.000 OA
ATOM     29  O   UNL     1     105.502 124.191 140.755  0.00  0.00    +0.000 OA
ENDBRANCH  12  27
TORSDOF 5
ENDMDL
