MODEL 1
REMARK VINA RESULT:     -10.6      0.000      0.000
REMARK  Name = 74977517
REMARK  7 active torsions:
REMARK  status: ('A' for Active; 'I' for Inactive)
REMARK    1  A    between atoms: O_1  and  C_18
REMARK    2  A    between atoms: O_1  and  C_20
REMARK    3  A    between atoms: O_5  and  C_23
REMARK    4  A    between atoms: O_5  and  C_30
REMARK    5  A    between atoms: C_26  and  C_28
REMARK    6  A    between atoms: C_27  and  C_29
REMARK    7  A    between atoms: C_37  and  C_39
REMARK                            x       y       z     vdW  Elec       q    Type
REMARK                         _______ _______ _______ _____ _____    ______ ____
ROOT
ATOM      1  O   UNL     1     106.248 128.708 142.182  0.00  0.00    +0.000 OA
ATOM      2  O   UNL     1     107.647 126.707 142.583  0.00  0.00    +0.000 OA
ATOM      3  O   UNL     1     108.329 128.084 141.985  0.00  0.00    +0.000 OA
ATOM      4  C   UNL     1     106.373 127.352 142.615  0.00  0.00    +0.000 C 
ATOM      5  C   UNL     1     107.181 127.374 142.449  0.00  0.00    +0.000 C 
ATOM      6  C   UNL     1     107.522 128.062 142.150  0.00  0.00    +0.000 C 
ATOM      7  C   UNL     1     105.906 128.019 142.481  0.00  0.00    +0.000 C 
ATOM      8  C   UNL     1     107.055 128.729 142.016  0.00  0.00    +0.000 C 
ENDROOT
BRANCH   8  11
ATOM      9  O   UNL     1     107.460 129.526 140.901  0.00  0.00    +0.000 OA
ATOM     10  O   UNL     1     107.673 130.000 142.233  0.00  0.00    +0.000 OA
ATOM     11  C   UNL     1     107.396 129.418 141.717  0.00  0.00    +0.000 C 
ENDBRANCH   8  11
BRANCH   4  12
ATOM     12  O   UNL     1     106.031 126.663 142.914  0.00  0.00    +0.000 OA
BRANCH  12  17
ATOM     13  O   UNL     1     106.306 127.063 144.258  0.00  0.00    +0.000 OA
ATOM     14  O   UNL     1     105.820 125.107 143.421  0.00  0.00    +0.000 OA
ATOM     15  O   UNL     1     105.990 124.729 145.018  0.00  0.00    +0.000 OA
ATOM     16  O   UNL     1     106.370 125.908 146.109  0.00  0.00    +0.000 OA
ATOM     17  C   UNL     1     106.116 126.474 143.713  0.00  0.00    +0.000 C 
ATOM     18  C   UNL     1     106.010 125.696 143.966  0.00  0.00    +0.000 C 
ATOM     19  C   UNL     1     106.095 125.507 144.765  0.00  0.00    +0.000 C 
ATOM     20  C   UNL     1     106.285 126.097 145.310  0.00  0.00    +0.000 C 
ATOM     21  C   UNL     1     106.390 126.874 145.057  0.00  0.00    +0.000 C 
BRANCH  21  24
ATOM     22  O   UNL     1     105.983 127.926 145.934  0.00  0.00    +0.000 OA
ATOM     23  O   UNL     1     107.367 127.592 145.814  0.00  0.00    +0.000 OA
ATOM     24  C   UNL     1     106.580 127.464 145.602  0.00  0.00    +0.000 C 
ENDBRANCH  21  24
ENDBRANCH  12  17
ENDBRANCH   4  12
BRANCH   7  25
ATOM     25  O   UNL     1     105.098 127.998 142.647  0.00  0.00    +0.000 OA
BRANCH  25  29
ATOM     26  O   UNL     1     103.230 130.107 141.910  0.00  0.00    +0.000 OA
ATOM     27  O   UNL     1     103.653 127.885 140.112  0.00  0.00    +0.000 OA
ATOM     28  O   UNL     1     102.735 128.947 139.780  0.00  0.00    +0.000 OA
ATOM     29  C   UNL     1     104.559 128.322 142.113  0.00  0.00    +0.000 A 
ATOM     30  C   UNL     1     104.165 129.064 142.294  0.00  0.00    +0.000 A 
ATOM     31  C   UNL     1     104.387 127.919 141.374  0.00  0.00    +0.000 A 
ATOM     32  C   UNL     1     103.604 129.394 141.732  0.00  0.00    +0.000 A 
ATOM     33  C   UNL     1     103.823 128.265 140.824  0.00  0.00    +0.000 A 
ATOM     34  C   UNL     1     103.440 129.007 141.022  0.00  0.00    +0.000 A 
ATOM     35  C   UNL     1     102.900 129.334 140.490  0.00  0.00    +0.000 A 
ATOM     36  C   UNL     1     102.690 130.433 141.379  0.00  0.00    +0.000 A 
ATOM     37  C   UNL     1     102.525 130.047 140.668  0.00  0.00    +0.000 A 
BRANCH  36  39
ATOM     38  O   UNL     1     101.189 133.284 142.092  0.00  0.00    +0.000 OA
ATOM     39  C   UNL     1     102.315 131.146 141.557  0.00  0.00    +0.000 A 
ATOM     40  C   UNL     1     102.702 131.861 141.418  0.00  0.00    +0.000 A 
ATOM     41  C   UNL     1     101.553 131.143 141.874  0.00  0.00    +0.000 A 
ATOM     42  C   UNL     1     102.326 132.574 141.597  0.00  0.00    +0.000 A 
ATOM     43  C   UNL     1     101.178 131.856 142.052  0.00  0.00    +0.000 A 
ATOM     44  C   UNL     1     101.565 132.572 141.913  0.00  0.00    +0.000 A 
ENDBRANCH  36  39
ENDBRANCH  25  29
ENDBRANCH   7  25
TORSDOF 7
ENDMDL
MODEL 2
REMARK VINA RESULT:     -10.5      2.891      5.607
REMARK  Name = 74977517
REMARK  7 active torsions:
REMARK  status: ('A' for Active; 'I' for Inactive)
REMARK    1  A    between atoms: O_1  and  C_18
REMARK    2  A    between atoms: O_1  and  C_20
REMARK    3  A    between atoms: O_5  and  C_23
REMARK    4  A    between atoms: O_5  and  C_30
REMARK    5  A    between atoms: C_26  and  C_28
REMARK    6  A    between atoms: C_27  and  C_29
REMARK    7  A    between atoms: C_37  and  C_39
REMARK                            x       y       z     vdW  Elec       q    Type
REMARK                         _______ _______ _______ _____ _____    ______ ____
ROOT
ATOM      1  O   UNL     1     106.161 125.758 143.018  0.00  0.00    +0.000 OA
ATOM      2  O   UNL     1     105.316 127.987 143.683  0.00  0.00    +0.000 OA
ATOM      3  O   UNL     1     105.306 126.744 144.767  0.00  0.00    +0.000 OA
ATOM      4  C   UNL     1     105.884 127.123 142.697  0.00  0.00    +0.000 C 
ATOM      5  C   UNL     1     105.598 127.244 143.462  0.00  0.00    +0.000 C 
ATOM      6  C   UNL     1     105.593 126.623 144.004  0.00  0.00    +0.000 C 
ATOM      7  C   UNL     1     106.166 126.380 142.476  0.00  0.00    +0.000 C 
ATOM      8  C   UNL     1     105.875 125.880 143.782  0.00  0.00    +0.000 C 
ENDROOT
BRANCH   8  11
ATOM      9  O   UNL     1     106.528 125.127 144.806  0.00  0.00    +0.000 OA
ATOM     10  O   UNL     1     105.210 124.767 144.384  0.00  0.00    +0.000 OA
ATOM     11  C   UNL     1     105.870 125.258 144.324  0.00  0.00    +0.000 C 
ENDBRANCH   8  11
BRANCH   4  12
ATOM     12  O   UNL     1     105.889 127.744 142.155  0.00  0.00    +0.000 OA
BRANCH  12  17
ATOM     13  O   UNL     1     107.211 128.111 142.555  0.00  0.00    +0.000 OA
ATOM     14  O   UNL     1     105.737 129.174 141.347  0.00  0.00    +0.000 OA
ATOM     15  O   UNL     1     106.983 130.256 141.343  0.00  0.00    +0.000 OA
ATOM     16  O   UNL     1     108.381 129.908 142.148  0.00  0.00    +0.000 OA
ATOM     17  C   UNL     1     106.512 128.285 142.153  0.00  0.00    +0.000 C 
ATOM     18  C   UNL     1     106.436 129.001 141.749  0.00  0.00    +0.000 C 
ATOM     19  C   UNL     1     107.059 129.542 141.747  0.00  0.00    +0.000 C 
ATOM     20  C   UNL     1     107.758 129.367 142.150  0.00  0.00    +0.000 C 
ATOM     21  C   UNL     1     107.834 128.652 142.553  0.00  0.00    +0.000 C 
BRANCH  21  24
ATOM     22  O   UNL     1     108.628 128.718 143.739  0.00  0.00    +0.000 OA
ATOM     23  O   UNL     1     109.135 128.062 142.576  0.00  0.00    +0.000 OA
ATOM     24  C   UNL     1     108.533 128.477 142.956  0.00  0.00    +0.000 C 
ENDBRANCH  21  24
ENDBRANCH  12  17
ENDBRANCH   4  12
BRANCH   7  25
ATOM     25  O   UNL     1     106.453 126.258 141.712  0.00  0.00    +0.000 OA
BRANCH  25  29
ATOM     26  O   UNL     1     104.763 124.603 140.013  0.00  0.00    +0.000 OA
ATOM     27  O   UNL     1     107.244 123.530 141.034  0.00  0.00    +0.000 OA
ATOM     28  O   UNL     1     106.382 122.739 140.190  0.00  0.00    +0.000 OA
ATOM     29  C   UNL     1     106.308 125.544 141.325  0.00  0.00    +0.000 A 
ATOM     30  C   UNL     1     105.593 125.443 140.859  0.00  0.00    +0.000 A 
ATOM     31  C   UNL     1     106.869 124.897 141.387  0.00  0.00    +0.000 A 
ATOM     32  C   UNL     1     105.451 124.694 140.459  0.00  0.00    +0.000 A 
ATOM     33  C   UNL     1     106.710 124.156 140.981  0.00  0.00    +0.000 A 
ATOM     34  C   UNL     1     105.990 124.073 140.519  0.00  0.00    +0.000 A 
ATOM     35  C   UNL     1     105.843 123.360 140.131  0.00  0.00    +0.000 A 
ATOM     36  C   UNL     1     104.616 123.890 139.625  0.00  0.00    +0.000 A 
ATOM     37  C   UNL     1     105.155 123.268 139.684  0.00  0.00    +0.000 A 
BRANCH  36  39
ATOM     38  O   UNL     1     101.867 123.522 137.837  0.00  0.00    +0.000 OA
ATOM     39  C   UNL     1     103.928 123.798 139.178  0.00  0.00    +0.000 A 
ATOM     40  C   UNL     1     103.221 123.591 139.548  0.00  0.00    +0.000 A 
ATOM     41  C   UNL     1     103.949 123.914 138.362  0.00  0.00    +0.000 A 
ATOM     42  C   UNL     1     102.533 123.499 139.101  0.00  0.00    +0.000 A 
ATOM     43  C   UNL     1     103.261 123.822 137.915  0.00  0.00    +0.000 A 
ATOM     44  C   UNL     1     102.553 123.614 138.284  0.00  0.00    +0.000 A 
ENDBRANCH  36  39
ENDBRANCH  25  29
ENDBRANCH   7  25
TORSDOF 7
ENDMDL
MODEL 3
REMARK VINA RESULT:     -10.4      6.067      9.656
REMARK  Name = 74977517
REMARK  7 active torsions:
REMARK  status: ('A' for Active; 'I' for Inactive)
REMARK    1  A    between atoms: O_1  and  C_18
REMARK    2  A    between atoms: O_1  and  C_20
REMARK    3  A    between atoms: O_5  and  C_23
REMARK    4  A    between atoms: O_5  and  C_30
REMARK    5  A    between atoms: C_26  and  C_28
REMARK    6  A    between atoms: C_27  and  C_29
REMARK    7  A    between atoms: C_37  and  C_39
REMARK                            x       y       z     vdW  Elec       q    Type
REMARK                         _______ _______ _______ _____ _____    ______ ____
ROOT
ATOM      1  O   UNL     1     109.903 129.150 136.784  0.00  0.00    +0.000 OA
ATOM      2  O   UNL     1     108.467 131.094 137.318  0.00  0.00    +0.000 OA
ATOM      3  O   UNL     1     107.934 129.937 136.270  0.00  0.00    +0.000 OA
ATOM      4  C   UNL     1     109.691 130.377 137.487  0.00  0.00    +0.000 C 
ATOM      5  C   UNL     1     108.946 130.446 137.140  0.00  0.00    +0.000 C 
ATOM      6  C   UNL     1     108.679 129.868 136.616  0.00  0.00    +0.000 C 
ATOM      7  C   UNL     1     110.170 129.729 137.309  0.00  0.00    +0.000 C 
ATOM      8  C   UNL     1     109.157 129.220 136.439  0.00  0.00    +0.000 C 
ENDROOT
BRANCH   8  11
ATOM      9  O   UNL     1     108.509 127.968 136.203  0.00  0.00    +0.000 OA
ATOM     10  O   UNL     1     109.005 128.735 135.103  0.00  0.00    +0.000 OA
ATOM     11  C   UNL     1     108.891 128.641 135.915  0.00  0.00    +0.000 C 
ENDBRANCH   8  11
BRANCH   4  12
ATOM     12  O   UNL     1     109.958 130.955 138.011  0.00  0.00    +0.000 OA
BRANCH  12  17
ATOM     13  O   UNL     1     109.309 130.284 139.093  0.00  0.00    +0.000 OA
ATOM     14  O   UNL     1     110.673 131.988 139.080  0.00  0.00    +0.000 OA
ATOM     15  O   UNL     1     110.381 131.834 140.697  0.00  0.00    +0.000 OA
ATOM     16  O   UNL     1     109.374 130.647 141.244  0.00  0.00    +0.000 OA
ATOM     17  C   UNL     1     109.812 130.878 138.819  0.00  0.00    +0.000 C 
ATOM     18  C   UNL     1     110.170 131.395 139.354  0.00  0.00    +0.000 C 
ATOM     19  C   UNL     1     110.024 131.318 140.163  0.00  0.00    +0.000 C 
ATOM     20  C   UNL     1     109.520 130.724 140.436  0.00  0.00    +0.000 C 
ATOM     21  C   UNL     1     109.163 130.208 139.901  0.00  0.00    +0.000 C 
BRANCH  21  24
ATOM     22  O   UNL     1     107.870 129.787 140.339  0.00  0.00    +0.000 OA
ATOM     23  O   UNL     1     108.944 128.848 140.283  0.00  0.00    +0.000 OA
ATOM     24  C   UNL     1     108.659 129.614 140.174  0.00  0.00    +0.000 C 
ENDBRANCH  21  24
ENDBRANCH  12  17
ENDBRANCH   4  12
BRANCH   7  25
ATOM     25  O   UNL     1     110.915 129.658 137.655  0.00  0.00    +0.000 OA
BRANCH  25  29
ATOM     26  O   UNL     1     112.621 127.361 137.115  0.00  0.00    +0.000 OA
ATOM     27  O   UNL     1     113.008 129.805 135.624  0.00  0.00    +0.000 OA
ATOM     28  O   UNL     1     113.834 128.647 135.383  0.00  0.00    +0.000 OA
ATOM     29  C   UNL     1     111.534 129.309 137.235  0.00  0.00    +0.000 A 
ATOM     30  C   UNL     1     111.761 128.496 137.398  0.00  0.00    +0.000 A 
ATOM     31  C   UNL     1     111.955 129.756 136.635  0.00  0.00    +0.000 A 
ATOM     32  C   UNL     1     112.408 128.141 136.955  0.00  0.00    +0.000 A 
ATOM     33  C   UNL     1     112.598 129.383 136.203  0.00  0.00    +0.000 A 
ATOM     34  C   UNL     1     112.812 128.570 136.378  0.00  0.00    +0.000 A 
ATOM     35  C   UNL     1     113.430 128.218 135.960  0.00  0.00    +0.000 A 
ATOM     36  C   UNL     1     113.240 127.009 136.697  0.00  0.00    +0.000 A 
ATOM     37  C   UNL     1     113.644 127.438 136.119  0.00  0.00    +0.000 A 
BRANCH  36  39
ATOM     38  O   UNL     1     114.096 123.887 137.334  0.00  0.00    +0.000 OA
ATOM     39  C   UNL     1     113.454 126.229 136.857  0.00  0.00    +0.000 A 
ATOM     40  C   UNL     1     114.068 126.069 137.384  0.00  0.00    +0.000 A 
ATOM     41  C   UNL     1     113.055 125.608 136.488  0.00  0.00    +0.000 A 
ATOM     42  C   UNL     1     114.282 125.288 137.544  0.00  0.00    +0.000 A 
ATOM     43  C   UNL     1     113.269 124.827 136.648  0.00  0.00    +0.000 A 
ATOM     44  C   UNL     1     113.883 124.667 137.175  0.00  0.00    +0.000 A 
ENDBRANCH  36  39
ENDBRANCH  25  29
ENDBRANCH   7  25
TORSDOF 7
ENDMDL
MODEL 4
REMARK VINA RESULT:     -10.4      6.852     10.281
REMARK  Name = 74977517
REMARK  7 active torsions:
REMARK  status: ('A' for Active; 'I' for Inactive)
REMARK    1  A    between atoms: O_1  and  C_18
REMARK    2  A    between atoms: O_1  and  C_20
REMARK    3  A    between atoms: O_5  and  C_23
REMARK    4  A    between atoms: O_5  and  C_30
REMARK    5  A    between atoms: C_26  and  C_28
REMARK    6  A    between atoms: C_27  and  C_29
REMARK    7  A    between atoms: C_37  and  C_39
REMARK                            x       y       z     vdW  Elec       q    Type
REMARK                         _______ _______ _______ _____ _____    ______ ____
ROOT
ATOM      1  O   UNL     1     112.780 130.068 138.711  0.00  0.00    +0.000 OA
ATOM      2  O   UNL     1     110.859 130.257 140.261  0.00  0.00    +0.000 OA
ATOM      3  O   UNL     1     112.395 130.472 140.821  0.00  0.00    +0.000 OA
ATOM      4  C   UNL     1     111.370 130.023 138.947  0.00  0.00    +0.000 C 
ATOM      5  C   UNL     1     111.499 130.194 139.744  0.00  0.00    +0.000 C 
ATOM      6  C   UNL     1     112.267 130.302 140.025  0.00  0.00    +0.000 C 
ATOM      7  C   UNL     1     112.011 129.960 138.431  0.00  0.00    +0.000 C 
ATOM      8  C   UNL     1     112.907 130.239 139.508  0.00  0.00    +0.000 C 
ENDROOT
BRANCH   8  11
ATOM      9  O   UNL     1     114.083 129.713 140.126  0.00  0.00    +0.000 OA
ATOM     10  O   UNL     1     114.036 131.086 139.731  0.00  0.00    +0.000 OA
ATOM     11  C   UNL     1     113.676 130.346 139.788  0.00  0.00    +0.000 C 
ENDBRANCH   8  11
BRANCH   4  12
ATOM     12  O   UNL     1     110.603 129.916 138.667  0.00  0.00    +0.000 OA
BRANCH  12  17
ATOM     13  O   UNL     1     110.493 131.317 138.408  0.00  0.00    +0.000 OA
ATOM     14  O   UNL     1     109.002 129.726 138.315  0.00  0.00    +0.000 OA
ATOM     15  O   UNL     1     108.092 131.032 137.881  0.00  0.00    +0.000 OA
ATOM     16  O   UNL     1     108.783 132.528 137.798  0.00  0.00    +0.000 OA
ATOM     17  C   UNL     1     110.148 130.569 138.450  0.00  0.00    +0.000 C 
ATOM     18  C   UNL     1     109.347 130.474 138.274  0.00  0.00    +0.000 C 
ATOM     19  C   UNL     1     108.892 131.127 138.057  0.00  0.00    +0.000 C 
ATOM     20  C   UNL     1     109.238 131.875 138.016  0.00  0.00    +0.000 C 
ATOM     21  C   UNL     1     110.038 131.970 138.191  0.00  0.00    +0.000 C 
BRANCH  21  24
ATOM     22  O   UNL     1     110.317 133.239 138.786  0.00  0.00    +0.000 OA
ATOM     23  O   UNL     1     110.797 132.945 137.473  0.00  0.00    +0.000 OA
ATOM     24  C   UNL     1     110.384 132.718 138.150  0.00  0.00    +0.000 C 
ENDBRANCH  21  24
ENDBRANCH  12  17
ENDBRANCH   4  12
BRANCH   7  25
ATOM     25  O   UNL     1     111.883 129.790 137.634  0.00  0.00    +0.000 OA
BRANCH  25  29
ATOM     26  O   UNL     1     112.999 127.166 137.039  0.00  0.00    +0.000 OA
ATOM     27  O   UNL     1     114.054 129.500 135.703  0.00  0.00    +0.000 OA
ATOM     28  O   UNL     1     114.583 128.186 135.433  0.00  0.00    +0.000 OA
ATOM     29  C   UNL     1     112.419 129.317 137.222  0.00  0.00    +0.000 A 
ATOM     30  C   UNL     1     112.431 128.466 137.348  0.00  0.00    +0.000 A 
ATOM     31  C   UNL     1     112.968 129.670 136.665  0.00  0.00    +0.000 A 
ATOM     32  C   UNL     1     112.993 127.981 136.914  0.00  0.00    +0.000 A 
ATOM     33  C   UNL     1     113.523 129.169 136.240  0.00  0.00    +0.000 A 
ATOM     34  C   UNL     1     113.521 128.321 136.379  0.00  0.00    +0.000 A 
ATOM     35  C   UNL     1     114.055 127.846 135.968  0.00  0.00    +0.000 A 
ATOM     36  C   UNL     1     113.534 126.691 136.629  0.00  0.00    +0.000 A 
ATOM     37  C   UNL     1     114.062 127.030 136.093  0.00  0.00    +0.000 A 
BRANCH  36  39
ATOM     38  O   UNL     1     113.563 123.429 137.128  0.00  0.00    +0.000 OA
ATOM     39  C   UNL     1     113.541 125.875 136.754  0.00  0.00    +0.000 A 
ATOM     40  C   UNL     1     112.947 125.403 136.430  0.00  0.00    +0.000 A 
ATOM     41  C   UNL     1     114.142 125.532 137.202  0.00  0.00    +0.000 A 
ATOM     42  C   UNL     1     112.954 124.588 136.555  0.00  0.00    +0.000 A 
ATOM     43  C   UNL     1     114.149 124.716 137.327  0.00  0.00    +0.000 A 
ATOM     44  C   UNL     1     113.555 124.244 137.003  0.00  0.00    +0.000 A 
ENDBRANCH  36  39
ENDBRANCH  25  29
ENDBRANCH   7  25
TORSDOF 7
ENDMDL
MODEL 5
REMARK VINA RESULT:     -10.4      6.377      9.897
REMARK  Name = 74977517
REMARK  7 active torsions:
REMARK  status: ('A' for Active; 'I' for Inactive)
REMARK    1  A    between atoms: O_1  and  C_18
REMARK    2  A    between atoms: O_1  and  C_20
REMARK    3  A    between atoms: O_5  and  C_23
REMARK    4  A    between atoms: O_5  and  C_30
REMARK    5  A    between atoms: C_26  and  C_28
REMARK    6  A    between atoms: C_27  and  C_29
REMARK    7  A    between atoms: C_37  and  C_39
REMARK                            x       y       z     vdW  Elec       q    Type
REMARK                         _______ _______ _______ _____ _____    ______ ____
ROOT
ATOM      1  O   UNL     1     109.593 128.561 136.698  0.00  0.00    +0.000 OA
ATOM      2  O   UNL     1     110.005 130.625 135.395  0.00  0.00    +0.000 OA
ATOM      3  O   UNL     1     109.020 129.449 134.789  0.00  0.00    +0.000 OA
ATOM      4  C   UNL     1     110.223 129.838 136.568  0.00  0.00    +0.000 C 
ATOM      5  C   UNL     1     109.867 129.937 135.830  0.00  0.00    +0.000 C 
ATOM      6  C   UNL     1     109.375 129.350 135.526  0.00  0.00    +0.000 C 
ATOM      7  C   UNL     1     110.086 129.150 137.002  0.00  0.00    +0.000 C 
ATOM      8  C   UNL     1     109.238 128.662 135.961  0.00  0.00    +0.000 C 
ENDROOT
BRANCH   8  11
ATOM      9  O   UNL     1     109.067 127.453 135.217  0.00  0.00    +0.000 OA
ATOM     10  O   UNL     1     107.933 128.104 135.795  0.00  0.00    +0.000 OA
ATOM     11  C   UNL     1     108.746 128.073 135.658  0.00  0.00    +0.000 C 
ENDBRANCH   8  11
BRANCH   4  12
ATOM     12  O   UNL     1     110.715 130.425 136.871  0.00  0.00    +0.000 OA
BRANCH  12  17
ATOM     13  O   UNL     1     109.624 131.047 137.553  0.00  0.00    +0.000 OA
ATOM     14  O   UNL     1     111.592 131.816 137.008  0.00  0.00    +0.000 OA
ATOM     15  O   UNL     1     110.940 133.133 137.759  0.00  0.00    +0.000 OA
ATOM     16  O   UNL     1     109.410 133.058 138.373  0.00  0.00    +0.000 OA
ATOM     17  C   UNL     1     110.389 131.084 137.247  0.00  0.00    +0.000 C 
ATOM     18  C   UNL     1     110.828 131.780 137.315  0.00  0.00    +0.000 C 
ATOM     19  C   UNL     1     110.501 132.438 137.691  0.00  0.00    +0.000 C 
ATOM     20  C   UNL     1     109.736 132.400 137.997  0.00  0.00    +0.000 C 
ATOM     21  C   UNL     1     109.298 131.705 137.929  0.00  0.00    +0.000 C 
BRANCH  21  24
ATOM     22  O   UNL     1     108.405 131.350 138.986  0.00  0.00    +0.000 OA
ATOM     23  O   UNL     1     107.896 131.946 137.793  0.00  0.00    +0.000 OA
ATOM     24  C   UNL     1     108.533 131.667 138.236  0.00  0.00    +0.000 C 
ENDBRANCH  21  24
ENDBRANCH  12  17
ENDBRANCH   4  12
BRANCH   7  25
ATOM     25  O   UNL     1     110.441 129.050 137.740  0.00  0.00    +0.000 OA
BRANCH  25  29
ATOM     26  O   UNL     1     112.266 126.781 137.692  0.00  0.00    +0.000 OA
ATOM     27  O   UNL     1     109.913 126.683 139.367  0.00  0.00    +0.000 OA
ATOM     28  O   UNL     1     110.839 125.578 139.318  0.00  0.00    +0.000 OA
ATOM     29  C   UNL     1     110.651 128.295 137.998  0.00  0.00    +0.000 A 
ATOM     30  C   UNL     1     111.367 127.921 137.704  0.00  0.00    +0.000 A 
ATOM     31  C   UNL     1     110.156 127.878 138.562  0.00  0.00    +0.000 A 
ATOM     32  C   UNL     1     111.578 127.134 137.978  0.00  0.00    +0.000 A 
ATOM     33  C   UNL     1     110.383 127.091 138.825  0.00  0.00    +0.000 A 
ATOM     34  C   UNL     1     111.102 126.733 138.520  0.00  0.00    +0.000 A 
ATOM     35  C   UNL     1     111.314 125.979 138.777  0.00  0.00    +0.000 A 
ATOM     36  C   UNL     1     112.478 126.026 137.949  0.00  0.00    +0.000 A 
ATOM     37  C   UNL     1     112.003 125.624 138.491  0.00  0.00    +0.000 A 
BRANCH  36  39
ATOM     38  O   UNL     1     115.232 124.610 136.807  0.00  0.00    +0.000 OA
ATOM     39  C   UNL     1     113.167 125.672 137.663  0.00  0.00    +0.000 A 
ATOM     40  C   UNL     1     113.159 125.282 136.936  0.00  0.00    +0.000 A 
ATOM     41  C   UNL     1     113.863 125.708 138.104  0.00  0.00    +0.000 A 
ATOM     42  C   UNL     1     113.847 124.927 136.651  0.00  0.00    +0.000 A 
ATOM     43  C   UNL     1     114.551 125.354 137.819  0.00  0.00    +0.000 A 
ATOM     44  C   UNL     1     114.543 124.964 137.092  0.00  0.00    +0.000 A 
ENDBRANCH  36  39
ENDBRANCH  25  29
ENDBRANCH   7  25
TORSDOF 7
ENDMDL
MODEL 6
REMARK VINA RESULT:     -10.4      3.447      5.983
REMARK  Name = 74977517
REMARK  7 active torsions:
REMARK  status: ('A' for Active; 'I' for Inactive)
REMARK    1  A    between atoms: O_1  and  C_18
REMARK    2  A    between atoms: O_1  and  C_20
REMARK    3  A    between atoms: O_5  and  C_23
REMARK    4  A    between atoms: O_5  and  C_30
REMARK    5  A    between atoms: C_26  and  C_28
REMARK    6  A    between atoms: C_27  and  C_29
REMARK    7  A    between atoms: C_37  and  C_39
REMARK                            x       y       z     vdW  Elec       q    Type
REMARK                         _______ _______ _______ _____ _____    ______ ____
ROOT
ATOM      1  O   UNL     1     106.415 126.652 141.279  0.00  0.00    +0.000 OA
ATOM      2  O   UNL     1     108.406 127.389 142.550  0.00  0.00    +0.000 OA
ATOM      3  O   UNL     1     106.977 128.195 142.716  0.00  0.00    +0.000 OA
ATOM      4  C   UNL     1     107.794 126.494 141.620  0.00  0.00    +0.000 C 
ATOM      5  C   UNL     1     107.742 127.143 142.126  0.00  0.00    +0.000 C 
ATOM      6  C   UNL     1     107.028 127.546 142.210  0.00  0.00    +0.000 C 
ATOM      7  C   UNL     1     107.130 126.248 141.196  0.00  0.00    +0.000 C 
ATOM      8  C   UNL     1     106.364 127.301 141.786  0.00  0.00    +0.000 C 
ENDROOT
BRANCH   8  11
ATOM      9  O   UNL     1     105.472 128.336 141.368  0.00  0.00    +0.000 OA
ATOM     10  O   UNL     1     105.111 127.474 142.450  0.00  0.00    +0.000 OA
ATOM     11  C   UNL     1     105.649 127.703 141.868  0.00  0.00    +0.000 C 
ENDBRANCH   8  11
BRANCH   4  12
ATOM     12  O   UNL     1     108.508 126.091 141.536  0.00  0.00    +0.000 OA
BRANCH  12  17
ATOM     13  O   UNL     1     108.906 126.951 140.467  0.00  0.00    +0.000 OA
ATOM     14  O   UNL     1     110.067 125.573 141.698  0.00  0.00    +0.000 OA
ATOM     15  O   UNL     1     111.243 126.174 140.709  0.00  0.00    +0.000 OA
ATOM     16  O   UNL     1     110.860 127.294 139.558  0.00  0.00    +0.000 OA
ATOM     17  C   UNL     1     109.096 126.392 141.042  0.00  0.00    +0.000 C 
ATOM     18  C   UNL     1     109.876 126.133 141.122  0.00  0.00    +0.000 C 
ATOM     19  C   UNL     1     110.464 126.433 140.628  0.00  0.00    +0.000 C 
ATOM     20  C   UNL     1     110.272 126.993 140.053  0.00  0.00    +0.000 C 
ATOM     21  C   UNL     1     109.494 127.252 139.972  0.00  0.00    +0.000 C 
BRANCH  21  24
ATOM     22  O   UNL     1     109.122 127.569 138.629  0.00  0.00    +0.000 OA
ATOM     23  O   UNL     1     109.290 128.614 139.589  0.00  0.00    +0.000 OA
ATOM     24  C   UNL     1     109.302 127.812 139.397  0.00  0.00    +0.000 C 
ENDBRANCH  21  24
ENDBRANCH  12  17
ENDBRANCH   4  12
BRANCH   7  25
ATOM     25  O   UNL     1     107.181 125.600 140.689  0.00  0.00    +0.000 OA
BRANCH  25  29
ATOM     26  O   UNL     1     104.960 124.309 139.316  0.00  0.00    +0.000 OA
ATOM     27  O   UNL     1     105.692 123.442 141.973  0.00  0.00    +0.000 OA
ATOM     28  O   UNL     1     104.598 122.825 141.264  0.00  0.00    +0.000 OA
ATOM     29  C   UNL     1     106.577 125.038 140.676  0.00  0.00    +0.000 A 
ATOM     30  C   UNL     1     106.070 124.964 139.986  0.00  0.00    +0.000 A 
ATOM     31  C   UNL     1     106.451 124.523 141.352  0.00  0.00    +0.000 A 
ATOM     32  C   UNL     1     105.443 124.375 139.981  0.00  0.00    +0.000 A 
ATOM     33  C   UNL     1     105.820 123.940 141.329  0.00  0.00    +0.000 A 
ATOM     34  C   UNL     1     105.323 123.880 140.631  0.00  0.00    +0.000 A 
ATOM     35  C   UNL     1     104.718 123.319 140.615  0.00  0.00    +0.000 A 
ATOM     36  C   UNL     1     104.356 123.748 139.301  0.00  0.00    +0.000 A 
ATOM     37  C   UNL     1     104.234 123.252 139.950  0.00  0.00    +0.000 A 
BRANCH  36  39
ATOM     38  O   UNL     1     102.421 123.480 136.641  0.00  0.00    +0.000 OA
ATOM     39  C   UNL     1     103.872 123.681 138.636  0.00  0.00    +0.000 A 
ATOM     40  C   UNL     1     103.071 123.874 138.687  0.00  0.00    +0.000 A 
ATOM     41  C   UNL     1     104.189 123.421 137.920  0.00  0.00    +0.000 A 
ATOM     42  C   UNL     1     102.587 123.807 138.022  0.00  0.00    +0.000 A 
ATOM     43  C   UNL     1     103.705 123.354 137.255  0.00  0.00    +0.000 A 
ATOM     44  C   UNL     1     102.904 123.547 137.306  0.00  0.00    +0.000 A 
ENDBRANCH  36  39
ENDBRANCH  25  29
ENDBRANCH   7  25
TORSDOF 7
ENDMDL
MODEL 7
REMARK VINA RESULT:     -10.3      3.392      6.092
REMARK  Name = 74977517
REMARK  7 active torsions:
REMARK  status: ('A' for Active; 'I' for Inactive)
REMARK    1  A    between atoms: O_1  and  C_18
REMARK    2  A    between atoms: O_1  and  C_20
REMARK    3  A    between atoms: O_5  and  C_23
REMARK    4  A    between atoms: O_5  and  C_30
REMARK    5  A    between atoms: C_26  and  C_28
REMARK    6  A    between atoms: C_27  and  C_29
REMARK    7  A    between atoms: C_37  and  C_39
REMARK                            x       y       z     vdW  Elec       q    Type
REMARK                         _______ _______ _______ _____ _____    ______ ____
ROOT
ATOM      1  O   UNL     1     107.006 126.259 142.072  0.00  0.00    +0.000 OA
ATOM      2  O   UNL     1     107.456 124.160 140.840  0.00  0.00    +0.000 OA
ATOM      3  O   UNL     1     108.534 125.406 140.769  0.00  0.00    +0.000 OA
ATOM      4  C   UNL     1     106.616 124.936 141.697  0.00  0.00    +0.000 C 
ATOM      5  C   UNL     1     107.306 124.860 141.251  0.00  0.00    +0.000 C 
ATOM      6  C   UNL     1     107.845 125.482 141.215  0.00  0.00    +0.000 C 
ATOM      7  C   UNL     1     106.466 125.635 142.108  0.00  0.00    +0.000 C 
ATOM      8  C   UNL     1     107.696 126.182 141.626  0.00  0.00    +0.000 C 
ENDROOT
BRANCH   8  11
ATOM      9  O   UNL     1     108.848 126.851 142.142  0.00  0.00    +0.000 OA
ATOM     10  O   UNL     1     108.162 127.381 141.005  0.00  0.00    +0.000 OA
ATOM     11  C   UNL     1     108.235 126.805 141.591  0.00  0.00    +0.000 C 
ENDBRANCH   8  11
BRANCH   4  12
ATOM     12  O   UNL     1     106.077 124.313 141.733  0.00  0.00    +0.000 OA
BRANCH  12  17
ATOM     13  O   UNL     1     105.456 124.774 140.531  0.00  0.00    +0.000 OA
ATOM     14  O   UNL     1     105.138 122.957 141.698  0.00  0.00    +0.000 OA
ATOM     15  O   UNL     1     104.047 122.740 140.478  0.00  0.00    +0.000 OA
ATOM     16  O   UNL     1     103.897 123.878 139.294  0.00  0.00    +0.000 OA
ATOM     17  C   UNL     1     105.532 124.205 141.123  0.00  0.00    +0.000 C 
ATOM     18  C   UNL     1     105.062 123.526 141.105  0.00  0.00    +0.000 C 
ATOM     19  C   UNL     1     104.517 123.417 140.496  0.00  0.00    +0.000 C 
ATOM     20  C   UNL     1     104.442 123.987 139.904  0.00  0.00    +0.000 C 
ATOM     21  C   UNL     1     104.911 124.665 139.921  0.00  0.00    +0.000 C 
BRANCH  21  24
ATOM     22  O   UNL     1     104.332 125.879 139.439  0.00  0.00    +0.000 OA
ATOM     23  O   UNL     1     105.263 125.161 138.628  0.00  0.00    +0.000 OA
ATOM     24  C   UNL     1     104.836 125.235 139.329  0.00  0.00    +0.000 C 
ENDBRANCH  21  24
ENDBRANCH  12  17
ENDBRANCH   4  12
BRANCH   7  25
ATOM     25  O   UNL     1     105.777 125.713 142.554  0.00  0.00    +0.000 OA
BRANCH  25  29
ATOM     26  O   UNL     1     106.382 125.668 145.403  0.00  0.00    +0.000 OA
ATOM     27  O   UNL     1     105.315 128.073 144.210  0.00  0.00    +0.000 OA
ATOM     28  O   UNL     1     105.626 128.015 145.617  0.00  0.00    +0.000 OA
ATOM     29  C   UNL     1     105.800 126.091 143.287  0.00  0.00    +0.000 A 
ATOM     30  C   UNL     1     106.086 125.672 143.981  0.00  0.00    +0.000 A 
ATOM     31  C   UNL     1     105.538 126.905 143.361  0.00  0.00    +0.000 A 
ATOM     32  C   UNL     1     106.106 126.075 144.741  0.00  0.00    +0.000 A 
ATOM     33  C   UNL     1     105.565 127.291 144.129  0.00  0.00    +0.000 A 
ATOM     34  C   UNL     1     105.854 126.857 144.812  0.00  0.00    +0.000 A 
ATOM     35  C   UNL     1     105.878 127.233 145.546  0.00  0.00    +0.000 A 
ATOM     36  C   UNL     1     106.406 126.043 146.137  0.00  0.00    +0.000 A 
ATOM     37  C   UNL     1     106.154 126.826 146.209  0.00  0.00    +0.000 A 
BRANCH  36  39
ATOM     38  O   UNL     1     107.510 124.418 148.788  0.00  0.00    +0.000 OA
ATOM     39  C   UNL     1     106.682 125.637 146.799  0.00  0.00    +0.000 A 
ATOM     40  C   UNL     1     106.165 125.170 147.242  0.00  0.00    +0.000 A 
ATOM     41  C   UNL     1     107.474 125.697 147.020  0.00  0.00    +0.000 A 
ATOM     42  C   UNL     1     106.441 124.763 147.905  0.00  0.00    +0.000 A 
ATOM     43  C   UNL     1     107.750 125.290 147.683  0.00  0.00    +0.000 A 
ATOM     44  C   UNL     1     107.233 124.824 148.125  0.00  0.00    +0.000 A 
ENDBRANCH  36  39
ENDBRANCH  25  29
ENDBRANCH   7  25
TORSDOF 7
ENDMDL
MODEL 8
REMARK VINA RESULT:     -10.2      6.150      8.270
REMARK  Name = 74977517
REMARK  7 active torsions:
REMARK  status: ('A' for Active; 'I' for Inactive)
REMARK    1  A    between atoms: O_1  and  C_18
REMARK    2  A    between atoms: O_1  and  C_20
REMARK    3  A    between atoms: O_5  and  C_23
REMARK    4  A    between atoms: O_5  and  C_30
REMARK    5  A    between atoms: C_26  and  C_28
REMARK    6  A    between atoms: C_27  and  C_29
REMARK    7  A    between atoms: C_37  and  C_39
REMARK                            x       y       z     vdW  Elec       q    Type
REMARK                         _______ _______ _______ _____ _____    ______ ____
ROOT
ATOM      1  O   UNL     1     109.955 126.746 138.345  0.00  0.00    +0.000 OA
ATOM      2  O   UNL     1     111.995 125.991 139.527  0.00  0.00    +0.000 OA
ATOM      3  O   UNL     1     110.524 125.876 140.264  0.00  0.00    +0.000 OA
ATOM      4  C   UNL     1     111.371 126.552 138.370  0.00  0.00    +0.000 C 
ATOM      5  C   UNL     1     111.315 126.243 139.133  0.00  0.00    +0.000 C 
ATOM      6  C   UNL     1     110.580 126.185 139.502  0.00  0.00    +0.000 C 
ATOM      7  C   UNL     1     110.691 126.803 137.976  0.00  0.00    +0.000 C 
ATOM      8  C   UNL     1     109.900 126.436 139.108  0.00  0.00    +0.000 C 
ENDROOT
BRANCH   8  11
ATOM      9  O   UNL     1     108.680 125.726 139.329  0.00  0.00    +0.000 OA
ATOM     10  O   UNL     1     108.912 126.972 139.990  0.00  0.00    +0.000 OA
ATOM     11  C   UNL     1     109.164 126.379 139.476  0.00  0.00    +0.000 C 
ENDBRANCH   8  11
BRANCH   4  12
ATOM     12  O   UNL     1     112.106 126.610 138.002  0.00  0.00    +0.000 OA
BRANCH  12  17
ATOM     13  O   UNL     1     111.963 125.313 137.419  0.00  0.00    +0.000 OA
ATOM     14  O   UNL     1     113.733 126.550 137.732  0.00  0.00    +0.000 OA
ATOM     15  O   UNL     1     114.403 125.224 137.015  0.00  0.00    +0.000 OA
ATOM     16  O   UNL     1     113.445 123.957 136.567  0.00  0.00    +0.000 OA
ATOM     17  C   UNL     1     112.441 125.947 137.643  0.00  0.00    +0.000 C 
ATOM     18  C   UNL     1     113.255 125.917 137.508  0.00  0.00    +0.000 C 
ATOM     19  C   UNL     1     113.590 125.253 137.149  0.00  0.00    +0.000 C 
ATOM     20  C   UNL     1     113.111 124.620 136.926  0.00  0.00    +0.000 C 
ATOM     21  C   UNL     1     112.298 124.650 137.060  0.00  0.00    +0.000 C 
BRANCH  21  24
ATOM     22  O   UNL     1     111.452 124.018 136.097  0.00  0.00    +0.000 OA
ATOM     23  O   UNL     1     111.706 123.382 137.350  0.00  0.00    +0.000 OA
ATOM     24  C   UNL     1     111.819 124.016 136.836  0.00  0.00    +0.000 C 
ENDBRANCH  21  24
ENDBRANCH  12  17
ENDBRANCH   4  12
BRANCH   7  25
ATOM     25  O   UNL     1     110.747 127.113 137.214  0.00  0.00    +0.000 OA
BRANCH  25  29
ATOM     26  O   UNL     1     110.100 129.952 137.254  0.00  0.00    +0.000 OA
ATOM     27  O   UNL     1     108.415 128.127 135.779  0.00  0.00    +0.000 OA
ATOM     28  O   UNL     1     108.125 129.540 135.821  0.00  0.00    +0.000 OA
ATOM     29  C   UNL     1     110.261 127.739 136.986  0.00  0.00    +0.000 A 
ATOM     30  C   UNL     1     110.438 128.540 137.245  0.00  0.00    +0.000 A 
ATOM     31  C   UNL     1     109.576 127.596 136.489  0.00  0.00    +0.000 A 
ATOM     32  C   UNL     1     109.925 129.186 137.003  0.00  0.00    +0.000 A 
ATOM     33  C   UNL     1     109.075 128.256 136.256  0.00  0.00    +0.000 A 
ATOM     34  C   UNL     1     109.267 129.049 136.525  0.00  0.00    +0.000 A 
ATOM     35  C   UNL     1     108.783 129.677 136.299  0.00  0.00    +0.000 A 
ATOM     36  C   UNL     1     109.616 130.580 137.028  0.00  0.00    +0.000 A 
ATOM     37  C   UNL     1     108.957 130.444 136.550  0.00  0.00    +0.000 A 
BRANCH  36  39
ATOM     38  O   UNL     1     110.312 133.645 138.035  0.00  0.00    +0.000 OA
ATOM     39  C   UNL     1     109.790 131.347 137.280  0.00  0.00    +0.000 A 
ATOM     40  C   UNL     1     110.305 131.818 136.840  0.00  0.00    +0.000 A 
ATOM     41  C   UNL     1     109.449 131.642 137.971  0.00  0.00    +0.000 A 
ATOM     42  C   UNL     1     110.480 132.584 137.092  0.00  0.00    +0.000 A 
ATOM     43  C   UNL     1     109.624 132.408 138.222  0.00  0.00    +0.000 A 
ATOM     44  C   UNL     1     110.139 132.879 137.783  0.00  0.00    +0.000 A 
ENDBRANCH  36  39
ENDBRANCH  25  29
ENDBRANCH   7  25
TORSDOF 7
ENDMDL
MODEL 9
REMARK VINA RESULT:     -10.0      6.893      9.940
REMARK  Name = 74977517
REMARK  7 active torsions:
REMARK  status: ('A' for Active; 'I' for Inactive)
REMARK    1  A    between atoms: O_1  and  C_18
REMARK    2  A    between atoms: O_1  and  C_20
REMARK    3  A    between atoms: O_5  and  C_23
REMARK    4  A    between atoms: O_5  and  C_30
REMARK    5  A    between atoms: C_26  and  C_28
REMARK    6  A    between atoms: C_27  and  C_29
REMARK    7  A    between atoms: C_37  and  C_39
REMARK                            x       y       z     vdW  Elec       q    Type
REMARK                         _______ _______ _______ _____ _____    ______ ____
ROOT
ATOM      1  O   UNL     1     112.055 129.914 137.362  0.00  0.00    +0.000 OA
ATOM      2  O   UNL     1     111.282 132.254 137.588  0.00  0.00    +0.000 OA
ATOM      3  O   UNL     1     112.682 131.922 136.782  0.00  0.00    +0.000 OA
ATOM      4  C   UNL     1     111.096 130.860 137.841  0.00  0.00    +0.000 C 
ATOM      5  C   UNL     1     111.539 131.474 137.513  0.00  0.00    +0.000 C 
ATOM      6  C   UNL     1     112.239 131.309 137.110  0.00  0.00    +0.000 C 
ATOM      7  C   UNL     1     111.354 130.080 137.766  0.00  0.00    +0.000 C 
ATOM      8  C   UNL     1     112.497 130.529 137.035  0.00  0.00    +0.000 C 
ENDROOT
BRANCH   8  11
ATOM      9  O   UNL     1     113.174 130.154 135.833  0.00  0.00    +0.000 OA
ATOM     10  O   UNL     1     113.921 130.403 137.026  0.00  0.00    +0.000 OA
ATOM     11  C   UNL     1     113.197 130.362 136.632  0.00  0.00    +0.000 C 
ENDBRANCH   8  11
BRANCH   4  12
ATOM     12  O   UNL     1     110.396 131.026 138.244  0.00  0.00    +0.000 OA
BRANCH  12  17
ATOM     13  O   UNL     1     109.621 130.868 137.054  0.00  0.00    +0.000 OA
ATOM     14  O   UNL     1     109.157 131.864 138.939  0.00  0.00    +0.000 OA
ATOM     15  O   UNL     1     107.762 132.125 138.097  0.00  0.00    +0.000 OA
ATOM     16  O   UNL     1     107.607 131.548 136.559  0.00  0.00    +0.000 OA
ATOM     17  C   UNL     1     109.699 131.156 137.822  0.00  0.00    +0.000 C 
ATOM     18  C   UNL     1     109.079 131.576 138.170  0.00  0.00    +0.000 C 
ATOM     19  C   UNL     1     108.382 131.706 137.749  0.00  0.00    +0.000 C 
ATOM     20  C   UNL     1     108.305 131.417 136.980  0.00  0.00    +0.000 C 
ATOM     21  C   UNL     1     108.924 130.999 136.632  0.00  0.00    +0.000 C 
BRANCH  21  24
ATOM     22  O   UNL     1     108.513 129.966 135.734  0.00  0.00    +0.000 OA
ATOM     23  O   UNL     1     109.103 131.163 135.224  0.00  0.00    +0.000 OA
ATOM     24  C   UNL     1     108.847 130.710 135.863  0.00  0.00    +0.000 C 
ENDBRANCH  21  24
ENDBRANCH  12  17
ENDBRANCH   4  12
BRANCH   7  25
ATOM     25  O   UNL     1     110.912 129.466 138.094  0.00  0.00    +0.000 OA
BRANCH  25  29
ATOM     26  O   UNL     1     111.828 126.711 137.865  0.00  0.00    +0.000 OA
ATOM     27  O   UNL     1     112.337 128.185 140.297  0.00  0.00    +0.000 OA
ATOM     28  O   UNL     1     112.775 126.819 140.149  0.00  0.00    +0.000 OA
ATOM     29  C   UNL     1     111.294 128.809 138.416  0.00  0.00    +0.000 A 
ATOM     30  C   UNL     1     111.364 128.084 137.961  0.00  0.00    +0.000 A 
ATOM     31  C   UNL     1     111.622 128.847 139.209  0.00  0.00    +0.000 A 
ATOM     32  C   UNL     1     111.763 127.404 138.306  0.00  0.00    +0.000 A 
ATOM     33  C   UNL     1     112.018 128.157 139.537  0.00  0.00    +0.000 A 
ATOM     34  C   UNL     1     112.079 127.441 139.067  0.00  0.00    +0.000 A 
ATOM     35  C   UNL     1     112.460 126.782 139.388  0.00  0.00    +0.000 A 
ATOM     36  C   UNL     1     112.208 126.053 138.185  0.00  0.00    +0.000 A 
ATOM     37  C   UNL     1     112.525 126.088 138.947  0.00  0.00    +0.000 A 
BRANCH  36  39
ATOM     38  O   UNL     1     112.469 123.276 136.421  0.00  0.00    +0.000 OA
ATOM     39  C   UNL     1     112.273 125.359 137.744  0.00  0.00    +0.000 A 
ATOM     40  C   UNL     1     111.628 124.848 137.681  0.00  0.00    +0.000 A 
ATOM     41  C   UNL     1     112.983 125.175 137.366  0.00  0.00    +0.000 A 
ATOM     42  C   UNL     1     111.693 124.154 137.240  0.00  0.00    +0.000 A 
ATOM     43  C   UNL     1     113.048 124.480 136.925  0.00  0.00    +0.000 A 
ATOM     44  C   UNL     1     112.403 123.970 136.862  0.00  0.00    +0.000 A 
ENDBRANCH  36  39
ENDBRANCH  25  29
ENDBRANCH   7  25
TORSDOF 7
ENDMDL
MODEL 10
REMARK VINA RESULT:      -9.9      7.421      9.783
REMARK  Name = 74977517
REMARK  7 active torsions:
REMARK  status: ('A' for Active; 'I' for Inactive)
REMARK    1  A    between atoms: O_1  and  C_18
REMARK    2  A    between atoms: O_1  and  C_20
REMARK    3  A    between atoms: O_5  and  C_23
REMARK    4  A    between atoms: O_5  and  C_30
REMARK    5  A    between atoms: C_26  and  C_28
REMARK    6  A    between atoms: C_27  and  C_29
REMARK    7  A    between atoms: C_37  and  C_39
REMARK                            x       y       z     vdW  Elec       q    Type
REMARK                         _______ _______ _______ _____ _____    ______ ____
ROOT
ATOM      1  O   UNL     1     112.321 126.517 137.673  0.00  0.00    +0.000 OA
ATOM      2  O   UNL     1     110.821 125.583 135.940  0.00  0.00    +0.000 OA
ATOM      3  O   UNL     1     112.411 125.149 135.975  0.00  0.00    +0.000 OA
ATOM      4  C   UNL     1     111.024 126.423 137.077  0.00  0.00    +0.000 C 
ATOM      5  C   UNL     1     111.321 125.895 136.517  0.00  0.00    +0.000 C 
ATOM      6  C   UNL     1     112.116 125.677 136.535  0.00  0.00    +0.000 C 
ATOM      7  C   UNL     1     111.524 126.735 137.655  0.00  0.00    +0.000 C 
ATOM      8  C   UNL     1     112.616 125.989 137.112  0.00  0.00    +0.000 C 
ENDROOT
BRANCH   8  11
ATOM      9  O   UNL     1     113.972 126.228 136.730  0.00  0.00    +0.000 OA
ATOM     10  O   UNL     1     113.647 125.101 137.548  0.00  0.00    +0.000 OA
ATOM     11  C   UNL     1     113.411 125.772 137.130  0.00  0.00    +0.000 C 
ENDBRANCH   8  11
BRANCH   4  12
ATOM     12  O   UNL     1     110.229 126.641 137.060  0.00  0.00    +0.000 OA
BRANCH  12  17
ATOM     13  O   UNL     1     110.535 127.743 136.204  0.00  0.00    +0.000 OA
ATOM     14  O   UNL     1     108.619 126.885 136.799  0.00  0.00    +0.000 OA
ATOM     15  O   UNL     1     108.120 128.111 135.813  0.00  0.00    +0.000 OA
ATOM     16  O   UNL     1     109.231 129.091 135.088  0.00  0.00    +0.000 OA
ATOM     17  C   UNL     1     109.980 127.253 136.567  0.00  0.00    +0.000 C 
ATOM     18  C   UNL     1     109.174 127.376 136.436  0.00  0.00    +0.000 C 
ATOM     19  C   UNL     1     108.924 127.988 135.943  0.00  0.00    +0.000 C 
ATOM     20  C   UNL     1     109.481 128.478 135.581  0.00  0.00    +0.000 C 
ATOM     21  C   UNL     1     110.286 128.356 135.711  0.00  0.00    +0.000 C 
BRANCH  21  24
ATOM     22  O   UNL     1     111.088 129.538 135.724  0.00  0.00    +0.000 OA
ATOM     23  O   UNL     1     111.153 128.644 134.612  0.00  0.00    +0.000 OA
ATOM     24  C   UNL     1     110.842 128.846 135.349  0.00  0.00    +0.000 C 
ENDBRANCH  21  24
ENDBRANCH  12  17
ENDBRANCH   4  12
BRANCH   7  25
ATOM     25  O   UNL     1     111.229 127.263 138.215  0.00  0.00    +0.000 OA
BRANCH  25  29
ATOM     26  O   UNL     1     112.985 128.833 139.929  0.00  0.00    +0.000 OA
ATOM     27  O   UNL     1     111.896 126.341 140.904  0.00  0.00    +0.000 OA
ATOM     28  O   UNL     1     112.769 127.143 141.725  0.00  0.00    +0.000 OA
ATOM     29  C   UNL     1     111.623 127.367 138.933  0.00  0.00    +0.000 A 
ATOM     30  C   UNL     1     112.111 128.063 139.061  0.00  0.00    +0.000 A 
ATOM     31  C   UNL     1     111.548 126.781 139.556  0.00  0.00    +0.000 A 
ATOM     32  C   UNL     1     112.518 128.163 139.812  0.00  0.00    +0.000 A 
ATOM     33  C   UNL     1     111.963 126.898 140.300  0.00  0.00    +0.000 A 
ATOM     34  C   UNL     1     112.446 127.600 140.410  0.00  0.00    +0.000 A 
ATOM     35  C   UNL     1     112.841 127.706 141.127  0.00  0.00    +0.000 A 
ATOM     36  C   UNL     1     113.380 128.939 140.645  0.00  0.00    +0.000 A 
ATOM     37  C   UNL     1     113.308 128.376 141.244  0.00  0.00    +0.000 A 
BRANCH  36  39
ATOM     38  O   UNL     1     115.249 131.618 141.116  0.00  0.00    +0.000 OA
ATOM     39  C   UNL     1     113.847 129.609 140.763  0.00  0.00    +0.000 A 
ATOM     40  C   UNL     1     113.562 130.237 141.216  0.00  0.00    +0.000 A 
ATOM     41  C   UNL     1     114.600 129.651 140.427  0.00  0.00    +0.000 A 
ATOM     42  C   UNL     1     114.029 130.906 141.334  0.00  0.00    +0.000 A 
ATOM     43  C   UNL     1     115.067 130.321 140.545  0.00  0.00    +0.000 A 
ATOM     44  C   UNL     1     114.781 130.949 140.999  0.00  0.00    +0.000 A 
ENDBRANCH  36  39
ENDBRANCH  25  29
ENDBRANCH   7  25
TORSDOF 7
ENDMDL
