MODEL 1
REMARK VINA RESULT:     -10.5      0.000      0.000
REMARK  Name = 42607853
REMARK  5 active torsions:
REMARK  status: ('A' for Active; 'I' for Inactive)
REMARK    1  A    between atoms: O_1  and  C_13
REMARK    2  A    between atoms: O_1  and  C_16
REMARK    3  A    between atoms: O_4  and  C_18
REMARK    4  A    between atoms: O_4  and  C_23
REMARK    5  A    between atoms: C_28  and  C_33
REMARK                            x       y       z     vdW  Elec       q    Type
REMARK                         _______ _______ _______ _____ _____    ______ ____
ROOT
ATOM      1  O   UNL     1     109.343 127.119 135.505  0.00  0.00    +0.000 OA
ENDROOT
BRANCH   1   5
ATOM      2  O   UNL     1     111.309 126.619 137.550  0.00  0.00    +0.000 OA
ATOM      3  O   UNL     1     110.836 124.682 135.451  0.00  0.00    +0.000 OA
ATOM      4  O   UNL     1     111.830 124.394 136.457  0.00  0.00    +0.000 OA
ATOM      5  C   UNL     1     109.918 126.626 135.832  0.00  0.00    +0.000 A 
ATOM      6  C   UNL     1     110.090 125.900 135.478  0.00  0.00    +0.000 A 
ATOM      7  C   UNL     1     110.321 126.858 136.513  0.00  0.00    +0.000 A 
ATOM      8  C   UNL     1     110.896 126.365 136.841  0.00  0.00    +0.000 A 
ATOM      9  C   UNL     1     111.068 125.639 136.486  0.00  0.00    +0.000 A 
ATOM     10  C   UNL     1     111.910 126.110 137.896  0.00  0.00    +0.000 C 
ATOM     11  C   UNL     1     112.089 125.354 137.527  0.00  0.00    +0.000 C 
ATOM     12  C   UNL     1     110.664 125.408 135.805  0.00  0.00    +0.000 A 
ATOM     13  C   UNL     1     111.665 125.117 136.817  0.00  0.00    +0.000 C 
ATOM     14  C   UNL     1     109.686 125.668 134.797  0.00  0.00    +0.000 C 
BRANCH  10  15
ATOM     15  C   UNL     1     112.312 126.344 138.577  0.00  0.00    +0.000 A 
ATOM     16  C   UNL     1     113.091 126.611 138.525  0.00  0.00    +0.000 A 
ATOM     17  C   UNL     1     111.934 126.313 139.310  0.00  0.00    +0.000 A 
ATOM     18  C   UNL     1     113.493 126.846 139.206  0.00  0.00    +0.000 A 
ATOM     19  C   UNL     1     112.335 126.547 139.991  0.00  0.00    +0.000 A 
ATOM     20  C   UNL     1     113.115 126.814 139.939  0.00  0.00    +0.000 A 
ENDBRANCH  10  15
ENDBRANCH   1   5
BRANCH   1  27
ATOM     21  O   UNL     1     110.256 128.070 134.954  0.00  0.00    +0.000 OA
ATOM     22  O   UNL     1     108.268 128.332 135.817  0.00  0.00    +0.000 OA
ATOM     23  O   UNL     1     110.096 130.233 134.715  0.00  0.00    +0.000 OA
ATOM     24  C   UNL     1     109.181 129.282 135.266  0.00  0.00    +0.000 C 
ATOM     25  C   UNL     1     108.993 128.504 135.463  0.00  0.00    +0.000 C 
ATOM     26  C   UNL     1     109.907 129.455 134.913  0.00  0.00    +0.000 C 
ATOM     27  C   UNL     1     109.531 127.897 135.307  0.00  0.00    +0.000 C 
ATOM     28  C   UNL     1     110.444 128.848 134.757  0.00  0.00    +0.000 C 
BRANCH  24  29
ATOM     29  O   UNL     1     108.645 129.889 135.422  0.00  0.00    +0.000 OA
BRANCH  29  34
ATOM     30  O   UNL     1     109.252 130.100 136.697  0.00  0.00    +0.000 OA
ATOM     31  O   UNL     1     107.600 131.132 135.713  0.00  0.00    +0.000 OA
ATOM     32  O   UNL     1     107.684 131.965 137.135  0.00  0.00    +0.000 OA
ATOM     33  O   UNL     1     108.814 131.555 138.266  0.00  0.00    +0.000 OA
ATOM     34  C   UNL     1     108.687 130.305 136.133  0.00  0.00    +0.000 C 
ATOM     35  C   UNL     1     108.164 130.927 136.278  0.00  0.00    +0.000 C 
ATOM     36  C   UNL     1     108.207 131.344 136.990  0.00  0.00    +0.000 C 
ATOM     37  C   UNL     1     108.772 131.138 137.555  0.00  0.00    +0.000 C 
ATOM     38  C   UNL     1     109.294 130.517 137.409  0.00  0.00    +0.000 C 
ENDBRANCH  29  34
ENDBRANCH  24  29
ENDBRANCH   1  27
TORSDOF 5
ENDMDL
MODEL 2
REMARK VINA RESULT:     -10.1      2.261      4.157
REMARK  Name = 42607853
REMARK  5 active torsions:
REMARK  status: ('A' for Active; 'I' for Inactive)
REMARK    1  A    between atoms: O_1  and  C_13
REMARK    2  A    between atoms: O_1  and  C_16
REMARK    3  A    between atoms: O_4  and  C_18
REMARK    4  A    between atoms: O_4  and  C_23
REMARK    5  A    between atoms: C_28  and  C_33
REMARK                            x       y       z     vdW  Elec       q    Type
REMARK                         _______ _______ _______ _____ _____    ______ ____
ROOT
ATOM      1  O   UNL     1     112.747 127.813 139.502  0.00  0.00    +0.000 OA
ENDROOT
BRANCH   1   5
ATOM      2  O   UNL     1     111.712 126.673 137.066  0.00  0.00    +0.000 OA
ATOM      3  O   UNL     1     114.059 125.556 138.339  0.00  0.00    +0.000 OA
ATOM      4  O   UNL     1     113.573 124.956 137.120  0.00  0.00    +0.000 OA
ATOM      5  C   UNL     1     112.798 127.245 138.905  0.00  0.00    +0.000 A 
ATOM      6  C   UNL     1     113.403 126.684 138.920  0.00  0.00    +0.000 A 
ATOM      7  C   UNL     1     112.244 127.238 138.294  0.00  0.00    +0.000 A 
ATOM      8  C   UNL     1     112.294 126.670 137.697  0.00  0.00    +0.000 A 
ATOM      9  C   UNL     1     112.900 126.109 137.712  0.00  0.00    +0.000 A 
ATOM     10  C   UNL     1     111.759 126.084 136.442  0.00  0.00    +0.000 C 
ATOM     11  C   UNL     1     112.390 125.500 136.458  0.00  0.00    +0.000 C 
ATOM     12  C   UNL     1     113.454 126.117 138.324  0.00  0.00    +0.000 A 
ATOM     13  C   UNL     1     112.964 125.513 137.097  0.00  0.00    +0.000 C 
ATOM     14  C   UNL     1     113.957 126.692 139.531  0.00  0.00    +0.000 C 
BRANCH  10  15
ATOM     15  C   UNL     1     111.204 126.079 135.832  0.00  0.00    +0.000 A 
ATOM     16  C   UNL     1     111.201 126.684 135.271  0.00  0.00    +0.000 A 
ATOM     17  C   UNL     1     110.651 125.469 135.783  0.00  0.00    +0.000 A 
ATOM     18  C   UNL     1     110.646 126.679 134.661  0.00  0.00    +0.000 A 
ATOM     19  C   UNL     1     110.096 125.463 135.174  0.00  0.00    +0.000 A 
ATOM     20  C   UNL     1     110.093 126.069 134.612  0.00  0.00    +0.000 A 
ENDBRANCH  10  15
ENDBRANCH   1   5
BRANCH   1  27
ATOM     21  O   UNL     1     113.031 128.926 138.650  0.00  0.00    +0.000 OA
ATOM     22  O   UNL     1     111.767 128.769 140.423  0.00  0.00    +0.000 OA
ATOM     23  O   UNL     1     112.334 130.993 138.720  0.00  0.00    +0.000 OA
ATOM     24  C   UNL     1     112.050 129.880 139.572  0.00  0.00    +0.000 C 
ATOM     25  C   UNL     1     112.153 129.086 139.767  0.00  0.00    +0.000 C 
ATOM     26  C   UNL     1     112.438 130.198 138.915  0.00  0.00    +0.000 C 
ATOM     27  C   UNL     1     112.644 128.608 139.306  0.00  0.00    +0.000 C 
ATOM     28  C   UNL     1     112.928 129.720 138.455  0.00  0.00    +0.000 C 
BRANCH  24  29
ATOM     29  O   UNL     1     111.560 130.358 140.032  0.00  0.00    +0.000 OA
BRANCH  29  34
ATOM     30  O   UNL     1     110.443 129.999 139.218  0.00  0.00    +0.000 OA
ATOM     31  O   UNL     1     110.571 131.271 140.987  0.00  0.00    +0.000 OA
ATOM     32  O   UNL     1     108.959 131.368 140.650  0.00  0.00    +0.000 OA
ATOM     33  O   UNL     1     108.335 130.552 139.359  0.00  0.00    +0.000 OA
ATOM     34  C   UNL     1     110.754 130.407 139.864  0.00  0.00    +0.000 C 
ATOM     35  C   UNL     1     110.260 130.863 140.341  0.00  0.00    +0.000 C 
ATOM     36  C   UNL     1     109.453 130.912 140.173  0.00  0.00    +0.000 C 
ATOM     37  C   UNL     1     109.142 130.504 139.527  0.00  0.00    +0.000 C 
ATOM     38  C   UNL     1     109.636 130.047 139.050  0.00  0.00    +0.000 C 
ENDBRANCH  29  34
ENDBRANCH  24  29
ENDBRANCH   1  27
TORSDOF 5
ENDMDL
MODEL 3
REMARK VINA RESULT:     -10.1      2.093      5.163
REMARK  Name = 42607853
REMARK  5 active torsions:
REMARK  status: ('A' for Active; 'I' for Inactive)
REMARK    1  A    between atoms: O_1  and  C_13
REMARK    2  A    between atoms: O_1  and  C_16
REMARK    3  A    between atoms: O_4  and  C_18
REMARK    4  A    between atoms: O_4  and  C_23
REMARK    5  A    between atoms: C_28  and  C_33
REMARK                            x       y       z     vdW  Elec       q    Type
REMARK                         _______ _______ _______ _____ _____    ______ ____
ROOT
ATOM      1  O   UNL     1     112.573 125.662 137.897  0.00  0.00    +0.000 OA
ENDROOT
BRANCH   1   5
ATOM      2  O   UNL     1     110.812 127.302 136.312  0.00  0.00    +0.000 OA
ATOM      3  O   UNL     1     111.082 124.472 135.769  0.00  0.00    +0.000 OA
ATOM      4  O   UNL     1     110.189 125.258 134.951  0.00  0.00    +0.000 OA
ATOM      5  C   UNL     1     112.032 125.732 137.277  0.00  0.00    +0.000 A 
ATOM      6  C   UNL     1     111.827 125.067 136.832  0.00  0.00    +0.000 A 
ATOM      7  C   UNL     1     111.696 126.464 137.103  0.00  0.00    +0.000 A 
ATOM      8  C   UNL     1     111.155 126.534 136.483  0.00  0.00    +0.000 A 
ATOM      9  C   UNL     1     110.950 125.869 136.038  0.00  0.00    +0.000 A 
ATOM     10  C   UNL     1     110.248 127.381 135.668  0.00  0.00    +0.000 C 
ATOM     11  C   UNL     1     110.035 126.688 135.204  0.00  0.00    +0.000 C 
ATOM     12  C   UNL     1     111.287 125.136 136.213  0.00  0.00    +0.000 A 
ATOM     13  C   UNL     1     110.388 125.927 135.391  0.00  0.00    +0.000 C 
ATOM     14  C   UNL     1     112.163 124.334 137.007  0.00  0.00    +0.000 C 
BRANCH  10  15
ATOM     15  C   UNL     1     109.913 128.115 135.495  0.00  0.00    +0.000 A 
ATOM     16  C   UNL     1     109.223 128.353 135.878  0.00  0.00    +0.000 A 
ATOM     17  C   UNL     1     110.270 128.610 134.940  0.00  0.00    +0.000 A 
ATOM     18  C   UNL     1     108.888 129.088 135.706  0.00  0.00    +0.000 A 
ATOM     19  C   UNL     1     109.936 129.344 134.767  0.00  0.00    +0.000 A 
ATOM     20  C   UNL     1     109.244 129.583 135.150  0.00  0.00    +0.000 A 
ENDBRANCH  10  15
ENDBRANCH   1   5
BRANCH   1  27
ATOM     21  O   UNL     1     111.654 125.887 138.968  0.00  0.00    +0.000 OA
ATOM     22  O   UNL     1     113.721 126.533 138.700  0.00  0.00    +0.000 OA
ATOM     23  O   UNL     1     111.883 126.981 140.842  0.00  0.00    +0.000 OA
ATOM     24  C   UNL     1     112.803 126.757 139.771  0.00  0.00    +0.000 C 
ATOM     25  C   UNL     1     112.975 126.428 139.035  0.00  0.00    +0.000 C 
ATOM     26  C   UNL     1     112.056 126.651 140.106  0.00  0.00    +0.000 C 
ATOM     27  C   UNL     1     112.400 125.992 138.633  0.00  0.00    +0.000 C 
ATOM     28  C   UNL     1     111.482 126.216 139.704  0.00  0.00    +0.000 C 
BRANCH  24  29
ATOM     29  O   UNL     1     113.376 127.192 140.173  0.00  0.00    +0.000 OA
BRANCH  29  34
ATOM     30  O   UNL     1     112.864 128.397 139.603  0.00  0.00    +0.000 OA
ATOM     31  O   UNL     1     114.559 128.055 140.934  0.00  0.00    +0.000 OA
ATOM     32  O   UNL     1     114.637 129.693 140.745  0.00  0.00    +0.000 OA
ATOM     33  O   UNL     1     113.532 130.467 139.794  0.00  0.00    +0.000 OA
ATOM     34  C   UNL     1     113.415 128.011 140.078  0.00  0.00    +0.000 C 
ATOM     35  C   UNL     1     114.007 128.442 140.459  0.00  0.00    +0.000 C 
ATOM     36  C   UNL     1     114.046 129.262 140.364  0.00  0.00    +0.000 C 
ATOM     37  C   UNL     1     113.493 129.648 139.889  0.00  0.00    +0.000 C 
ATOM     38  C   UNL     1     112.903 129.217 139.509  0.00  0.00    +0.000 C 
ENDBRANCH  29  34
ENDBRANCH  24  29
ENDBRANCH   1  27
TORSDOF 5
ENDMDL
MODEL 4
REMARK VINA RESULT:     -10.0      2.619      4.180
REMARK  Name = 42607853
REMARK  5 active torsions:
REMARK  status: ('A' for Active; 'I' for Inactive)
REMARK    1  A    between atoms: O_1  and  C_13
REMARK    2  A    between atoms: O_1  and  C_16
REMARK    3  A    between atoms: O_4  and  C_18
REMARK    4  A    between atoms: O_4  and  C_23
REMARK    5  A    between atoms: C_28  and  C_33
REMARK                            x       y       z     vdW  Elec       q    Type
REMARK                         _______ _______ _______ _____ _____    ______ ____
ROOT
ATOM      1  O   UNL     1     111.077 129.061 136.652  0.00  0.00    +0.000 OA
ENDROOT
BRANCH   1   5
ATOM      2  O   UNL     1     111.725 126.255 136.539  0.00  0.00    +0.000 OA
ATOM      3  O   UNL     1     109.805 127.403 134.702  0.00  0.00    +0.000 OA
ATOM      4  O   UNL     1     110.101 125.994 134.612  0.00  0.00    +0.000 OA
ATOM      5  C   UNL     1     110.969 128.320 136.305  0.00  0.00    +0.000 A 
ATOM      6  C   UNL     1     110.441 128.231 135.676  0.00  0.00    +0.000 A 
ATOM      7  C   UNL     1     111.389 127.668 136.585  0.00  0.00    +0.000 A 
ATOM      8  C   UNL     1     111.281 126.927 136.238  0.00  0.00    +0.000 A 
ATOM      9  C   UNL     1     110.753 126.838 135.610  0.00  0.00    +0.000 A 
ATOM     10  C   UNL     1     111.616 125.481 136.182  0.00  0.00    +0.000 C 
ATOM     11  C   UNL     1     111.066 125.389 135.527  0.00  0.00    +0.000 C 
ATOM     12  C   UNL     1     110.333 127.491 135.330  0.00  0.00    +0.000 A 
ATOM     13  C   UNL     1     110.631 126.073 135.240  0.00  0.00    +0.000 C 
ATOM     14  C   UNL     1     110.021 128.884 135.396  0.00  0.00    +0.000 C 
BRANCH  10  15
ATOM     15  C   UNL     1     112.038 124.830 136.464  0.00  0.00    +0.000 A 
ATOM     16  C   UNL     1     111.644 124.228 136.869  0.00  0.00    +0.000 A 
ATOM     17  C   UNL     1     112.852 124.782 136.342  0.00  0.00    +0.000 A 
ATOM     18  C   UNL     1     112.066 123.578 137.151  0.00  0.00    +0.000 A 
ATOM     19  C   UNL     1     113.273 124.132 136.625  0.00  0.00    +0.000 A 
ATOM     20  C   UNL     1     112.880 123.529 137.029  0.00  0.00    +0.000 A 
ENDBRANCH  10  15
ENDBRANCH   1   5
BRANCH   1  27
ATOM     21  O   UNL     1     112.422 129.284 136.222  0.00  0.00    +0.000 OA
ATOM     22  O   UNL     1     111.437 129.722 138.120  0.00  0.00    +0.000 OA
ATOM     23  O   UNL     1     114.126 130.168 137.260  0.00  0.00    +0.000 OA
ATOM     24  C   UNL     1     112.781 129.945 137.691  0.00  0.00    +0.000 C 
ATOM     25  C   UNL     1     112.019 129.668 137.539  0.00  0.00    +0.000 C 
ATOM     26  C   UNL     1     113.363 129.891 137.108  0.00  0.00    +0.000 C 
ATOM     27  C   UNL     1     111.839 129.338 136.804  0.00  0.00    +0.000 C 
ATOM     28  C   UNL     1     113.183 129.561 136.374  0.00  0.00    +0.000 C 
BRANCH  24  29
ATOM     29  O   UNL     1     112.961 130.275 138.424  0.00  0.00    +0.000 OA
BRANCH  29  34
ATOM     30  O   UNL     1     113.270 128.981 138.944  0.00  0.00    +0.000 OA
ATOM     31  O   UNL     1     113.553 130.968 139.800  0.00  0.00    +0.000 OA
ATOM     32  O   UNL     1     114.158 130.020 141.007  0.00  0.00    +0.000 OA
ATOM     33  O   UNL     1     114.171 128.379 140.839  0.00  0.00    +0.000 OA
ATOM     34  C   UNL     1     113.264 129.801 139.028  0.00  0.00    +0.000 C 
ATOM     35  C   UNL     1     113.560 130.148 139.716  0.00  0.00    +0.000 C 
ATOM     36  C   UNL     1     113.862 129.674 140.320  0.00  0.00    +0.000 C 
ATOM     37  C   UNL     1     113.868 128.853 140.235  0.00  0.00    +0.000 C 
ATOM     38  C   UNL     1     113.573 128.506 139.548  0.00  0.00    +0.000 C 
ENDBRANCH  29  34
ENDBRANCH  24  29
ENDBRANCH   1  27
TORSDOF 5
ENDMDL
MODEL 5
REMARK VINA RESULT:     -10.0      3.178      5.146
REMARK  Name = 42607853
REMARK  5 active torsions:
REMARK  status: ('A' for Active; 'I' for Inactive)
REMARK    1  A    between atoms: O_1  and  C_13
REMARK    2  A    between atoms: O_1  and  C_16
REMARK    3  A    between atoms: O_4  and  C_18
REMARK    4  A    between atoms: O_4  and  C_23
REMARK    5  A    between atoms: C_28  and  C_33
REMARK                            x       y       z     vdW  Elec       q    Type
REMARK                         _______ _______ _______ _____ _____    ______ ____
ROOT
ATOM      1  O   UNL     1     111.002 128.327 139.381  0.00  0.00    +0.000 OA
ENDROOT
BRANCH   1   5
ATOM      2  O   UNL     1     112.693 126.502 137.926  0.00  0.00    +0.000 OA
ATOM      3  O   UNL     1     109.810 126.306 137.748  0.00  0.00    +0.000 OA
ATOM      4  O   UNL     1     110.621 125.373 137.004  0.00  0.00    +0.000 OA
ATOM      5  C   UNL     1     111.080 127.686 138.866  0.00  0.00    +0.000 A 
ATOM      6  C   UNL     1     110.406 127.316 138.564  0.00  0.00    +0.000 A 
ATOM      7  C   UNL     1     111.829 127.415 138.654  0.00  0.00    +0.000 A 
ATOM      8  C   UNL     1     111.907 126.775 138.140  0.00  0.00    +0.000 A 
ATOM      9  C   UNL     1     111.233 126.405 137.837  0.00  0.00    +0.000 A 
ATOM     10  C   UNL     1     112.779 125.835 137.391  0.00  0.00    +0.000 C 
ATOM     11  C   UNL     1     112.078 125.450 137.076  0.00  0.00    +0.000 C 
ATOM     12  C   UNL     1     110.483 126.676 138.050  0.00  0.00    +0.000 A 
ATOM     13  C   UNL     1     111.299 125.737 137.301  0.00  0.00    +0.000 C 
ATOM     14  C   UNL     1     109.657 127.587 138.777  0.00  0.00    +0.000 C 
BRANCH  10  15
ATOM     15  C   UNL     1     113.530 125.567 137.180  0.00  0.00    +0.000 A 
ATOM     16  C   UNL     1     113.917 125.891 136.527  0.00  0.00    +0.000 A 
ATOM     17  C   UNL     1     113.895 124.973 137.622  0.00  0.00    +0.000 A 
ATOM     18  C   UNL     1     114.667 125.622 136.316  0.00  0.00    +0.000 A 
ATOM     19  C   UNL     1     114.646 124.705 137.412  0.00  0.00    +0.000 A 
ATOM     20  C   UNL     1     115.032 125.029 136.758  0.00  0.00    +0.000 A 
ENDBRANCH  10  15
ENDBRANCH   1   5
BRANCH   1  27
ATOM     21  O   UNL     1     111.462 127.640 140.547  0.00  0.00    +0.000 OA
ATOM     22  O   UNL     1     111.712 129.715 139.920  0.00  0.00    +0.000 OA
ATOM     23  O   UNL     1     112.629 128.341 142.252  0.00  0.00    +0.000 OA
ATOM     24  C   UNL     1     112.170 129.029 141.085  0.00  0.00    +0.000 C 
ATOM     25  C   UNL     1     111.764 129.025 140.369  0.00  0.00    +0.000 C 
ATOM     26  C   UNL     1     112.223 128.337 141.534  0.00  0.00    +0.000 C 
ATOM     27  C   UNL     1     111.409 128.330 140.098  0.00  0.00    +0.000 C 
ATOM     28  C   UNL     1     111.868 127.643 141.264  0.00  0.00    +0.000 C 
BRANCH  24  29
ATOM     29  O   UNL     1     112.525 129.722 141.356  0.00  0.00    +0.000 OA
BRANCH  29  34
ATOM     30  O   UNL     1     113.744 129.356 140.708  0.00  0.00    +0.000 OA
ATOM     31  O   UNL     1     113.191 131.168 141.791  0.00  0.00    +0.000 OA
ATOM     32  O   UNL     1     114.744 131.523 141.361  0.00  0.00    +0.000 OA
ATOM     33  O   UNL     1     115.631 130.434 140.496  0.00  0.00    +0.000 OA
ATOM     34  C   UNL     1     113.302 129.900 141.141  0.00  0.00    +0.000 C 
ATOM     35  C   UNL     1     113.634 130.623 141.359  0.00  0.00    +0.000 C 
ATOM     36  C   UNL     1     114.412 130.801 141.144  0.00  0.00    +0.000 C 
ATOM     37  C   UNL     1     114.854 130.256 140.711  0.00  0.00    +0.000 C 
ATOM     38  C   UNL     1     114.522 129.534 140.493  0.00  0.00    +0.000 C 
ENDBRANCH  29  34
ENDBRANCH  24  29
ENDBRANCH   1  27
TORSDOF 5
ENDMDL
MODEL 6
REMARK VINA RESULT:      -9.9      7.770      9.487
REMARK  Name = 42607853
REMARK  5 active torsions:
REMARK  status: ('A' for Active; 'I' for Inactive)
REMARK    1  A    between atoms: O_1  and  C_13
REMARK    2  A    between atoms: O_1  and  C_16
REMARK    3  A    between atoms: O_4  and  C_18
REMARK    4  A    between atoms: O_4  and  C_23
REMARK    5  A    between atoms: C_28  and  C_33
REMARK                            x       y       z     vdW  Elec       q    Type
REMARK                         _______ _______ _______ _____ _____    ______ ____
ROOT
ATOM      1  O   UNL     1     105.499 126.341 143.374  0.00  0.00    +0.000 OA
ENDROOT
BRANCH   1   5
ATOM      2  O   UNL     1     106.626 125.887 145.987  0.00  0.00    +0.000 OA
ATOM      3  O   UNL     1     105.775 128.535 145.185  0.00  0.00    +0.000 OA
ATOM      4  O   UNL     1     106.334 128.350 146.503  0.00  0.00    +0.000 OA
ATOM      5  C   UNL     1     105.731 126.636 144.109  0.00  0.00    +0.000 A 
ATOM      6  C   UNL     1     105.637 127.438 144.280  0.00  0.00    +0.000 A 
ATOM      7  C   UNL     1     106.056 126.130 144.673  0.00  0.00    +0.000 A 
ATOM      8  C   UNL     1     106.288 126.424 145.408  0.00  0.00    +0.000 A 
ATOM      9  C   UNL     1     106.194 127.227 145.579  0.00  0.00    +0.000 A 
ATOM     10  C   UNL     1     106.869 126.188 146.754  0.00  0.00    +0.000 C 
ATOM     11  C   UNL     1     106.771 127.024 146.932  0.00  0.00    +0.000 C 
ATOM     12  C   UNL     1     105.868 127.733 145.014  0.00  0.00    +0.000 A 
ATOM     13  C   UNL     1     106.431 127.547 146.340  0.00  0.00    +0.000 C 
ATOM     14  C   UNL     1     105.311 127.945 143.716  0.00  0.00    +0.000 C 
BRANCH  10  15
ATOM     15  C   UNL     1     107.194 125.679 147.316  0.00  0.00    +0.000 A 
ATOM     16  C   UNL     1     106.703 125.284 147.848  0.00  0.00    +0.000 A 
ATOM     17  C   UNL     1     108.011 125.566 147.347  0.00  0.00    +0.000 A 
ATOM     18  C   UNL     1     107.028 124.775 148.410  0.00  0.00    +0.000 A 
ATOM     19  C   UNL     1     108.336 125.058 147.908  0.00  0.00    +0.000 A 
ATOM     20  C   UNL     1     107.845 124.662 148.441  0.00  0.00    +0.000 A 
ENDBRANCH  10  15
ENDBRANCH   1   5
BRANCH   1  27
ATOM     21  O   UNL     1     106.795 126.352 142.771  0.00  0.00    +0.000 OA
ATOM     22  O   UNL     1     105.141 124.942 142.577  0.00  0.00    +0.000 OA
ATOM     23  O   UNL     1     107.732 124.965 141.372  0.00  0.00    +0.000 OA
ATOM     24  C   UNL     1     106.436 124.953 141.975  0.00  0.00    +0.000 C 
ATOM     25  C   UNL     1     105.878 125.297 142.475  0.00  0.00    +0.000 C 
ATOM     26  C   UNL     1     107.174 125.309 141.873  0.00  0.00    +0.000 C 
ATOM     27  C   UNL     1     106.057 125.997 142.874  0.00  0.00    +0.000 C 
ATOM     28  C   UNL     1     107.352 126.008 142.271  0.00  0.00    +0.000 C 
BRANCH  24  29
ATOM     29  O   UNL     1     106.257 124.253 141.576  0.00  0.00    +0.000 OA
BRANCH  29  34
ATOM     30  O   UNL     1     105.705 125.008 140.496  0.00  0.00    +0.000 OA
ATOM     31  O   UNL     1     105.927 122.854 140.767  0.00  0.00    +0.000 OA
ATOM     32  O   UNL     1     105.210 122.909 139.282  0.00  0.00    +0.000 OA
ATOM     33  O   UNL     1     104.822 124.364 138.606  0.00  0.00    +0.000 OA
ATOM     34  C   UNL     1     105.898 124.281 140.834  0.00  0.00    +0.000 C 
ATOM     35  C   UNL     1     105.734 123.581 140.429  0.00  0.00    +0.000 C 
ATOM     36  C   UNL     1     105.374 123.608 139.686  0.00  0.00    +0.000 C 
ATOM     37  C   UNL     1     105.181 124.336 139.349  0.00  0.00    +0.000 C 
ATOM     38  C   UNL     1     105.346 125.035 139.753  0.00  0.00    +0.000 C 
ENDBRANCH  29  34
ENDBRANCH  24  29
ENDBRANCH   1  27
TORSDOF 5
ENDMDL
MODEL 7
REMARK VINA RESULT:      -9.8      9.461     10.978
REMARK  Name = 42607853
REMARK  5 active torsions:
REMARK  status: ('A' for Active; 'I' for Inactive)
REMARK    1  A    between atoms: O_1  and  C_13
REMARK    2  A    between atoms: O_1  and  C_16
REMARK    3  A    between atoms: O_4  and  C_18
REMARK    4  A    between atoms: O_4  and  C_23
REMARK    5  A    between atoms: C_28  and  C_33
REMARK                            x       y       z     vdW  Elec       q    Type
REMARK                         _______ _______ _______ _____ _____    ______ ____
ROOT
ATOM      1  O   UNL     1     106.453 125.199 145.311  0.00  0.00    +0.000 OA
ENDROOT
BRANCH   1   5
ATOM      2  O   UNL     1     103.921 124.366 146.404  0.00  0.00    +0.000 OA
ATOM      3  O   UNL     1     106.133 125.039 148.146  0.00  0.00    +0.000 OA
ATOM      4  O   UNL     1     104.881 124.626 148.734  0.00  0.00    +0.000 OA
ATOM      5  C   UNL     1     105.982 125.035 145.969  0.00  0.00    +0.000 A 
ATOM      6  C   UNL     1     106.293 125.119 146.729  0.00  0.00    +0.000 A 
ATOM      7  C   UNL     1     105.203 124.787 145.867  0.00  0.00    +0.000 A 
ATOM      8  C   UNL     1     104.732 124.623 146.524  0.00  0.00    +0.000 A 
ATOM      9  C   UNL     1     105.042 124.707 147.285  0.00  0.00    +0.000 A 
ATOM     10  C   UNL     1     103.426 124.193 147.086  0.00  0.00    +0.000 C 
ATOM     11  C   UNL     1     103.749 124.281 147.878  0.00  0.00    +0.000 C 
ATOM     12  C   UNL     1     105.823 124.955 147.387  0.00  0.00    +0.000 A 
ATOM     13  C   UNL     1     104.563 124.540 147.978  0.00  0.00    +0.000 C 
ATOM     14  C   UNL     1     107.073 125.367 146.831  0.00  0.00    +0.000 C 
BRANCH  10  15
ATOM     15  C   UNL     1     102.646 123.946 146.981  0.00  0.00    +0.000 A 
ATOM     16  C   UNL     1     102.028 124.489 147.046  0.00  0.00    +0.000 A 
ATOM     17  C   UNL     1     102.484 123.155 146.810  0.00  0.00    +0.000 A 
ATOM     18  C   UNL     1     101.249 124.241 146.941  0.00  0.00    +0.000 A 
ATOM     19  C   UNL     1     101.705 122.907 146.705  0.00  0.00    +0.000 A 
ATOM     20  C   UNL     1     101.087 123.450 146.770  0.00  0.00    +0.000 A 
ENDBRANCH  10  15
ENDBRANCH   1   5
BRANCH   1  27
ATOM     21  O   UNL     1     105.935 126.457 144.872  0.00  0.00    +0.000 OA
ATOM     22  O   UNL     1     106.333 124.614 143.773  0.00  0.00    +0.000 OA
ATOM     23  O   UNL     1     105.297 127.129 142.896  0.00  0.00    +0.000 OA
ATOM     24  C   UNL     1     105.815 125.870 143.335  0.00  0.00    +0.000 C 
ATOM     25  C   UNL     1     106.104 125.389 143.938  0.00  0.00    +0.000 C 
ATOM     26  C   UNL     1     105.586 126.646 143.500  0.00  0.00    +0.000 C 
ATOM     27  C   UNL     1     106.164 125.682 144.707  0.00  0.00    +0.000 C 
ATOM     28  C   UNL     1     105.646 126.939 144.269  0.00  0.00    +0.000 C 
BRANCH  24  29
ATOM     29  O   UNL     1     105.754 125.578 142.566  0.00  0.00    +0.000 OA
BRANCH  29  34
ATOM     30  O   UNL     1     107.078 126.035 142.287  0.00  0.00    +0.000 OA
ATOM     31  O   UNL     1     105.622 125.016 141.020  0.00  0.00    +0.000 OA
ATOM     32  O   UNL     1     106.881 125.192 139.968  0.00  0.00    +0.000 OA
ATOM     33  O   UNL     1     108.272 125.930 140.462  0.00  0.00    +0.000 OA
ATOM     34  C   UNL     1     106.384 125.666 142.040  0.00  0.00    +0.000 C 
ATOM     35  C   UNL     1     106.317 125.385 141.267  0.00  0.00    +0.000 C 
ATOM     36  C   UNL     1     106.947 125.473 140.740  0.00  0.00    +0.000 C 
ATOM     37  C   UNL     1     107.642 125.842 140.988  0.00  0.00    +0.000 C 
ATOM     38  C   UNL     1     107.709 126.123 141.760  0.00  0.00    +0.000 C 
ENDBRANCH  29  34
ENDBRANCH  24  29
ENDBRANCH   1  27
TORSDOF 5
ENDMDL
MODEL 8
REMARK VINA RESULT:      -9.8      1.716      5.877
REMARK  Name = 42607853
REMARK  5 active torsions:
REMARK  status: ('A' for Active; 'I' for Inactive)
REMARK    1  A    between atoms: O_1  and  C_13
REMARK    2  A    between atoms: O_1  and  C_16
REMARK    3  A    between atoms: O_4  and  C_18
REMARK    4  A    between atoms: O_4  and  C_23
REMARK    5  A    between atoms: C_28  and  C_33
REMARK                            x       y       z     vdW  Elec       q    Type
REMARK                         _______ _______ _______ _____ _____    ______ ____
ROOT
ATOM      1  O   UNL     1     110.395 127.857 136.090  0.00  0.00    +0.000 OA
ENDROOT
BRANCH   1   5
ATOM      2  O   UNL     1     110.053 130.679 136.557  0.00  0.00    +0.000 OA
ATOM      3  O   UNL     1     107.814 129.034 135.743  0.00  0.00    +0.000 OA
ATOM      4  O   UNL     1     107.601 130.444 135.967  0.00  0.00    +0.000 OA
ATOM      5  C   UNL     1     109.904 128.520 136.108  0.00  0.00    +0.000 A 
ATOM      6  C   UNL     1     109.104 128.446 135.916  0.00  0.00    +0.000 A 
ATOM      7  C   UNL     1     110.212 129.256 136.318  0.00  0.00    +0.000 A 
ATOM      8  C   UNL     1     109.721 129.918 136.337  0.00  0.00    +0.000 A 
ATOM      9  C   UNL     1     108.921 129.845 136.145  0.00  0.00    +0.000 A 
ATOM     10  C   UNL     1     109.546 131.373 136.578  0.00  0.00    +0.000 C 
ATOM     11  C   UNL     1     108.713 131.297 136.378  0.00  0.00    +0.000 C 
ATOM     12  C   UNL     1     108.613 129.108 135.935  0.00  0.00    +0.000 A 
ATOM     13  C   UNL     1     108.399 130.527 136.160  0.00  0.00    +0.000 C 
ATOM     14  C   UNL     1     108.797 127.709 135.706  0.00  0.00    +0.000 C 
BRANCH  10  15
ATOM     15  C   UNL     1     109.856 132.108 136.788  0.00  0.00    +0.000 A 
ATOM     16  C   UNL     1     110.110 132.632 136.203  0.00  0.00    +0.000 A 
ATOM     17  C   UNL     1     109.913 132.320 137.583  0.00  0.00    +0.000 A 
ATOM     18  C   UNL     1     110.420 133.367 136.413  0.00  0.00    +0.000 A 
ATOM     19  C   UNL     1     110.222 133.054 137.794  0.00  0.00    +0.000 A 
ATOM     20  C   UNL     1     110.477 133.578 137.209  0.00  0.00    +0.000 A 
ENDBRANCH  10  15
ENDBRANCH   1   5
BRANCH   1  27
ATOM     21  O   UNL     1     110.731 127.875 137.479  0.00  0.00    +0.000 OA
ATOM     22  O   UNL     1     111.915 127.323 135.731  0.00  0.00    +0.000 OA
ATOM     23  O   UNL     1     112.584 127.359 138.509  0.00  0.00    +0.000 OA
ATOM     24  C   UNL     1     112.249 127.341 137.119  0.00  0.00    +0.000 C 
ATOM     25  C   UNL     1     111.703 127.465 136.515  0.00  0.00    +0.000 C 
ATOM     26  C   UNL     1     112.037 127.484 137.904  0.00  0.00    +0.000 C 
ATOM     27  C   UNL     1     110.942 127.732 136.695  0.00  0.00    +0.000 C 
ATOM     28  C   UNL     1     111.277 127.751 138.083  0.00  0.00    +0.000 C 
BRANCH  24  29
ATOM     29  O   UNL     1     113.009 127.074 136.941  0.00  0.00    +0.000 OA
BRANCH  29  34
ATOM     30  O   UNL     1     112.585 125.724 137.138  0.00  0.00    +0.000 OA
ATOM     31  O   UNL     1     114.490 126.537 136.450  0.00  0.00    +0.000 OA
ATOM     32  O   UNL     1     114.806 124.918 136.401  0.00  0.00    +0.000 OA
ATOM     33  O   UNL     1     113.642 123.836 136.844  0.00  0.00    +0.000 OA
ATOM     34  C   UNL     1     113.167 126.264 136.916  0.00  0.00    +0.000 C 
ATOM     35  C   UNL     1     113.908 125.997 136.671  0.00  0.00    +0.000 C 
ATOM     36  C   UNL     1     114.066 125.186 136.647  0.00  0.00    +0.000 C 
ATOM     37  C   UNL     1     113.484 124.646 136.868  0.00  0.00    +0.000 C 
ATOM     38  C   UNL     1     112.744 124.914 137.114  0.00  0.00    +0.000 C 
ENDBRANCH  29  34
ENDBRANCH  24  29
ENDBRANCH   1  27
TORSDOF 5
ENDMDL
MODEL 9
REMARK VINA RESULT:      -9.8      1.808      2.593
REMARK  Name = 42607853
REMARK  5 active torsions:
REMARK  status: ('A' for Active; 'I' for Inactive)
REMARK    1  A    between atoms: O_1  and  C_13
REMARK    2  A    between atoms: O_1  and  C_16
REMARK    3  A    between atoms: O_4  and  C_18
REMARK    4  A    between atoms: O_4  and  C_23
REMARK    5  A    between atoms: C_28  and  C_33
REMARK                            x       y       z     vdW  Elec       q    Type
REMARK                         _______ _______ _______ _____ _____    ______ ____
ROOT
ATOM      1  O   UNL     1     109.302 128.122 137.004  0.00  0.00    +0.000 OA
ENDROOT
BRANCH   1   5
ATOM      2  O   UNL     1     111.672 126.489 136.867  0.00  0.00    +0.000 OA
ATOM      3  O   UNL     1     109.366 125.886 135.226  0.00  0.00    +0.000 OA
ATOM      4  O   UNL     1     110.533 125.043 135.127  0.00  0.00    +0.000 OA
ATOM      5  C   UNL     1     109.703 127.476 136.682  0.00  0.00    +0.000 A 
ATOM      6  C   UNL     1     109.334 127.003 136.115  0.00  0.00    +0.000 A 
ATOM      7  C   UNL     1     110.471 127.303 136.927  0.00  0.00    +0.000 A 
ATOM      8  C   UNL     1     110.872 126.658 136.604  0.00  0.00    +0.000 A 
ATOM      9  C   UNL     1     110.503 126.185 136.037  0.00  0.00    +0.000 A 
ATOM     10  C   UNL     1     112.094 125.818 136.535  0.00  0.00    +0.000 C 
ATOM     11  C   UNL     1     111.710 125.325 135.944  0.00  0.00    +0.000 C 
ATOM     12  C   UNL     1     109.734 126.358 135.793  0.00  0.00    +0.000 A 
ATOM     13  C   UNL     1     110.909 125.510 135.694  0.00  0.00    +0.000 C 
ATOM     14  C   UNL     1     108.565 127.176 135.870  0.00  0.00    +0.000 C 
BRANCH  10  15
ATOM     15  C   UNL     1     112.863 125.647 136.782  0.00  0.00    +0.000 A 
ATOM     16  C   UNL     1     113.492 126.113 136.522  0.00  0.00    +0.000 A 
ATOM     17  C   UNL     1     113.002 125.011 137.288  0.00  0.00    +0.000 A 
ATOM     18  C   UNL     1     114.261 125.943 136.768  0.00  0.00    +0.000 A 
ATOM     19  C   UNL     1     113.770 124.840 137.534  0.00  0.00    +0.000 A 
ATOM     20  C   UNL     1     114.400 125.306 137.275  0.00  0.00    +0.000 A 
ENDBRANCH  10  15
ENDBRANCH   1   5
BRANCH   1  27
ATOM     21  O   UNL     1     110.133 129.098 136.373  0.00  0.00    +0.000 OA
ATOM     22  O   UNL     1     109.052 129.152 138.269  0.00  0.00    +0.000 OA
ATOM     23  O   UNL     1     110.714 131.105 137.006  0.00  0.00    +0.000 OA
ATOM     24  C   UNL     1     109.882 130.128 137.637  0.00  0.00    +0.000 C 
ATOM     25  C   UNL     1     109.530 129.383 137.637  0.00  0.00    +0.000 C 
ATOM     26  C   UNL     1     110.361 130.359 137.005  0.00  0.00    +0.000 C 
ATOM     27  C   UNL     1     109.655 128.867 137.005  0.00  0.00    +0.000 C 
ATOM     28  C   UNL     1     110.485 129.843 136.374  0.00  0.00    +0.000 C 
BRANCH  24  29
ATOM     29  O   UNL     1     109.758 130.644 138.269  0.00  0.00    +0.000 OA
BRANCH  29  34
ATOM     30  O   UNL     1     110.930 130.142 138.912  0.00  0.00    +0.000 OA
ATOM     31  O   UNL     1     109.473 131.633 139.559  0.00  0.00    +0.000 OA
ATOM     32  O   UNL     1     110.505 131.625 140.847  0.00  0.00    +0.000 OA
ATOM     33  O   UNL     1     111.820 130.630 140.845  0.00  0.00    +0.000 OA
ATOM     34  C   UNL     1     110.273 130.640 138.913  0.00  0.00    +0.000 C 
ATOM     35  C   UNL     1     110.131 131.135 139.558  0.00  0.00    +0.000 C 
ATOM     36  C   UNL     1     110.647 131.131 140.203  0.00  0.00    +0.000 C 
ATOM     37  C   UNL     1     111.304 130.633 140.201  0.00  0.00    +0.000 C 
ATOM     38  C   UNL     1     111.447 130.139 139.557  0.00  0.00    +0.000 C 
ENDBRANCH  29  34
ENDBRANCH  24  29
ENDBRANCH   1  27
TORSDOF 5
ENDMDL
MODEL 10
REMARK VINA RESULT:      -9.8      1.975      3.760
REMARK  Name = 42607853
REMARK  5 active torsions:
REMARK  status: ('A' for Active; 'I' for Inactive)
REMARK    1  A    between atoms: O_1  and  C_13
REMARK    2  A    between atoms: O_1  and  C_16
REMARK    3  A    between atoms: O_4  and  C_18
REMARK    4  A    between atoms: O_4  and  C_23
REMARK    5  A    between atoms: C_28  and  C_33
REMARK                            x       y       z     vdW  Elec       q    Type
REMARK                         _______ _______ _______ _____ _____    ______ ____
ROOT
ATOM      1  O   UNL     1     111.723 129.248 139.448  0.00  0.00    +0.000 OA
ENDROOT
BRANCH   1   5
ATOM      2  O   UNL     1     112.924 126.903 138.282  0.00  0.00    +0.000 OA
ATOM      3  O   UNL     1     113.829 127.909 140.841  0.00  0.00    +0.000 OA
ATOM      4  O   UNL     1     114.456 126.731 140.291  0.00  0.00    +0.000 OA
ATOM      5  C   UNL     1     112.276 128.637 139.490  0.00  0.00    +0.000 A 
ATOM      6  C   UNL     1     112.777 128.578 140.144  0.00  0.00    +0.000 A 
ATOM      7  C   UNL     1     112.328 128.084 138.881  0.00  0.00    +0.000 A 
ATOM      8  C   UNL     1     112.880 127.472 138.923  0.00  0.00    +0.000 A 
ATOM      9  C   UNL     1     113.381 127.414 139.577  0.00  0.00    +0.000 A 
ATOM     10  C   UNL     1     113.497 126.264 138.321  0.00  0.00    +0.000 C 
ATOM     11  C   UNL     1     114.019 126.203 139.002  0.00  0.00    +0.000 C 
ATOM     12  C   UNL     1     113.328 127.967 140.187  0.00  0.00    +0.000 A 
ATOM     13  C   UNL     1     113.960 126.782 139.634  0.00  0.00    +0.000 C 
ATOM     14  C   UNL     1     112.724 129.132 140.754  0.00  0.00    +0.000 C 
BRANCH  10  15
ATOM     15  C   UNL     1     113.547 125.712 137.709  0.00  0.00    +0.000 A 
ATOM     16  C   UNL     1     112.971 125.127 137.634  0.00  0.00    +0.000 A 
ATOM     17  C   UNL     1     114.173 125.746 137.173  0.00  0.00    +0.000 A 
ATOM     18  C   UNL     1     113.020 124.575 137.022  0.00  0.00    +0.000 A 
ATOM     19  C   UNL     1     114.223 125.195 136.562  0.00  0.00    +0.000 A 
ATOM     20  C   UNL     1     113.646 124.609 136.486  0.00  0.00    +0.000 A 
ENDBRANCH  10  15
ENDBRANCH   1   5
BRANCH   1  27
ATOM     21  O   UNL     1     112.310 129.922 138.332  0.00  0.00    +0.000 OA
ATOM     22  O   UNL     1     110.220 129.633 138.888  0.00  0.00    +0.000 OA
ATOM     23  O   UNL     1     111.394 130.980 136.658  0.00  0.00    +0.000 OA
ATOM     24  C   UNL     1     110.806 130.306 137.773  0.00  0.00    +0.000 C 
ATOM     25  C   UNL     1     110.889 129.874 138.470  0.00  0.00    +0.000 C 
ATOM     26  C   UNL     1     111.477 130.547 137.355  0.00  0.00    +0.000 C 
ATOM     27  C   UNL     1     111.641 129.681 138.750  0.00  0.00    +0.000 C 
ATOM     28  C   UNL     1     112.228 130.354 137.636  0.00  0.00    +0.000 C 
BRANCH  24  29
ATOM     29  O   UNL     1     110.055 130.499 137.493  0.00  0.00    +0.000 OA
BRANCH  29  34
ATOM     30  O   UNL     1     110.043 129.311 136.699  0.00  0.00    +0.000 OA
ATOM     31  O   UNL     1     108.507 130.827 137.025  0.00  0.00    +0.000 OA
ATOM     32  O   UNL     1     107.722 129.803 135.997  0.00  0.00    +0.000 OA
ATOM     33  O   UNL     1     108.484 128.451 135.437  0.00  0.00    +0.000 OA
ATOM     34  C   UNL     1     109.662 129.987 136.979  0.00  0.00    +0.000 C 
ATOM     35  C   UNL     1     108.888 130.151 136.745  0.00  0.00    +0.000 C 
ATOM     36  C   UNL     1     108.495 129.639 136.230  0.00  0.00    +0.000 C 
ATOM     37  C   UNL     1     108.877 128.963 135.951  0.00  0.00    +0.000 C 
ATOM     38  C   UNL     1     109.650 128.798 136.185  0.00  0.00    +0.000 C 
ENDBRANCH  29  34
ENDBRANCH  24  29
ENDBRANCH   1  27
TORSDOF 5
ENDMDL
