MODEL 1
REMARK VINA RESULT:      -8.1      0.000      0.000
REMARK  Name = 13845923
REMARK  7 active torsions:
REMARK  status: ('A' for Active; 'I' for Inactive)
REMARK    1  A    between atoms: S_1  and  O_4
REMARK    2  A    between atoms: S_2  and  O_9
REMARK    3  A    between atoms: O_4  and  C_25
REMARK    4  A    between atoms: O_5  and  C_24
REMARK    5  A    between atoms: O_7  and  C_28
REMARK    6  A    between atoms: O_9  and  C_29
REMARK    7  A    between atoms: C_18  and  C_19
REMARK                            x       y       z     vdW  Elec       q    Type
REMARK                         _______ _______ _______ _____ _____    ______ ____
ROOT
ATOM      1  O   UNL     1     112.691 127.238 136.060  0.00  0.00    +0.000 OA
ATOM      2  O   UNL     1     113.221 124.494 136.811  0.00  0.00    +0.000 OA
ATOM      3  O   UNL     1     114.274 125.470 136.945  0.00  0.00    +0.000 OA
ATOM      4  C   UNL     1     112.956 125.847 136.440  0.00  0.00    +0.000 A 
ATOM      5  C   UNL     1     112.438 126.421 136.151  0.00  0.00    +0.000 A 
ATOM      6  C   UNL     1     113.492 127.460 136.272  0.00  0.00    +0.000 A 
ATOM      7  C   UNL     1     112.703 125.067 136.523  0.00  0.00    +0.000 A 
ATOM      8  C   UNL     1     113.763 126.051 136.657  0.00  0.00    +0.000 A 
ATOM      9  C   UNL     1     111.666 126.215 135.946  0.00  0.00    +0.000 A 
ATOM     10  C   UNL     1     114.033 126.862 136.573  0.00  0.00    +0.000 A 
ATOM     11  C   UNL     1     111.931 124.860 136.318  0.00  0.00    +0.000 A 
ATOM     12  C   UNL     1     111.413 125.433 136.029  0.00  0.00    +0.000 A 
ENDROOT
BRANCH   6  13
ATOM     13  C   UNL     1     113.743 128.241 136.188  0.00  0.00    +0.000 A 
ATOM     14  C   UNL     1     113.491 128.816 136.723  0.00  0.00    +0.000 A 
ATOM     15  C   UNL     1     114.247 128.448 135.568  0.00  0.00    +0.000 A 
ATOM     16  C   UNL     1     113.742 129.597 136.639  0.00  0.00    +0.000 A 
ATOM     17  C   UNL     1     114.246 129.804 136.020  0.00  0.00    +0.000 A 
ATOM     18  C   UNL     1     114.498 129.230 135.484  0.00  0.00    +0.000 A 
BRANCH  16  19
ATOM     19  O   UNL     1     113.489 130.171 137.175  0.00  0.00    +0.000 OA
ATOM     20  C   UNL     1     112.918 129.985 137.741  0.00  0.00    +0.000 C 
ENDBRANCH  16  19
BRANCH  17  21
ATOM     21  O   UNL     1     114.496 130.586 135.936  0.00  0.00    +0.000 OA
BRANCH  21  22
ATOM     22  S   UNL     1     115.090 130.773 135.394  0.00  0.00    +0.000 S 
ATOM     23  O   UNL     1     115.684 130.959 134.853  0.00  0.00    +0.000 OA
ATOM     24  O   UNL     1     114.519 130.900 134.813  0.00  0.00    +0.000 OA
ATOM     25  O   UNL     1     115.661 130.645 135.976  0.00  0.00    +0.000 OA
ENDBRANCH  21  22
ENDBRANCH  17  21
ENDBRANCH   6  13
BRANCH  11  26
ATOM     26  O   UNL     1     111.677 124.080 136.401  0.00  0.00    +0.000 OA
ATOM     27  C   UNL     1     111.746 123.698 137.129  0.00  0.00    +0.000 C 
ENDBRANCH  11  26
BRANCH  12  28
ATOM     28  O   UNL     1     110.641 125.227 135.824  0.00  0.00    +0.000 OA
BRANCH  28  29
ATOM     29  S   UNL     1     110.162 125.766 135.423  0.00  0.00    +0.000 S 
ATOM     30  O   UNL     1     109.683 126.305 135.023  0.00  0.00    +0.000 OA
ATOM     31  O   UNL     1     110.461 125.497 134.703  0.00  0.00    +0.000 OA
ATOM     32  O   UNL     1     109.863 126.035 136.144  0.00  0.00    +0.000 OA
ENDBRANCH  28  29
ENDBRANCH  12  28
TORSDOF 7
ENDMDL
MODEL 2
REMARK VINA RESULT:      -8.0     11.006     13.150
REMARK  Name = 13845923
REMARK  7 active torsions:
REMARK  status: ('A' for Active; 'I' for Inactive)
REMARK    1  A    between atoms: S_1  and  O_4
REMARK    2  A    between atoms: S_2  and  O_9
REMARK    3  A    between atoms: O_4  and  C_25
REMARK    4  A    between atoms: O_5  and  C_24
REMARK    5  A    between atoms: O_7  and  C_28
REMARK    6  A    between atoms: O_9  and  C_29
REMARK    7  A    between atoms: C_18  and  C_19
REMARK                            x       y       z     vdW  Elec       q    Type
REMARK                         _______ _______ _______ _____ _____    ______ ____
ROOT
ATOM      1  O   UNL     1     103.012 132.020 141.316  0.00  0.00    +0.000 OA
ATOM      2  O   UNL     1     100.760 133.638 142.140  0.00  0.00    +0.000 OA
ATOM      3  O   UNL     1     100.710 132.212 142.352  0.00  0.00    +0.000 OA
ATOM      4  C   UNL     1     101.873 132.842 141.732  0.00  0.00    +0.000 A 
ATOM      5  C   UNL     1     102.623 132.783 141.394  0.00  0.00    +0.000 A 
ATOM      6  C   UNL     1     102.616 131.311 141.592  0.00  0.00    +0.000 A 
ATOM      7  C   UNL     1     101.510 133.579 141.802  0.00  0.00    +0.000 A 
ATOM      8  C   UNL     1     101.460 132.143 142.015  0.00  0.00    +0.000 A 
ATOM      9  C   UNL     1     103.010 133.460 141.126  0.00  0.00    +0.000 A 
ATOM     10  C   UNL     1     101.834 131.373 141.945  0.00  0.00    +0.000 A 
ATOM     11  C   UNL     1     101.896 134.257 141.535  0.00  0.00    +0.000 A 
ATOM     12  C   UNL     1     102.646 134.198 141.196  0.00  0.00    +0.000 A 
ENDROOT
BRANCH   6  13
ATOM     13  C   UNL     1     102.981 130.575 141.521  0.00  0.00    +0.000 A 
ATOM     14  C   UNL     1     102.788 130.077 140.892  0.00  0.00    +0.000 A 
ATOM     15  C   UNL     1     103.541 130.336 142.078  0.00  0.00    +0.000 A 
ATOM     16  C   UNL     1     103.153 129.341 140.820  0.00  0.00    +0.000 A 
ATOM     17  C   UNL     1     103.713 129.103 141.378  0.00  0.00    +0.000 A 
ATOM     18  C   UNL     1     103.907 129.600 142.007  0.00  0.00    +0.000 A 
BRANCH  16  19
ATOM     19  O   UNL     1     102.960 128.844 140.192  0.00  0.00    +0.000 OA
ATOM     20  C   UNL     1     102.438 129.102 139.607  0.00  0.00    +0.000 C 
ENDBRANCH  16  19
BRANCH  17  21
ATOM     21  O   UNL     1     104.079 128.366 141.306  0.00  0.00    +0.000 OA
BRANCH  21  22
ATOM     22  S   UNL     1     104.754 128.197 141.748  0.00  0.00    +0.000 S 
ATOM     23  O   UNL     1     105.430 128.027 142.191  0.00  0.00    +0.000 OA
ATOM     24  O   UNL     1     104.281 127.907 142.359  0.00  0.00    +0.000 OA
ATOM     25  O   UNL     1     105.227 128.487 141.137  0.00  0.00    +0.000 OA
ENDBRANCH  21  22
ENDBRANCH  17  21
ENDBRANCH   6  13
BRANCH  11  26
ATOM     26  O   UNL     1     101.533 134.994 141.605  0.00  0.00    +0.000 OA
ATOM     27  C   UNL     1     101.366 135.303 142.351  0.00  0.00    +0.000 C 
ENDBRANCH  11  26
BRANCH  12  28
ATOM     28  O   UNL     1     103.033 134.875 140.928  0.00  0.00    +0.000 OA
BRANCH  28  29
ATOM     29  S   UNL     1     103.737 134.807 140.502  0.00  0.00    +0.000 S 
ATOM     30  O   UNL     1     104.440 134.740 140.076  0.00  0.00    +0.000 OA
ATOM     31  O   UNL     1     103.306 134.745 139.801  0.00  0.00    +0.000 OA
ATOM     32  O   UNL     1     104.167 134.870 141.203  0.00  0.00    +0.000 OA
ENDBRANCH  28  29
ENDBRANCH  12  28
TORSDOF 7
ENDMDL
MODEL 3
REMARK VINA RESULT:      -8.0     10.086     11.636
REMARK  Name = 13845923
REMARK  7 active torsions:
REMARK  status: ('A' for Active; 'I' for Inactive)
REMARK    1  A    between atoms: S_1  and  O_4
REMARK    2  A    between atoms: S_2  and  O_9
REMARK    3  A    between atoms: O_4  and  C_25
REMARK    4  A    between atoms: O_5  and  C_24
REMARK    5  A    between atoms: O_7  and  C_28
REMARK    6  A    between atoms: O_9  and  C_29
REMARK    7  A    between atoms: C_18  and  C_19
REMARK                            x       y       z     vdW  Elec       q    Type
REMARK                         _______ _______ _______ _____ _____    ______ ____
ROOT
ATOM      1  O   UNL     1     105.218 125.906 144.503  0.00  0.00    +0.000 OA
ATOM      2  O   UNL     1     106.919 125.415 146.792  0.00  0.00    +0.000 OA
ATOM      3  O   UNL     1     107.305 126.426 145.839  0.00  0.00    +0.000 OA
ATOM      4  C   UNL     1     106.078 125.655 145.664  0.00  0.00    +0.000 A 
ATOM      5  C   UNL     1     105.397 125.483 145.231  0.00  0.00    +0.000 A 
ATOM      6  C   UNL     1     105.755 126.515 144.224  0.00  0.00    +0.000 A 
ATOM      7  C   UNL     1     106.238 125.243 146.359  0.00  0.00    +0.000 A 
ATOM      8  C   UNL     1     106.627 126.261 145.399  0.00  0.00    +0.000 A 
ATOM      9  C   UNL     1     104.877 124.900 145.493  0.00  0.00    +0.000 A 
ATOM     10  C   UNL     1     106.465 126.694 144.675  0.00  0.00    +0.000 A 
ATOM     11  C   UNL     1     105.719 124.659 146.623  0.00  0.00    +0.000 A 
ATOM     12  C   UNL     1     105.038 124.487 146.190  0.00  0.00    +0.000 A 
ENDROOT
BRANCH   6  13
ATOM     13  C   UNL     1     105.592 126.925 143.527  0.00  0.00    +0.000 A 
ATOM     14  C   UNL     1     105.727 126.567 142.796  0.00  0.00    +0.000 A 
ATOM     15  C   UNL     1     105.293 127.693 143.561  0.00  0.00    +0.000 A 
ATOM     16  C   UNL     1     105.564 126.978 142.099  0.00  0.00    +0.000 A 
ATOM     17  C   UNL     1     105.265 127.746 142.134  0.00  0.00    +0.000 A 
ATOM     18  C   UNL     1     105.130 128.104 142.865  0.00  0.00    +0.000 A 
BRANCH  16  19
ATOM     19  O   UNL     1     105.699 126.620 141.368  0.00  0.00    +0.000 OA
ATOM     20  C   UNL     1     105.955 125.836 141.334  0.00  0.00    +0.000 C 
ENDBRANCH  16  19
BRANCH  17  21
ATOM     21  O   UNL     1     105.102 128.156 141.436  0.00  0.00    +0.000 OA
BRANCH  21  22
ATOM     22  S   UNL     1     104.771 128.911 141.470  0.00  0.00    +0.000 S 
ATOM     23  O   UNL     1     104.440 129.666 141.504  0.00  0.00    +0.000 OA
ATOM     24  O   UNL     1     104.016 128.579 141.505  0.00  0.00    +0.000 OA
ATOM     25  O   UNL     1     105.525 129.243 141.435  0.00  0.00    +0.000 OA
ENDBRANCH  21  22
ENDBRANCH  17  21
ENDBRANCH   6  13
BRANCH  11  26
ATOM     26  O   UNL     1     105.879 124.247 147.319  0.00  0.00    +0.000 OA
ATOM     27  C   UNL     1     105.909 124.649 148.040  0.00  0.00    +0.000 C 
ENDBRANCH  11  26
BRANCH  12  28
ATOM     28  O   UNL     1     104.518 123.904 146.453  0.00  0.00    +0.000 OA
BRANCH  28  29
ATOM     29  S   UNL     1     103.913 123.637 145.960  0.00  0.00    +0.000 S 
ATOM     30  O   UNL     1     103.308 123.370 145.466  0.00  0.00    +0.000 OA
ATOM     31  O   UNL     1     104.412 123.051 145.664  0.00  0.00    +0.000 OA
ATOM     32  O   UNL     1     103.413 124.223 146.255  0.00  0.00    +0.000 OA
ENDBRANCH  28  29
ENDBRANCH  12  28
TORSDOF 7
ENDMDL
MODEL 4
REMARK VINA RESULT:      -7.9      2.798      3.832
REMARK  Name = 13845923
REMARK  7 active torsions:
REMARK  status: ('A' for Active; 'I' for Inactive)
REMARK    1  A    between atoms: S_1  and  O_4
REMARK    2  A    between atoms: S_2  and  O_9
REMARK    3  A    between atoms: O_4  and  C_25
REMARK    4  A    between atoms: O_5  and  C_24
REMARK    5  A    between atoms: O_7  and  C_28
REMARK    6  A    between atoms: O_9  and  C_29
REMARK    7  A    between atoms: C_18  and  C_19
REMARK                            x       y       z     vdW  Elec       q    Type
REMARK                         _______ _______ _______ _____ _____    ______ ____
ROOT
ATOM      1  O   UNL     1     113.473 127.650 138.799  0.00  0.00    +0.000 OA
ATOM      2  O   UNL     1     111.308 125.765 139.164  0.00  0.00    +0.000 OA
ATOM      3  O   UNL     1     111.296 126.996 139.915  0.00  0.00    +0.000 OA
ATOM      4  C   UNL     1     112.378 126.694 138.982  0.00  0.00    +0.000 A 
ATOM      5  C   UNL     1     113.087 126.904 138.616  0.00  0.00    +0.000 A 
ATOM      6  C   UNL     1     113.116 128.184 139.369  0.00  0.00    +0.000 A 
ATOM      7  C   UNL     1     112.017 125.975 138.798  0.00  0.00    +0.000 A 
ATOM      8  C   UNL     1     112.006 127.215 139.555  0.00  0.00    +0.000 A 
ATOM      9  C   UNL     1     113.435 126.396 138.067  0.00  0.00    +0.000 A 
ATOM     10  C   UNL     1     112.377 127.965 139.750  0.00  0.00    +0.000 A 
ATOM     11  C   UNL     1     112.365 125.466 138.250  0.00  0.00    +0.000 A 
ATOM     12  C   UNL     1     113.074 125.677 137.884  0.00  0.00    +0.000 A 
ENDROOT
BRANCH   6  13
ATOM     13  C   UNL     1     113.479 128.902 139.550  0.00  0.00    +0.000 A 
ATOM     14  C   UNL     1     113.445 129.528 139.014  0.00  0.00    +0.000 A 
ATOM     15  C   UNL     1     113.876 128.994 140.267  0.00  0.00    +0.000 A 
ATOM     16  C   UNL     1     113.809 130.247 139.195  0.00  0.00    +0.000 A 
ATOM     17  C   UNL     1     114.205 130.339 139.913  0.00  0.00    +0.000 A 
ATOM     18  C   UNL     1     114.239 129.712 140.449  0.00  0.00    +0.000 A 
BRANCH  16  19
ATOM     19  O   UNL     1     113.775 130.873 138.659  0.00  0.00    +0.000 OA
ATOM     20  C   UNL     1     113.450 130.757 137.909  0.00  0.00    +0.000 C 
ENDBRANCH  16  19
BRANCH  17  21
ATOM     21  O   UNL     1     114.568 131.058 140.093  0.00  0.00    +0.000 OA
BRANCH  21  22
ATOM     22  S   UNL     1     114.910 131.171 140.836  0.00  0.00    +0.000 S 
ATOM     23  O   UNL     1     115.252 131.285 141.578  0.00  0.00    +0.000 OA
ATOM     24  O   UNL     1     115.628 130.881 140.550  0.00  0.00    +0.000 OA
ATOM     25  O   UNL     1     114.193 131.461 141.122  0.00  0.00    +0.000 OA
ENDBRANCH  21  22
ENDBRANCH  17  21
ENDBRANCH   6  13
BRANCH  11  26
ATOM     26  O   UNL     1     112.004 124.748 138.066  0.00  0.00    +0.000 OA
ATOM     27  C   UNL     1     111.290 124.737 137.653  0.00  0.00    +0.000 C 
ENDBRANCH  11  26
BRANCH  12  28
ATOM     28  O   UNL     1     113.422 125.169 137.335  0.00  0.00    +0.000 OA
BRANCH  28  29
ATOM     29  S   UNL     1     114.184 125.321 137.058  0.00  0.00    +0.000 S 
ATOM     30  O   UNL     1     114.946 125.472 136.780  0.00  0.00    +0.000 OA
ATOM     31  O   UNL     1     114.500 124.901 137.694  0.00  0.00    +0.000 OA
ATOM     32  O   UNL     1     113.869 125.741 136.422  0.00  0.00    +0.000 OA
ENDBRANCH  28  29
ENDBRANCH  12  28
TORSDOF 7
ENDMDL
MODEL 5
REMARK VINA RESULT:      -7.8      3.102      4.235
REMARK  Name = 13845923
REMARK  7 active torsions:
REMARK  status: ('A' for Active; 'I' for Inactive)
REMARK    1  A    between atoms: S_1  and  O_4
REMARK    2  A    between atoms: S_2  and  O_9
REMARK    3  A    between atoms: O_4  and  C_25
REMARK    4  A    between atoms: O_5  and  C_24
REMARK    5  A    between atoms: O_7  and  C_28
REMARK    6  A    between atoms: O_9  and  C_29
REMARK    7  A    between atoms: C_18  and  C_19
REMARK                            x       y       z     vdW  Elec       q    Type
REMARK                         _______ _______ _______ _____ _____    ______ ____
ROOT
ATOM      1  O   UNL     1     110.324 127.450 136.680  0.00  0.00    +0.000 OA
ATOM      2  O   UNL     1     110.753 124.917 135.349  0.00  0.00    +0.000 OA
ATOM      3  O   UNL     1     110.146 125.999 134.613  0.00  0.00    +0.000 OA
ATOM      4  C   UNL     1     110.543 126.166 136.008  0.00  0.00    +0.000 A 
ATOM      5  C   UNL     1     110.602 126.636 136.684  0.00  0.00    +0.000 A 
ATOM      6  C   UNL     1     109.981 127.778 135.965  0.00  0.00    +0.000 A 
ATOM      7  C   UNL     1     110.812 125.387 136.024  0.00  0.00    +0.000 A 
ATOM      8  C   UNL     1     110.202 126.477 135.283  0.00  0.00    +0.000 A 
ATOM      9  C   UNL     1     110.931 126.328 137.374  0.00  0.00    +0.000 A 
ATOM     10  C   UNL     1     109.919 127.288 135.261  0.00  0.00    +0.000 A 
ATOM     11  C   UNL     1     111.141 125.077 136.714  0.00  0.00    +0.000 A 
ATOM     12  C   UNL     1     111.201 125.548 137.389  0.00  0.00    +0.000 A 
ENDROOT
BRANCH   6  13
ATOM     13  C   UNL     1     109.712 128.558 135.952  0.00  0.00    +0.000 A 
ATOM     14  C   UNL     1     110.252 129.181 135.977  0.00  0.00    +0.000 A 
ATOM     15  C   UNL     1     108.903 128.715 135.915  0.00  0.00    +0.000 A 
ATOM     16  C   UNL     1     109.983 129.961 135.965  0.00  0.00    +0.000 A 
ATOM     17  C   UNL     1     109.174 130.117 135.927  0.00  0.00    +0.000 A 
ATOM     18  C   UNL     1     108.634 129.494 135.902  0.00  0.00    +0.000 A 
BRANCH  16  19
ATOM     19  O   UNL     1     110.524 130.584 135.990  0.00  0.00    +0.000 OA
ATOM     20  C   UNL     1     111.317 130.435 136.161  0.00  0.00    +0.000 C 
ENDBRANCH  16  19
BRANCH  17  21
ATOM     21  O   UNL     1     108.906 130.898 135.915  0.00  0.00    +0.000 OA
BRANCH  21  22
ATOM     22  S   UNL     1     108.097 131.055 135.870  0.00  0.00    +0.000 S 
ATOM     23  O   UNL     1     107.288 131.212 135.824  0.00  0.00    +0.000 OA
ATOM     24  O   UNL     1     108.143 131.056 135.046  0.00  0.00    +0.000 OA
ATOM     25  O   UNL     1     108.051 131.053 136.693  0.00  0.00    +0.000 OA
ENDBRANCH  21  22
ENDBRANCH  17  21
ENDBRANCH   6  13
BRANCH  11  26
ATOM     26  O   UNL     1     111.411 124.298 136.730  0.00  0.00    +0.000 OA
ATOM     27  C   UNL     1     112.056 124.075 136.266  0.00  0.00    +0.000 C 
ENDBRANCH  11  26
BRANCH  12  28
ATOM     28  O   UNL     1     111.530 125.239 138.080  0.00  0.00    +0.000 OA
BRANCH  28  29
ATOM     29  S   UNL     1     111.493 125.669 138.783  0.00  0.00    +0.000 S 
ATOM     30  O   UNL     1     111.456 126.100 139.486  0.00  0.00    +0.000 OA
ATOM     31  O   UNL     1     110.765 125.323 138.957  0.00  0.00    +0.000 OA
ATOM     32  O   UNL     1     112.221 126.016 138.609  0.00  0.00    +0.000 OA
ENDBRANCH  28  29
ENDBRANCH  12  28
TORSDOF 7
ENDMDL
MODEL 6
REMARK VINA RESULT:      -7.8      1.602      2.958
REMARK  Name = 13845923
REMARK  7 active torsions:
REMARK  status: ('A' for Active; 'I' for Inactive)
REMARK    1  A    between atoms: S_1  and  O_4
REMARK    2  A    between atoms: S_2  and  O_9
REMARK    3  A    between atoms: O_4  and  C_25
REMARK    4  A    between atoms: O_5  and  C_24
REMARK    5  A    between atoms: O_7  and  C_28
REMARK    6  A    between atoms: O_9  and  C_29
REMARK    7  A    between atoms: C_18  and  C_19
REMARK                            x       y       z     vdW  Elec       q    Type
REMARK                         _______ _______ _______ _____ _____    ______ ____
ROOT
ATOM      1  O   UNL     1     112.721 127.040 136.616  0.00  0.00    +0.000 OA
ATOM      2  O   UNL     1     111.130 124.705 135.991  0.00  0.00    +0.000 OA
ATOM      3  O   UNL     1     110.559 126.014 135.790  0.00  0.00    +0.000 OA
ATOM      4  C   UNL     1     111.918 125.856 136.301  0.00  0.00    +0.000 A 
ATOM      5  C   UNL     1     112.623 126.187 136.570  0.00  0.00    +0.000 A 
ATOM      6  C   UNL     1     112.076 127.554 136.379  0.00  0.00    +0.000 A 
ATOM      7  C   UNL     1     111.836 125.036 136.261  0.00  0.00    +0.000 A 
ATOM      8  C   UNL     1     111.261 126.354 136.058  0.00  0.00    +0.000 A 
ATOM      9  C   UNL     1     113.247 125.699 136.800  0.00  0.00    +0.000 A 
ATOM     10  C   UNL     1     111.340 127.209 136.098  0.00  0.00    +0.000 A 
ATOM     11  C   UNL     1     112.460 124.547 136.491  0.00  0.00    +0.000 A 
ATOM     12  C   UNL     1     113.165 124.879 136.760  0.00  0.00    +0.000 A 
ENDROOT
BRANCH   6  13
ATOM     13  C   UNL     1     112.160 128.374 136.420  0.00  0.00    +0.000 A 
ATOM     14  C   UNL     1     112.625 128.769 135.864  0.00  0.00    +0.000 A 
ATOM     15  C   UNL     1     111.780 128.798 137.016  0.00  0.00    +0.000 A 
ATOM     16  C   UNL     1     112.710 129.588 135.905  0.00  0.00    +0.000 A 
ATOM     17  C   UNL     1     112.329 130.013 136.502  0.00  0.00    +0.000 A 
ATOM     18  C   UNL     1     111.865 129.618 137.057  0.00  0.00    +0.000 A 
BRANCH  16  19
ATOM     19  O   UNL     1     113.174 129.983 135.349  0.00  0.00    +0.000 OA
ATOM     20  C   UNL     1     113.594 129.554 134.783  0.00  0.00    +0.000 C 
ENDBRANCH  16  19
BRANCH  17  21
ATOM     21  O   UNL     1     112.415 130.833 136.542  0.00  0.00    +0.000 OA
BRANCH  21  22
ATOM     22  S   UNL     1     112.064 131.254 137.159  0.00  0.00    +0.000 S 
ATOM     23  O   UNL     1     111.713 131.674 137.776  0.00  0.00    +0.000 OA
ATOM     24  O   UNL     1     111.381 131.349 136.706  0.00  0.00    +0.000 OA
ATOM     25  O   UNL     1     112.747 131.158 137.612  0.00  0.00    +0.000 OA
ENDBRANCH  21  22
ENDBRANCH  17  21
ENDBRANCH   6  13
BRANCH  11  26
ATOM     26  O   UNL     1     112.378 123.728 136.451  0.00  0.00    +0.000 OA
ATOM     27  C   UNL     1     111.883 123.335 136.982  0.00  0.00    +0.000 C 
ENDBRANCH  11  26
BRANCH  12  28
ATOM     28  O   UNL     1     113.789 124.391 136.990  0.00  0.00    +0.000 OA
BRANCH  28  29
ATOM     29  S   UNL     1     114.544 124.707 137.096  0.00  0.00    +0.000 S 
ATOM     30  O   UNL     1     115.298 125.024 137.201  0.00  0.00    +0.000 OA
ATOM     31  O   UNL     1     114.394 124.795 137.902  0.00  0.00    +0.000 OA
ATOM     32  O   UNL     1     114.693 124.620 136.289  0.00  0.00    +0.000 OA
ENDBRANCH  28  29
ENDBRANCH  12  28
TORSDOF 7
ENDMDL
MODEL 7
REMARK VINA RESULT:      -7.7      2.427      5.321
REMARK  Name = 13845923
REMARK  7 active torsions:
REMARK  status: ('A' for Active; 'I' for Inactive)
REMARK    1  A    between atoms: S_1  and  O_4
REMARK    2  A    between atoms: S_2  and  O_9
REMARK    3  A    between atoms: O_4  and  C_25
REMARK    4  A    between atoms: O_5  and  C_24
REMARK    5  A    between atoms: O_7  and  C_28
REMARK    6  A    between atoms: O_9  and  C_29
REMARK    7  A    between atoms: C_18  and  C_19
REMARK                            x       y       z     vdW  Elec       q    Type
REMARK                         _______ _______ _______ _____ _____    ______ ____
ROOT
ATOM      1  O   UNL     1     110.755 128.055 136.289  0.00  0.00    +0.000 OA
ATOM      2  O   UNL     1     112.119 130.607 136.290  0.00  0.00    +0.000 OA
ATOM      3  O   UNL     1     112.903 129.397 136.258  0.00  0.00    +0.000 OA
ATOM      4  C   UNL     1     111.443 129.349 136.290  0.00  0.00    +0.000 A 
ATOM      5  C   UNL     1     110.742 128.915 136.300  0.00  0.00    +0.000 A 
ATOM      6  C   UNL     1     111.508 127.643 136.268  0.00  0.00    +0.000 A 
ATOM      7  C   UNL     1     111.418 130.173 136.301  0.00  0.00    +0.000 A 
ATOM      8  C   UNL     1     112.207 128.954 136.268  0.00  0.00    +0.000 A 
ATOM      9  C   UNL     1     110.015 129.305 136.321  0.00  0.00    +0.000 A 
ATOM     10  C   UNL     1     112.239 128.096 136.257  0.00  0.00    +0.000 A 
ATOM     11  C   UNL     1     110.692 130.564 136.322  0.00  0.00    +0.000 A 
ATOM     12  C   UNL     1     109.990 130.130 136.332  0.00  0.00    +0.000 A 
ENDROOT
BRANCH   6  13
ATOM     13  C   UNL     1     111.530 126.818 136.257  0.00  0.00    +0.000 A 
ATOM     14  C   UNL     1     111.055 126.400 135.729  0.00  0.00    +0.000 A 
ATOM     15  C   UNL     1     112.028 126.412 136.775  0.00  0.00    +0.000 A 
ATOM     16  C   UNL     1     111.077 125.575 135.718  0.00  0.00    +0.000 A 
ATOM     17  C   UNL     1     111.575 125.169 136.236  0.00  0.00    +0.000 A 
ATOM     18  C   UNL     1     112.050 125.588 136.764  0.00  0.00    +0.000 A 
BRANCH  16  19
ATOM     19  O   UNL     1     110.601 125.156 135.190  0.00  0.00    +0.000 OA
ATOM     20  C   UNL     1     110.062 125.559 134.712  0.00  0.00    +0.000 C 
ENDBRANCH  16  19
BRANCH  17  21
ATOM     21  O   UNL     1     111.597 124.344 136.225  0.00  0.00    +0.000 OA
BRANCH  21  22
ATOM     22  S   UNL     1     112.123 123.939 136.714  0.00  0.00    +0.000 S 
ATOM     23  O   UNL     1     112.650 123.534 137.204  0.00  0.00    +0.000 OA
ATOM     24  O   UNL     1     112.702 123.983 136.128  0.00  0.00    +0.000 OA
ATOM     25  O   UNL     1     111.544 123.895 137.301  0.00  0.00    +0.000 OA
ENDBRANCH  21  22
ENDBRANCH  17  21
ENDBRANCH   6  13
BRANCH  11  26
ATOM     26  O   UNL     1     110.666 131.388 136.332  0.00  0.00    +0.000 OA
ATOM     27  C   UNL     1     110.977 131.803 136.975  0.00  0.00    +0.000 C 
ENDBRANCH  11  26
BRANCH  12  28
ATOM     28  O   UNL     1     109.263 130.519 136.353  0.00  0.00    +0.000 OA
BRANCH  28  29
ATOM     29  S   UNL     1     108.566 130.100 136.216  0.00  0.00    +0.000 S 
ATOM     30  O   UNL     1     107.869 129.682 136.078  0.00  0.00    +0.000 OA
ATOM     31  O   UNL     1     108.646 130.233 135.405  0.00  0.00    +0.000 OA
ATOM     32  O   UNL     1     108.486 129.968 137.026  0.00  0.00    +0.000 OA
ENDBRANCH  28  29
ENDBRANCH  12  28
TORSDOF 7
ENDMDL
MODEL 8
REMARK VINA RESULT:      -7.7      1.518      5.410
REMARK  Name = 13845923
REMARK  7 active torsions:
REMARK  status: ('A' for Active; 'I' for Inactive)
REMARK    1  A    between atoms: S_1  and  O_4
REMARK    2  A    between atoms: S_2  and  O_9
REMARK    3  A    between atoms: O_4  and  C_25
REMARK    4  A    between atoms: O_5  and  C_24
REMARK    5  A    between atoms: O_7  and  C_28
REMARK    6  A    between atoms: O_9  and  C_29
REMARK    7  A    between atoms: C_18  and  C_19
REMARK                            x       y       z     vdW  Elec       q    Type
REMARK                         _______ _______ _______ _____ _____    ______ ____
ROOT
ATOM      1  O   UNL     1     112.548 128.170 137.070  0.00  0.00    +0.000 OA
ATOM      2  O   UNL     1     114.440 130.159 136.155  0.00  0.00    +0.000 OA
ATOM      3  O   UNL     1     114.482 128.837 135.578  0.00  0.00    +0.000 OA
ATOM      4  C   UNL     1     113.505 129.179 136.608  0.00  0.00    +0.000 A 
ATOM      5  C   UNL     1     112.875 128.965 137.096  0.00  0.00    +0.000 A 
ATOM      6  C   UNL     1     112.882 127.591 136.531  0.00  0.00    +0.000 A 
ATOM      7  C   UNL     1     113.810 129.944 136.642  0.00  0.00    +0.000 A 
ATOM      8  C   UNL     1     113.852 128.614 136.062  0.00  0.00    +0.000 A 
ATOM      9  C   UNL     1     112.549 129.515 137.616  0.00  0.00    +0.000 A 
ATOM     10  C   UNL     1     113.539 127.815 136.023  0.00  0.00    +0.000 A 
ATOM     11  C   UNL     1     113.485 130.496 137.162  0.00  0.00    +0.000 A 
ATOM     12  C   UNL     1     112.855 130.282 137.650  0.00  0.00    +0.000 A 
ENDROOT
BRANCH   6  13
ATOM     13  C   UNL     1     112.575 126.826 136.499  0.00  0.00    +0.000 A 
ATOM     14  C   UNL     1     111.921 126.663 136.023  0.00  0.00    +0.000 A 
ATOM     15  C   UNL     1     112.921 126.224 136.944  0.00  0.00    +0.000 A 
ATOM     16  C   UNL     1     111.614 125.898 135.992  0.00  0.00    +0.000 A 
ATOM     17  C   UNL     1     111.961 125.296 136.437  0.00  0.00    +0.000 A 
ATOM     18  C   UNL     1     112.614 125.459 136.913  0.00  0.00    +0.000 A 
BRANCH  16  19
ATOM     19  O   UNL     1     110.960 125.735 135.515  0.00  0.00    +0.000 OA
ATOM     20  C   UNL     1     110.621 126.335 135.062  0.00  0.00    +0.000 C 
ENDBRANCH  16  19
BRANCH  17  21
ATOM     21  O   UNL     1     111.653 124.531 136.405  0.00  0.00    +0.000 OA
BRANCH  21  22
ATOM     22  S   UNL     1     112.012 123.924 136.833  0.00  0.00    +0.000 S 
ATOM     23  O   UNL     1     112.372 123.318 137.262  0.00  0.00    +0.000 OA
ATOM     24  O   UNL     1     112.510 123.768 136.194  0.00  0.00    +0.000 OA
ATOM     25  O   UNL     1     111.514 124.081 137.472  0.00  0.00    +0.000 OA
ENDBRANCH  21  22
ENDBRANCH  17  21
ENDBRANCH   6  13
BRANCH  11  26
ATOM     26  O   UNL     1     113.790 131.261 137.196  0.00  0.00    +0.000 OA
ATOM     27  C   UNL     1     113.739 131.756 136.537  0.00  0.00    +0.000 C 
ENDBRANCH  11  26
BRANCH  12  28
ATOM     28  O   UNL     1     112.529 130.832 138.170  0.00  0.00    +0.000 OA
BRANCH  28  29
ATOM     29  S   UNL     1     112.018 130.584 138.768  0.00  0.00    +0.000 S 
ATOM     30  O   UNL     1     111.507 130.335 139.366  0.00  0.00    +0.000 OA
ATOM     31  O   UNL     1     111.375 130.694 138.263  0.00  0.00    +0.000 OA
ATOM     32  O   UNL     1     112.661 130.474 139.273  0.00  0.00    +0.000 OA
ENDBRANCH  28  29
ENDBRANCH  12  28
TORSDOF 7
ENDMDL
MODEL 9
REMARK VINA RESULT:      -7.6      3.425      4.546
REMARK  Name = 13845923
REMARK  7 active torsions:
REMARK  status: ('A' for Active; 'I' for Inactive)
REMARK    1  A    between atoms: S_1  and  O_4
REMARK    2  A    between atoms: S_2  and  O_9
REMARK    3  A    between atoms: O_4  and  C_25
REMARK    4  A    between atoms: O_5  and  C_24
REMARK    5  A    between atoms: O_7  and  C_28
REMARK    6  A    between atoms: O_9  and  C_29
REMARK    7  A    between atoms: C_18  and  C_19
REMARK                            x       y       z     vdW  Elec       q    Type
REMARK                         _______ _______ _______ _____ _____    ______ ____
ROOT
ATOM      1  O   UNL     1     110.330 128.648 136.202  0.00  0.00    +0.000 OA
ATOM      2  O   UNL     1     113.209 128.351 136.227  0.00  0.00    +0.000 OA
ATOM      3  O   UNL     1     112.643 129.675 136.298  0.00  0.00    +0.000 OA
ATOM      4  C   UNL     1     111.788 128.494 136.215  0.00  0.00    +0.000 A 
ATOM      5  C   UNL     1     111.036 128.157 136.183  0.00  0.00    +0.000 A 
ATOM      6  C   UNL     1     110.409 129.501 136.255  0.00  0.00    +0.000 A 
ATOM      7  C   UNL     1     112.457 128.013 136.196  0.00  0.00    +0.000 A 
ATOM      8  C   UNL     1     111.886 129.347 136.267  0.00  0.00    +0.000 A 
ATOM      9  C   UNL     1     110.952 127.338 136.133  0.00  0.00    +0.000 A 
ATOM     10  C   UNL     1     111.193 129.853 136.287  0.00  0.00    +0.000 A 
ATOM     11  C   UNL     1     112.375 127.193 136.146  0.00  0.00    +0.000 A 
ATOM     12  C   UNL     1     111.623 126.856 136.114  0.00  0.00    +0.000 A 
ENDROOT
BRANCH   6  13
ATOM     13  C   UNL     1     109.738 129.981 136.273  0.00  0.00    +0.000 A 
ATOM     14  C   UNL     1     109.439 130.243 136.996  0.00  0.00    +0.000 A 
ATOM     15  C   UNL     1     109.366 130.197 135.570  0.00  0.00    +0.000 A 
ATOM     16  C   UNL     1     108.768 130.723 137.015  0.00  0.00    +0.000 A 
ATOM     17  C   UNL     1     108.395 130.939 136.311  0.00  0.00    +0.000 A 
ATOM     18  C   UNL     1     108.694 130.676 135.588  0.00  0.00    +0.000 A 
BRANCH  16  19
ATOM     19  O   UNL     1     108.469 130.986 137.737  0.00  0.00    +0.000 OA
ATOM     20  C   UNL     1     108.901 130.867 138.430  0.00  0.00    +0.000 C 
ENDBRANCH  16  19
BRANCH  17  21
ATOM     21  O   UNL     1     107.724 131.419 136.330  0.00  0.00    +0.000 OA
BRANCH  21  22
ATOM     22  S   UNL     1     107.346 131.627 135.627  0.00  0.00    +0.000 S 
ATOM     23  O   UNL     1     106.968 131.836 134.924  0.00  0.00    +0.000 OA
ATOM     24  O   UNL     1     107.867 132.260 135.535  0.00  0.00    +0.000 OA
ATOM     25  O   UNL     1     106.825 130.994 135.719  0.00  0.00    +0.000 OA
ENDBRANCH  21  22
ENDBRANCH  17  21
ENDBRANCH   6  13
BRANCH  11  26
ATOM     26  O   UNL     1     113.044 126.712 136.127  0.00  0.00    +0.000 OA
ATOM     27  C   UNL     1     113.544 126.674 136.782  0.00  0.00    +0.000 C 
ENDBRANCH  11  26
BRANCH  12  28
ATOM     28  O   UNL     1     111.539 126.037 136.064  0.00  0.00    +0.000 OA
BRANCH  28  29
ATOM     29  S   UNL     1     110.822 125.708 135.824  0.00  0.00    +0.000 S 
ATOM     30  O   UNL     1     110.104 125.380 135.583  0.00  0.00    +0.000 OA
ATOM     31  O   UNL     1     111.042 125.804 135.034  0.00  0.00    +0.000 OA
ATOM     32  O   UNL     1     110.601 125.612 136.613  0.00  0.00    +0.000 OA
ENDBRANCH  28  29
ENDBRANCH  12  28
TORSDOF 7
ENDMDL
MODEL 10
REMARK VINA RESULT:      -7.6     12.727     14.176
REMARK  Name = 13845923
REMARK  7 active torsions:
REMARK  status: ('A' for Active; 'I' for Inactive)
REMARK    1  A    between atoms: S_1  and  O_4
REMARK    2  A    between atoms: S_2  and  O_9
REMARK    3  A    between atoms: O_4  and  C_25
REMARK    4  A    between atoms: O_5  and  C_24
REMARK    5  A    between atoms: O_7  and  C_28
REMARK    6  A    between atoms: O_9  and  C_29
REMARK    7  A    between atoms: C_18  and  C_19
REMARK                            x       y       z     vdW  Elec       q    Type
REMARK                         _______ _______ _______ _____ _____    ______ ____
ROOT
ATOM      1  O   UNL     1     104.407 125.092 147.123  0.00  0.00    +0.000 OA
ATOM      2  O   UNL     1     102.669 124.399 149.331  0.00  0.00    +0.000 OA
ATOM      3  O   UNL     1     103.746 125.330 149.556  0.00  0.00    +0.000 OA
ATOM      4  C   UNL     1     103.525 124.739 148.239  0.00  0.00    +0.000 A 
ATOM      5  C   UNL     1     103.738 124.659 147.446  0.00  0.00    +0.000 A 
ATOM      6  C   UNL     1     104.860 125.614 147.632  0.00  0.00    +0.000 A 
ATOM      7  C   UNL     1     102.882 124.319 148.538  0.00  0.00    +0.000 A 
ATOM      8  C   UNL     1     103.967 125.257 148.764  0.00  0.00    +0.000 A 
ATOM      9  C   UNL     1     103.307 124.159 146.951  0.00  0.00    +0.000 A 
ATOM     10  C   UNL     1     104.638 125.697 148.459  0.00  0.00    +0.000 A 
ATOM     11  C   UNL     1     102.450 123.818 148.044  0.00  0.00    +0.000 A 
ATOM     12  C   UNL     1     102.663 123.738 147.250  0.00  0.00    +0.000 A 
ENDROOT
BRANCH   6  13
ATOM     13  C   UNL     1     105.503 126.033 147.331  0.00  0.00    +0.000 A 
ATOM     14  C   UNL     1     106.267 125.734 147.416  0.00  0.00    +0.000 A 
ATOM     15  C   UNL     1     105.383 126.752 146.944  0.00  0.00    +0.000 A 
ATOM     16  C   UNL     1     106.911 126.153 147.115  0.00  0.00    +0.000 A 
ATOM     17  C   UNL     1     106.790 126.872 146.728  0.00  0.00    +0.000 A 
ATOM     18  C   UNL     1     106.026 127.171 146.643  0.00  0.00    +0.000 A 
BRANCH  16  19
ATOM     19  O   UNL     1     107.675 125.853 147.201  0.00  0.00    +0.000 OA
ATOM     20  C   UNL     1     107.813 125.212 147.701  0.00  0.00    +0.000 C 
ENDBRANCH  16  19
BRANCH  17  21
ATOM     21  O   UNL     1     107.435 127.291 146.427  0.00  0.00    +0.000 OA
BRANCH  21  22
ATOM     22  S   UNL     1     107.309 127.949 145.946  0.00  0.00    +0.000 S 
ATOM     23  O   UNL     1     107.184 128.607 145.465  0.00  0.00    +0.000 OA
ATOM     24  O   UNL     1     107.324 128.437 146.611  0.00  0.00    +0.000 OA
ATOM     25  O   UNL     1     107.295 127.460 145.281  0.00  0.00    +0.000 OA
ENDBRANCH  21  22
ENDBRANCH  17  21
ENDBRANCH   6  13
BRANCH  11  26
ATOM     26  O   UNL     1     101.807 123.398 148.342  0.00  0.00    +0.000 OA
ATOM     27  C   UNL     1     101.920 122.833 148.932  0.00  0.00    +0.000 C 
ENDBRANCH  11  26
BRANCH  12  28
ATOM     28  O   UNL     1     102.232 123.238 146.756  0.00  0.00    +0.000 OA
BRANCH  28  29
ATOM     29  S   UNL     1     102.328 123.284 145.938  0.00  0.00    +0.000 S 
ATOM     30  O   UNL     1     102.424 123.329 145.119  0.00  0.00    +0.000 OA
ATOM     31  O   UNL     1     101.709 123.828 145.895  0.00  0.00    +0.000 OA
ATOM     32  O   UNL     1     102.947 122.740 145.980  0.00  0.00    +0.000 OA
ENDBRANCH  28  29
ENDBRANCH  12  28
TORSDOF 7
ENDMDL
