MODEL 1
REMARK VINA RESULT:      -8.1      0.000      0.000
REMARK  Name = 131834139
REMARK  5 active torsions:
REMARK  status: ('A' for Active; 'I' for Inactive)
REMARK    1  A    between atoms: S_1  and  C_20
REMARK    2  A    between atoms: S_2  and  O_8
REMARK    3  A    between atoms: O_7  and  C_26
REMARK    4  A    between atoms: O_8  and  C_28
REMARK    5  A    between atoms: C_15  and  C_19
REMARK                            x       y       z     vdW  Elec       q    Type
REMARK                         _______ _______ _______ _____ _____    ______ ____
ROOT
ATOM      1  O   UNL     1     113.522 127.951 135.818  0.00  0.00    +0.000 OA
ATOM      2  O   UNL     1     112.275 128.021 137.677  0.00  0.00    +0.000 OA
ATOM      3  O   UNL     1     114.890 130.990 135.893  0.00  0.00    +0.000 OA
ATOM      4  O   UNL     1     115.249 129.948 134.665  0.00  0.00    +0.000 OA
ATOM      5  C   UNL     1     112.794 128.248 137.078  0.00  0.00    +0.000 C 
ATOM      6  C   UNL     1     112.981 127.705 136.438  0.00  0.00    +0.000 C 
ATOM      7  C   UNL     1     113.151 129.029 137.088  0.00  0.00    +0.000 C 
ATOM      8  C   UNL     1     113.691 129.257 136.459  0.00  0.00    +0.000 A 
ATOM      9  C   UNL     1     113.870 128.736 135.845  0.00  0.00    +0.000 A 
ATOM     10  C   UNL     1     114.031 130.009 136.475  0.00  0.00    +0.000 A 
ATOM     11  C   UNL     1     114.389 128.966 135.247  0.00  0.00    +0.000 A 
ATOM     12  C   UNL     1     114.550 130.238 135.877  0.00  0.00    +0.000 A 
ATOM     13  C   UNL     1     114.729 129.717 135.263  0.00  0.00    +0.000 A 
ENDROOT
BRANCH   6  14
ATOM     14  C   UNL     1     112.642 126.953 136.420  0.00  0.00    +0.000 A 
ATOM     15  C   UNL     1     111.961 126.818 135.973  0.00  0.00    +0.000 A 
ATOM     16  C   UNL     1     112.984 126.336 136.848  0.00  0.00    +0.000 A 
ATOM     17  C   UNL     1     111.622 126.066 135.955  0.00  0.00    +0.000 A 
ATOM     18  C   UNL     1     112.645 125.584 136.829  0.00  0.00    +0.000 A 
ATOM     19  C   UNL     1     111.964 125.449 136.383  0.00  0.00    +0.000 A 
BRANCH  17  20
ATOM     20  O   UNL     1     110.942 125.931 135.509  0.00  0.00    +0.000 OA
ATOM     21  C   UNL     1     110.687 126.496 134.964  0.00  0.00    +0.000 C 
ENDBRANCH  17  20
BRANCH  19  22
ATOM     22  O   UNL     1     111.625 124.697 136.364  0.00  0.00    +0.000 OA
BRANCH  22  23
ATOM     23  S   UNL     1     111.952 124.086 136.812  0.00  0.00    +0.000 S 
ATOM     24  O   UNL     1     112.279 123.475 137.260  0.00  0.00    +0.000 OA
ATOM     25  O   UNL     1     111.469 124.294 137.448  0.00  0.00    +0.000 OA
ATOM     26  O   UNL     1     112.434 123.878 136.176  0.00  0.00    +0.000 OA
ENDBRANCH  22  23
ENDBRANCH  19  22
ENDBRANCH   6  14
BRANCH  10  27
ATOM     27  S   UNL     1     113.851 130.530 137.089  0.00  0.00    +0.000 S 
ATOM     28  O   UNL     1     114.311 130.535 137.774  0.00  0.00    +0.000 OA
ATOM     29  O   UNL     1     113.212 131.047 137.019  0.00  0.00    +0.000 OA
ENDBRANCH  10  27
TORSDOF 5
ENDMDL
MODEL 2
REMARK VINA RESULT:      -8.1      1.088      5.060
REMARK  Name = 131834139
REMARK  5 active torsions:
REMARK  status: ('A' for Active; 'I' for Inactive)
REMARK    1  A    between atoms: S_1  and  C_20
REMARK    2  A    between atoms: S_2  and  O_8
REMARK    3  A    between atoms: O_7  and  C_26
REMARK    4  A    between atoms: O_8  and  C_28
REMARK    5  A    between atoms: C_15  and  C_19
REMARK                            x       y       z     vdW  Elec       q    Type
REMARK                         _______ _______ _______ _____ _____    ______ ____
ROOT
ATOM      1  O   UNL     1     113.618 126.884 136.891  0.00  0.00    +0.000 OA
ATOM      2  O   UNL     1     111.507 127.391 136.340  0.00  0.00    +0.000 OA
ATOM      3  O   UNL     1     113.409 123.562 137.090  0.00  0.00    +0.000 OA
ATOM      4  O   UNL     1     114.844 124.323 137.381  0.00  0.00    +0.000 OA
ATOM      5  C   UNL     1     112.177 126.952 136.536  0.00  0.00    +0.000 C 
ATOM      6  C   UNL     1     112.925 127.349 136.687  0.00  0.00    +0.000 C 
ATOM      7  C   UNL     1     112.134 126.097 136.590  0.00  0.00    +0.000 C 
ATOM      8  C   UNL     1     112.838 125.648 136.794  0.00  0.00    +0.000 A 
ATOM      9  C   UNL     1     113.555 126.028 136.940  0.00  0.00    +0.000 A 
ATOM     10  C   UNL     1     112.789 124.826 136.844  0.00  0.00    +0.000 A 
ATOM     11  C   UNL     1     114.223 125.587 137.135  0.00  0.00    +0.000 A 
ATOM     12  C   UNL     1     113.458 124.385 137.040  0.00  0.00    +0.000 A 
ATOM     13  C   UNL     1     114.175 124.765 137.185  0.00  0.00    +0.000 A 
ENDROOT
BRANCH   6  14
ATOM     14  C   UNL     1     112.976 128.171 136.638  0.00  0.00    +0.000 A 
ATOM     15  C   UNL     1     113.282 128.525 135.958  0.00  0.00    +0.000 A 
ATOM     16  C   UNL     1     112.722 128.639 137.268  0.00  0.00    +0.000 A 
ATOM     17  C   UNL     1     113.333 129.347 135.909  0.00  0.00    +0.000 A 
ATOM     18  C   UNL     1     112.774 129.461 137.219  0.00  0.00    +0.000 A 
ATOM     19  C   UNL     1     113.079 129.815 136.539  0.00  0.00    +0.000 A 
BRANCH  17  20
ATOM     20  O   UNL     1     113.638 129.701 135.229  0.00  0.00    +0.000 OA
ATOM     21  C   UNL     1     114.055 129.248 134.679  0.00  0.00    +0.000 C 
ENDBRANCH  17  20
BRANCH  19  22
ATOM     22  O   UNL     1     113.131 130.637 136.489  0.00  0.00    +0.000 OA
BRANCH  22  23
ATOM     23  S   UNL     1     112.824 131.107 137.094  0.00  0.00    +0.000 S 
ATOM     24  O   UNL     1     112.518 131.576 137.700  0.00  0.00    +0.000 OA
ATOM     25  O   UNL     1     112.087 131.105 136.723  0.00  0.00    +0.000 OA
ATOM     26  O   UNL     1     113.561 131.109 137.466  0.00  0.00    +0.000 OA
ENDBRANCH  22  23
ENDBRANCH  19  22
ENDBRANCH   6  14
BRANCH  10  27
ATOM     27  S   UNL     1     112.071 124.445 136.699  0.00  0.00    +0.000 S 
ATOM     28  O   UNL     1     111.878 124.208 135.933  0.00  0.00    +0.000 OA
ATOM     29  O   UNL     1     111.547 124.302 137.319  0.00  0.00    +0.000 OA
ENDBRANCH  10  27
TORSDOF 5
ENDMDL
MODEL 3
REMARK VINA RESULT:      -8.0      0.961      5.211
REMARK  Name = 131834139
REMARK  5 active torsions:
REMARK  status: ('A' for Active; 'I' for Inactive)
REMARK    1  A    between atoms: S_1  and  C_20
REMARK    2  A    between atoms: S_2  and  O_8
REMARK    3  A    between atoms: O_7  and  C_26
REMARK    4  A    between atoms: O_8  and  C_28
REMARK    5  A    between atoms: C_15  and  C_19
REMARK                            x       y       z     vdW  Elec       q    Type
REMARK                         _______ _______ _______ _____ _____    ______ ____
ROOT
ATOM      1  O   UNL     1     113.489 126.920 136.554  0.00  0.00    +0.000 OA
ATOM      2  O   UNL     1     111.830 128.236 135.821  0.00  0.00    +0.000 OA
ATOM      3  O   UNL     1     111.957 123.959 136.550  0.00  0.00    +0.000 OA
ATOM      4  O   UNL     1     113.532 124.078 137.025  0.00  0.00    +0.000 OA
ATOM      5  C   UNL     1     112.244 127.563 136.059  0.00  0.00    +0.000 C 
ATOM      6  C   UNL     1     113.065 127.626 136.307  0.00  0.00    +0.000 C 
ATOM      7  C   UNL     1     111.859 126.796 136.062  0.00  0.00    +0.000 C 
ATOM      8  C   UNL     1     112.298 126.101 136.312  0.00  0.00    +0.000 A 
ATOM      9  C   UNL     1     113.086 126.161 136.549  0.00  0.00    +0.000 A 
ATOM     10  C   UNL     1     111.921 125.367 136.312  0.00  0.00    +0.000 A 
ATOM     11  C   UNL     1     113.497 125.487 136.787  0.00  0.00    +0.000 A 
ATOM     12  C   UNL     1     112.333 124.693 136.550  0.00  0.00    +0.000 A 
ATOM     13  C   UNL     1     113.121 124.753 136.787  0.00  0.00    +0.000 A 
ENDROOT
BRANCH   6  14
ATOM     14  C   UNL     1     113.444 128.359 136.308  0.00  0.00    +0.000 A 
ATOM     15  C   UNL     1     113.430 128.830 136.985  0.00  0.00    +0.000 A 
ATOM     16  C   UNL     1     113.837 128.621 135.631  0.00  0.00    +0.000 A 
ATOM     17  C   UNL     1     113.809 129.563 136.986  0.00  0.00    +0.000 A 
ATOM     18  C   UNL     1     114.216 129.354 135.632  0.00  0.00    +0.000 A 
ATOM     19  C   UNL     1     114.201 129.825 136.309  0.00  0.00    +0.000 A 
BRANCH  17  20
ATOM     20  O   UNL     1     113.795 130.033 137.663  0.00  0.00    +0.000 OA
ATOM     21  C   UNL     1     113.440 129.753 138.353  0.00  0.00    +0.000 C 
ENDBRANCH  17  20
BRANCH  19  22
ATOM     22  O   UNL     1     114.580 130.558 136.311  0.00  0.00    +0.000 OA
BRANCH  22  23
ATOM     23  S   UNL     1     114.971 130.821 135.633  0.00  0.00    +0.000 S 
ATOM     24  O   UNL     1     115.362 131.084 134.956  0.00  0.00    +0.000 OA
ATOM     25  O   UNL     1     115.669 130.471 135.900  0.00  0.00    +0.000 OA
ATOM     26  O   UNL     1     114.273 131.171 135.367  0.00  0.00    +0.000 OA
ENDBRANCH  22  23
ENDBRANCH  19  22
ENDBRANCH   6  14
BRANCH  10  27
ATOM     27  S   UNL     1     111.134 125.307 136.074  0.00  0.00    +0.000 S 
ATOM     28  O   UNL     1     110.528 125.394 136.627  0.00  0.00    +0.000 OA
ATOM     29  O   UNL     1     110.951 125.160 135.283  0.00  0.00    +0.000 OA
ENDBRANCH  10  27
TORSDOF 5
ENDMDL
MODEL 4
REMARK VINA RESULT:      -7.9      3.286      5.244
REMARK  Name = 131834139
REMARK  5 active torsions:
REMARK  status: ('A' for Active; 'I' for Inactive)
REMARK    1  A    between atoms: S_1  and  C_20
REMARK    2  A    between atoms: S_2  and  O_8
REMARK    3  A    between atoms: O_7  and  C_26
REMARK    4  A    between atoms: O_8  and  C_28
REMARK    5  A    between atoms: C_15  and  C_19
REMARK                            x       y       z     vdW  Elec       q    Type
REMARK                         _______ _______ _______ _____ _____    ______ ____
ROOT
ATOM      1  O   UNL     1     112.031 125.876 138.594  0.00  0.00    +0.000 OA
ATOM      2  O   UNL     1     113.838 126.959 139.357  0.00  0.00    +0.000 OA
ATOM      3  O   UNL     1     113.420 123.972 136.235  0.00  0.00    +0.000 OA
ATOM      4  O   UNL     1     111.796 123.896 136.515  0.00  0.00    +0.000 OA
ATOM      5  C   UNL     1     113.364 126.450 138.914  0.00  0.00    +0.000 C 
ATOM      6  C   UNL     1     112.517 126.410 139.060  0.00  0.00    +0.000 C 
ATOM      7  C   UNL     1     113.712 125.955 138.304  0.00  0.00    +0.000 C 
ATOM      8  C   UNL     1     113.210 125.427 137.848  0.00  0.00    +0.000 A 
ATOM      9  C   UNL     1     112.398 125.389 137.988  0.00  0.00    +0.000 A 
ATOM     10  C   UNL     1     113.551 124.955 137.264  0.00  0.00    +0.000 A 
ATOM     11  C   UNL     1     111.927 124.879 137.543  0.00  0.00    +0.000 A 
ATOM     12  C   UNL     1     113.079 124.445 136.820  0.00  0.00    +0.000 A 
ATOM     13  C   UNL     1     112.267 124.407 136.959  0.00  0.00    +0.000 A 
ENDROOT
BRANCH   6  14
ATOM     14  C   UNL     1     112.174 126.881 139.643  0.00  0.00    +0.000 A 
ATOM     15  C   UNL     1     111.783 127.576 139.435  0.00  0.00    +0.000 A 
ATOM     16  C   UNL     1     112.223 126.657 140.436  0.00  0.00    +0.000 A 
ATOM     17  C   UNL     1     111.439 128.048 140.018  0.00  0.00    +0.000 A 
ATOM     18  C   UNL     1     111.880 127.128 141.020  0.00  0.00    +0.000 A 
ATOM     19  C   UNL     1     111.488 127.824 140.811  0.00  0.00    +0.000 A 
BRANCH  17  20
ATOM     20  O   UNL     1     111.048 128.743 139.810  0.00  0.00    +0.000 OA
ATOM     21  C   UNL     1     110.901 128.911 139.015  0.00  0.00    +0.000 C 
ENDBRANCH  17  20
BRANCH  19  22
ATOM     22  O   UNL     1     111.144 128.296 141.394  0.00  0.00    +0.000 OA
BRANCH  22  23
ATOM     23  S   UNL     1     111.269 128.122 142.191  0.00  0.00    +0.000 S 
ATOM     24  O   UNL     1     111.394 127.948 142.988  0.00  0.00    +0.000 OA
ATOM     25  O   UNL     1     110.590 127.654 142.196  0.00  0.00    +0.000 OA
ATOM     26  O   UNL     1     111.949 128.590 142.187  0.00  0.00    +0.000 OA
ENDBRANCH  22  23
ENDBRANCH  19  22
ENDBRANCH   6  14
BRANCH  10  27
ATOM     27  S   UNL     1     114.363 124.993 137.124  0.00  0.00    +0.000 S 
ATOM     28  O   UNL     1     114.878 124.500 137.539  0.00  0.00    +0.000 OA
ATOM     29  O   UNL     1     114.662 125.525 136.568  0.00  0.00    +0.000 OA
ENDBRANCH  10  27
TORSDOF 5
ENDMDL
MODEL 5
REMARK VINA RESULT:      -7.9     13.216     15.109
REMARK  Name = 131834139
REMARK  5 active torsions:
REMARK  status: ('A' for Active; 'I' for Inactive)
REMARK    1  A    between atoms: S_1  and  C_20
REMARK    2  A    between atoms: S_2  and  O_8
REMARK    3  A    between atoms: O_7  and  C_26
REMARK    4  A    between atoms: O_8  and  C_28
REMARK    5  A    between atoms: C_15  and  C_19
REMARK                            x       y       z     vdW  Elec       q    Type
REMARK                         _______ _______ _______ _____ _____    ______ ____
ROOT
ATOM      1  O   UNL     1     104.003 124.054 146.660  0.00  0.00    +0.000 OA
ATOM      2  O   UNL     1     103.797 124.713 148.791  0.00  0.00    +0.000 OA
ATOM      3  O   UNL     1     100.977 122.753 146.135  0.00  0.00    +0.000 OA
ATOM      4  O   UNL     1     102.102 122.753 144.928  0.00  0.00    +0.000 OA
ATOM      5  C   UNL     1     103.615 124.391 148.054  0.00  0.00    +0.000 C 
ATOM      6  C   UNL     1     104.201 124.391 147.425  0.00  0.00    +0.000 C 
ATOM      7  C   UNL     1     102.839 124.054 147.909  0.00  0.00    +0.000 C 
ATOM      8  C   UNL     1     102.658 123.720 147.137  0.00  0.00    +0.000 A 
ATOM      9  C   UNL     1     103.220 123.721 146.534  0.00  0.00    +0.000 A 
ATOM     10  C   UNL     1     101.910 123.398 147.005  0.00  0.00    +0.000 A 
ATOM     11  C   UNL     1     103.035 123.398 145.798  0.00  0.00    +0.000 A 
ATOM     12  C   UNL     1     101.726 123.076 146.268  0.00  0.00    +0.000 A 
ATOM     13  C   UNL     1     102.288 123.076 145.665  0.00  0.00    +0.000 A 
ENDROOT
BRANCH   6  14
ATOM     14  C   UNL     1     104.949 124.713 147.555  0.00  0.00    +0.000 A 
ATOM     15  C   UNL     1     105.099 125.500 147.360  0.00  0.00    +0.000 A 
ATOM     16  C   UNL     1     105.548 124.247 147.880  0.00  0.00    +0.000 A 
ATOM     17  C   UNL     1     105.847 125.822 147.490  0.00  0.00    +0.000 A 
ATOM     18  C   UNL     1     106.296 124.569 148.011  0.00  0.00    +0.000 A 
ATOM     19  C   UNL     1     106.446 125.357 147.815  0.00  0.00    +0.000 A 
BRANCH  17  20
ATOM     20  O   UNL     1     105.997 126.610 147.295  0.00  0.00    +0.000 OA
ATOM     21  C   UNL     1     105.437 127.044 146.873  0.00  0.00    +0.000 C 
ENDBRANCH  17  20
BRANCH  19  22
ATOM     22  O   UNL     1     107.194 125.680 147.946  0.00  0.00    +0.000 OA
BRANCH  22  23
ATOM     23  S   UNL     1     107.814 125.196 148.195  0.00  0.00    +0.000 S 
ATOM     24  O   UNL     1     108.434 124.711 148.444  0.00  0.00    +0.000 OA
ATOM     25  O   UNL     1     108.078 125.131 147.416  0.00  0.00    +0.000 OA
ATOM     26  O   UNL     1     107.551 125.260 148.974  0.00  0.00    +0.000 OA
ENDBRANCH  22  23
ENDBRANCH  19  22
ENDBRANCH   6  14
BRANCH  10  27
ATOM     27  S   UNL     1     101.348 123.398 147.608  0.00  0.00    +0.000 S 
ATOM     28  O   UNL     1     100.836 124.039 147.696  0.00  0.00    +0.000 OA
ATOM     29  O   UNL     1     101.296 122.757 148.125  0.00  0.00    +0.000 OA
ENDBRANCH  10  27
TORSDOF 5
ENDMDL
MODEL 6
REMARK VINA RESULT:      -7.8     12.804     14.069
REMARK  Name = 131834139
REMARK  5 active torsions:
REMARK  status: ('A' for Active; 'I' for Inactive)
REMARK    1  A    between atoms: S_1  and  C_20
REMARK    2  A    between atoms: S_2  and  O_8
REMARK    3  A    between atoms: O_7  and  C_26
REMARK    4  A    between atoms: O_8  and  C_28
REMARK    5  A    between atoms: C_15  and  C_19
REMARK                            x       y       z     vdW  Elec       q    Type
REMARK                         _______ _______ _______ _____ _____    ______ ____
ROOT
ATOM      1  O   UNL     1     104.663 125.830 146.721  0.00  0.00    +0.000 OA
ATOM      2  O   UNL     1     104.920 123.763 147.547  0.00  0.00    +0.000 OA
ATOM      3  O   UNL     1     107.788 126.968 146.960  0.00  0.00    +0.000 OA
ATOM      4  O   UNL     1     106.597 127.932 146.347  0.00  0.00    +0.000 OA
ATOM      5  C   UNL     1     105.094 124.530 147.297  0.00  0.00    +0.000 C 
ATOM      6  C   UNL     1     104.473 125.033 146.978  0.00  0.00    +0.000 C 
ATOM      7  C   UNL     1     105.895 124.833 147.355  0.00  0.00    +0.000 C 
ATOM      8  C   UNL     1     106.067 125.633 147.093  0.00  0.00    +0.000 A 
ATOM      9  C   UNL     1     105.471 126.115 146.786  0.00  0.00    +0.000 A 
ATOM     10  C   UNL     1     106.839 125.917 147.151  0.00  0.00    +0.000 A 
ATOM     11  C   UNL     1     105.648 126.881 146.538  0.00  0.00    +0.000 A 
ATOM     12  C   UNL     1     107.015 126.684 146.902  0.00  0.00    +0.000 A 
ATOM     13  C   UNL     1     106.420 127.165 146.595  0.00  0.00    +0.000 A 
ENDROOT
BRANCH   6  14
ATOM     14  C   UNL     1     103.700 124.751 146.919  0.00  0.00    +0.000 A 
ATOM     15  C   UNL     1     103.120 125.026 147.437  0.00  0.00    +0.000 A 
ATOM     16  C   UNL     1     103.507 124.193 146.342  0.00  0.00    +0.000 A 
ATOM     17  C   UNL     1     102.347 124.744 147.378  0.00  0.00    +0.000 A 
ATOM     18  C   UNL     1     102.734 123.911 146.283  0.00  0.00    +0.000 A 
ATOM     19  C   UNL     1     102.154 124.186 146.801  0.00  0.00    +0.000 A 
BRANCH  17  20
ATOM     20  O   UNL     1     101.767 125.019 147.896  0.00  0.00    +0.000 OA
ATOM     21  C   UNL     1     101.967 125.550 148.496  0.00  0.00    +0.000 C 
ENDBRANCH  17  20
BRANCH  19  22
ATOM     22  O   UNL     1     101.380 123.905 146.743  0.00  0.00    +0.000 OA
BRANCH  22  23
ATOM     23  S   UNL     1     101.195 123.322 146.189  0.00  0.00    +0.000 S 
ATOM     24  O   UNL     1     101.009 122.739 145.635  0.00  0.00    +0.000 OA
ATOM     25  O   UNL     1     101.075 123.904 145.617  0.00  0.00    +0.000 OA
ATOM     26  O   UNL     1     101.314 122.740 146.762  0.00  0.00    +0.000 OA
ENDBRANCH  22  23
ENDBRANCH  19  22
ENDBRANCH   6  14
BRANCH  10  27
ATOM     27  S   UNL     1     107.434 125.435 147.457  0.00  0.00    +0.000 S 
ATOM     28  O   UNL     1     107.546 125.384 148.273  0.00  0.00    +0.000 OA
ATOM     29  O   UNL     1     107.919 125.003 146.948  0.00  0.00    +0.000 OA
ENDBRANCH  10  27
TORSDOF 5
ENDMDL
MODEL 7
REMARK VINA RESULT:      -7.8      2.553      4.915
REMARK  Name = 131834139
REMARK  5 active torsions:
REMARK  status: ('A' for Active; 'I' for Inactive)
REMARK    1  A    between atoms: S_1  and  C_20
REMARK    2  A    between atoms: S_2  and  O_8
REMARK    3  A    between atoms: O_7  and  C_26
REMARK    4  A    between atoms: O_8  and  C_28
REMARK    5  A    between atoms: C_15  and  C_19
REMARK                            x       y       z     vdW  Elec       q    Type
REMARK                         _______ _______ _______ _____ _____    ______ ____
ROOT
ATOM      1  O   UNL     1     111.154 125.905 136.893  0.00  0.00    +0.000 OA
ATOM      2  O   UNL     1     112.378 127.778 136.779  0.00  0.00    +0.000 OA
ATOM      3  O   UNL     1     113.570 123.610 137.007  0.00  0.00    +0.000 OA
ATOM      4  O   UNL     1     111.985 123.151 137.044  0.00  0.00    +0.000 OA
ATOM      5  C   UNL     1     112.178 126.979 136.826  0.00  0.00    +0.000 C 
ATOM      6  C   UNL     1     111.352 126.739 136.845  0.00  0.00    +0.000 C 
ATOM      7  C   UNL     1     112.793 126.380 136.855  0.00  0.00    +0.000 C 
ATOM      8  C   UNL     1     112.575 125.550 136.904  0.00  0.00    +0.000 A 
ATOM      9  C   UNL     1     111.783 125.320 136.922  0.00  0.00    +0.000 A 
ATOM     10  C   UNL     1     113.171 124.980 136.932  0.00  0.00    +0.000 A 
ATOM     11  C   UNL     1     111.587 124.521 136.969  0.00  0.00    +0.000 A 
ATOM     12  C   UNL     1     112.974 124.181 136.979  0.00  0.00    +0.000 A 
ATOM     13  C   UNL     1     112.181 123.951 136.997  0.00  0.00    +0.000 A 
ENDROOT
BRANCH   6  14
ATOM     14  C   UNL     1     110.755 127.308 136.816  0.00  0.00    +0.000 A 
ATOM     15  C   UNL     1     110.407 127.575 137.515  0.00  0.00    +0.000 A 
ATOM     16  C   UNL     1     110.505 127.608 136.090  0.00  0.00    +0.000 A 
ATOM     17  C   UNL     1     109.809 128.143 137.487  0.00  0.00    +0.000 A 
ATOM     18  C   UNL     1     109.908 128.177 136.062  0.00  0.00    +0.000 A 
ATOM     19  C   UNL     1     109.560 128.444 136.760  0.00  0.00    +0.000 A 
BRANCH  17  20
ATOM     20  O   UNL     1     109.461 128.411 138.185  0.00  0.00    +0.000 OA
ATOM     21  C   UNL     1     109.759 128.165 138.915  0.00  0.00    +0.000 C 
ENDBRANCH  17  20
BRANCH  19  22
ATOM     22  O   UNL     1     108.962 129.013 136.733  0.00  0.00    +0.000 OA
BRANCH  22  23
ATOM     23  S   UNL     1     108.743 129.346 136.010  0.00  0.00    +0.000 S 
ATOM     24  O   UNL     1     108.525 129.679 135.288  0.00  0.00    +0.000 OA
ATOM     25  O   UNL     1     109.321 129.927 136.104  0.00  0.00    +0.000 OA
ATOM     26  O   UNL     1     108.166 128.764 135.917  0.00  0.00    +0.000 OA
ENDBRANCH  22  23
ENDBRANCH  19  22
ENDBRANCH   6  14
BRANCH  10  27
ATOM     27  S   UNL     1     113.963 125.210 136.914  0.00  0.00    +0.000 S 
ATOM     28  O   UNL     1     114.364 125.367 137.618  0.00  0.00    +0.000 OA
ATOM     29  O   UNL     1     114.356 125.282 136.192  0.00  0.00    +0.000 OA
ENDBRANCH  10  27
TORSDOF 5
ENDMDL
MODEL 8
REMARK VINA RESULT:      -7.8      2.795      5.549
REMARK  Name = 131834139
REMARK  5 active torsions:
REMARK  status: ('A' for Active; 'I' for Inactive)
REMARK    1  A    between atoms: S_1  and  C_20
REMARK    2  A    between atoms: S_2  and  O_8
REMARK    3  A    between atoms: O_7  and  C_26
REMARK    4  A    between atoms: O_8  and  C_28
REMARK    5  A    between atoms: C_15  and  C_19
REMARK                            x       y       z     vdW  Elec       q    Type
REMARK                         _______ _______ _______ _____ _____    ______ ____
ROOT
ATOM      1  O   UNL     1     113.681 126.405 138.233  0.00  0.00    +0.000 OA
ATOM      2  O   UNL     1     111.791 126.687 139.402  0.00  0.00    +0.000 OA
ATOM      3  O   UNL     1     112.764 123.935 136.189  0.00  0.00    +0.000 OA
ATOM      4  O   UNL     1     114.288 124.563 136.102  0.00  0.00    +0.000 OA
ATOM      5  C   UNL     1     112.331 126.391 138.853  0.00  0.00    +0.000 C 
ATOM      6  C   UNL     1     113.125 126.719 138.808  0.00  0.00    +0.000 C 
ATOM      7  C   UNL     1     112.105 125.755 138.322  0.00  0.00    +0.000 C 
ATOM      8  C   UNL     1     112.674 125.454 137.753  0.00  0.00    +0.000 A 
ATOM      9  C   UNL     1     113.436 125.768 137.710  0.00  0.00    +0.000 A 
ATOM     10  C   UNL     1     112.450 124.843 137.246  0.00  0.00    +0.000 A 
ATOM     11  C   UNL     1     113.973 125.471 137.160  0.00  0.00    +0.000 A 
ATOM     12  C   UNL     1     112.988 124.547 136.696  0.00  0.00    +0.000 A 
ATOM     13  C   UNL     1     113.750 124.861 136.653  0.00  0.00    +0.000 A 
ENDROOT
BRANCH   6  14
ATOM     14  C   UNL     1     113.351 127.330 139.313  0.00  0.00    +0.000 A 
ATOM     15  C   UNL     1     113.800 127.164 139.986  0.00  0.00    +0.000 A 
ATOM     16  C   UNL     1     113.129 128.107 139.147  0.00  0.00    +0.000 A 
ATOM     17  C   UNL     1     114.026 127.775 140.491  0.00  0.00    +0.000 A 
ATOM     18  C   UNL     1     113.355 128.718 139.653  0.00  0.00    +0.000 A 
ATOM     19  C   UNL     1     113.804 128.552 140.325  0.00  0.00    +0.000 A 
BRANCH  17  20
ATOM     20  O   UNL     1     114.475 127.610 141.164  0.00  0.00    +0.000 OA
ATOM     21  C   UNL     1     114.826 126.868 141.253  0.00  0.00    +0.000 C 
ENDBRANCH  17  20
BRANCH  19  22
ATOM     22  O   UNL     1     114.031 129.163 140.832  0.00  0.00    +0.000 OA
BRANCH  22  23
ATOM     23  S   UNL     1     113.794 129.938 140.674  0.00  0.00    +0.000 S 
ATOM     24  O   UNL     1     113.557 130.712 140.517  0.00  0.00    +0.000 OA
ATOM     25  O   UNL     1     114.481 130.058 140.233  0.00  0.00    +0.000 OA
ATOM     26  O   UNL     1     113.107 129.818 141.116  0.00  0.00    +0.000 OA
ENDBRANCH  22  23
ENDBRANCH  19  22
ENDBRANCH   6  14
BRANCH  10  27
ATOM     27  S   UNL     1     111.688 124.529 137.289  0.00  0.00    +0.000 S 
ATOM     28  O   UNL     1     111.083 124.849 136.829  0.00  0.00    +0.000 OA
ATOM     29  O   UNL     1     111.531 123.895 137.793  0.00  0.00    +0.000 OA
ENDBRANCH  10  27
TORSDOF 5
ENDMDL
MODEL 9
REMARK VINA RESULT:      -7.8      3.539      5.682
REMARK  Name = 131834139
REMARK  5 active torsions:
REMARK  status: ('A' for Active; 'I' for Inactive)
REMARK    1  A    between atoms: S_1  and  C_20
REMARK    2  A    between atoms: S_2  and  O_8
REMARK    3  A    between atoms: O_7  and  C_26
REMARK    4  A    between atoms: O_8  and  C_28
REMARK    5  A    between atoms: C_15  and  C_19
REMARK                            x       y       z     vdW  Elec       q    Type
REMARK                         _______ _______ _______ _____ _____    ______ ____
ROOT
ATOM      1  O   UNL     1     110.642 128.595 136.296  0.00  0.00    +0.000 OA
ATOM      2  O   UNL     1     108.571 127.742 136.256  0.00  0.00    +0.000 OA
ATOM      3  O   UNL     1     112.450 125.797 136.150  0.00  0.00    +0.000 OA
ATOM      4  O   UNL     1     113.197 127.266 136.223  0.00  0.00    +0.000 OA
ATOM      5  C   UNL     1     109.395 127.789 136.257  0.00  0.00    +0.000 C 
ATOM      6  C   UNL     1     109.784 128.555 136.296  0.00  0.00    +0.000 C 
ATOM      7  C   UNL     1     109.869 127.075 136.220  0.00  0.00    +0.000 C 
ATOM      8  C   UNL     1     110.727 127.134 136.221  0.00  0.00    +0.000 A 
ATOM      9  C   UNL     1     111.100 127.868 136.258  0.00  0.00    +0.000 A 
ATOM     10  C   UNL     1     111.176 126.443 136.185  0.00  0.00    +0.000 A 
ATOM     11  C   UNL     1     111.924 127.912 136.259  0.00  0.00    +0.000 A 
ATOM     12  C   UNL     1     112.000 126.488 136.186  0.00  0.00    +0.000 A 
ATOM     13  C   UNL     1     112.373 127.222 136.223  0.00  0.00    +0.000 A 
ENDROOT
BRANCH   6  14
ATOM     14  C   UNL     1     109.337 129.247 136.332  0.00  0.00    +0.000 A 
ATOM     15  C   UNL     1     109.210 129.619 137.057  0.00  0.00    +0.000 A 
ATOM     16  C   UNL     1     109.015 129.567 135.642  0.00  0.00    +0.000 A 
ATOM     17  C   UNL     1     108.763 130.311 137.093  0.00  0.00    +0.000 A 
ATOM     18  C   UNL     1     108.568 130.259 135.679  0.00  0.00    +0.000 A 
ATOM     19  C   UNL     1     108.441 130.631 136.404  0.00  0.00    +0.000 A 
BRANCH  17  20
ATOM     20  O   UNL     1     108.636 130.683 137.819  0.00  0.00    +0.000 OA
ATOM     21  C   UNL     1     109.115 130.500 138.465  0.00  0.00    +0.000 C 
ENDBRANCH  17  20
BRANCH  19  22
ATOM     22  O   UNL     1     107.993 131.324 136.441  0.00  0.00    +0.000 OA
BRANCH  22  23
ATOM     23  S   UNL     1     107.632 131.618 135.760  0.00  0.00    +0.000 S 
ATOM     24  O   UNL     1     107.271 131.912 135.079  0.00  0.00    +0.000 OA
ATOM     25  O   UNL     1     108.287 132.101 135.622  0.00  0.00    +0.000 OA
ATOM     26  O   UNL     1     106.978 131.134 135.898  0.00  0.00    +0.000 OA
ENDBRANCH  22  23
ENDBRANCH  19  22
ENDBRANCH   6  14
BRANCH  10  27
ATOM     27  S   UNL     1     110.802 125.708 136.148  0.00  0.00    +0.000 S 
ATOM     28  O   UNL     1     110.607 125.381 135.417  0.00  0.00    +0.000 OA
ATOM     29  O   UNL     1     110.623 125.301 136.842  0.00  0.00    +0.000 OA
ENDBRANCH  10  27
TORSDOF 5
ENDMDL
MODEL 10
REMARK VINA RESULT:      -7.7     10.987     12.548
REMARK  Name = 131834139
REMARK  5 active torsions:
REMARK  status: ('A' for Active; 'I' for Inactive)
REMARK    1  A    between atoms: S_1  and  C_20
REMARK    2  A    between atoms: S_2  and  O_8
REMARK    3  A    between atoms: O_7  and  C_26
REMARK    4  A    between atoms: O_8  and  C_28
REMARK    5  A    between atoms: C_15  and  C_19
REMARK                            x       y       z     vdW  Elec       q    Type
REMARK                         _______ _______ _______ _____ _____    ______ ____
ROOT
ATOM      1  O   UNL     1     106.617 125.159 146.296  0.00  0.00    +0.000 OA
ATOM      2  O   UNL     1     104.468 125.488 145.757  0.00  0.00    +0.000 OA
ATOM      3  O   UNL     1     106.375 124.899 149.612  0.00  0.00    +0.000 OA
ATOM      4  O   UNL     1     107.845 124.771 148.874  0.00  0.00    +0.000 OA
ATOM      5  C   UNL     1     105.148 125.359 146.206  0.00  0.00    +0.000 C 
ATOM      6  C   UNL     1     105.914 125.293 145.821  0.00  0.00    +0.000 C 
ATOM      7  C   UNL     1     105.096 125.291 147.060  0.00  0.00    +0.000 C 
ATOM      8  C   UNL     1     105.810 125.157 147.520  0.00  0.00    +0.000 A 
ATOM      9  C   UNL     1     106.545 125.093 147.151  0.00  0.00    +0.000 A 
ATOM     10  C   UNL     1     105.753 125.092 148.340  0.00  0.00    +0.000 A 
ATOM     11  C   UNL     1     107.223 124.965 147.602  0.00  0.00    +0.000 A 
ATOM     12  C   UNL     1     106.432 124.964 148.791  0.00  0.00    +0.000 A 
ATOM     13  C   UNL     1     107.167 124.900 148.422  0.00  0.00    +0.000 A 
ENDROOT
BRANCH   6  14
ATOM     14  C   UNL     1     105.974 125.358 145.001  0.00  0.00    +0.000 A 
ATOM     15  C   UNL     1     106.203 126.073 144.659  0.00  0.00    +0.000 A 
ATOM     16  C   UNL     1     105.804 124.707 144.523  0.00  0.00    +0.000 A 
ATOM     17  C   UNL     1     106.262 126.137 143.839  0.00  0.00    +0.000 A 
ATOM     18  C   UNL     1     105.863 124.772 143.702  0.00  0.00    +0.000 A 
ATOM     19  C   UNL     1     106.092 125.487 143.360  0.00  0.00    +0.000 A 
BRANCH  17  20
ATOM     20  O   UNL     1     106.492 126.852 143.497  0.00  0.00    +0.000 OA
ATOM     21  C   UNL     1     106.751 127.473 143.974  0.00  0.00    +0.000 C 
ENDBRANCH  17  20
BRANCH  19  22
ATOM     22  O   UNL     1     106.152 125.552 142.540  0.00  0.00    +0.000 OA
BRANCH  22  23
ATOM     23  S   UNL     1     106.018 124.892 142.063  0.00  0.00    +0.000 S 
ATOM     24  O   UNL     1     105.884 124.232 141.587  0.00  0.00    +0.000 OA
ATOM     25  O   UNL     1     105.221 125.096 142.004  0.00  0.00    +0.000 OA
ATOM     26  O   UNL     1     106.816 124.688 142.122  0.00  0.00    +0.000 OA
ENDBRANCH  22  23
ENDBRANCH  19  22
ENDBRANCH   6  14
BRANCH  10  27
ATOM     27  S   UNL     1     105.018 125.156 148.709  0.00  0.00    +0.000 S 
ATOM     28  O   UNL     1     104.747 125.891 148.965  0.00  0.00    +0.000 OA
ATOM     29  O   UNL     1     104.553 124.484 148.822  0.00  0.00    +0.000 OA
ENDBRANCH  10  27
TORSDOF 5
ENDMDL
