MODEL 1
REMARK VINA RESULT:     -10.4      0.000      0.000
REMARK  Name = null
REMARK  3 active torsions:
REMARK  status: ('A' for Active; 'I' for Inactive)
REMARK    1  A    between atoms: C_6  and  O_8
REMARK    2  A    between atoms: O_8  and  C_9
REMARK    3  A    between atoms: C_10  and  C_22
REMARK                            x       y       z     vdW  Elec       q    Type
REMARK                         _______ _______ _______ _____ _____    ______ ____
ROOT
ATOM      1  C   UNL     1     105.805 124.999 146.461  0.00  0.00    +0.000 A 
ATOM      2  C   UNL     1     105.321 124.623 147.015  0.00  0.00    +0.000 A 
ATOM      3  O   UNL     1     105.623 124.420 147.755  0.00  0.00    +0.000 OA
ATOM      4  C   UNL     1     106.407 124.592 147.943  0.00  0.00    +0.000 A 
ATOM      5  C   UNL     1     106.708 124.389 148.684  0.00  0.00    +0.000 A 
ATOM      6  C   UNL     1     107.492 124.561 148.871  0.00  0.00    +0.000 A 
ATOM      7  C   UNL     1     107.976 124.937 148.318  0.00  0.00    +0.000 A 
ATOM      8  C   UNL     1     107.675 125.140 147.578  0.00  0.00    +0.000 A 
ATOM      9  C   UNL     1     106.891 124.968 147.389  0.00  0.00    +0.000 A 
ATOM     10  C   UNL     1     106.589 125.171 146.649  0.00  0.00    +0.000 A 
ATOM     11  O   UNL     1     107.073 125.547 146.096  0.00  0.00    +0.000 OA
ATOM     12  O   UNL     1     108.159 125.516 147.025  0.00  0.00    +0.000 OA
ATOM     13  O   UNL     1     107.794 124.358 149.612  0.00  0.00    +0.000 OA
ENDROOT
BRANCH   2  14
ATOM     14  C   UNL     1     104.537 124.450 146.827  0.00  0.00    +0.000 A 
ATOM     15  C   UNL     1     103.924 124.880 147.174  0.00  0.00    +0.000 A 
ATOM     16  C   UNL     1     103.140 124.708 146.986  0.00  0.00    +0.000 A 
ATOM     17  C   UNL     1     102.968 124.105 146.449  0.00  0.00    +0.000 A 
ATOM     18  C   UNL     1     103.580 123.675 146.101  0.00  0.00    +0.000 A 
ATOM     19  C   UNL     1     104.365 123.848 146.290  0.00  0.00    +0.000 A 
ATOM     20  O   UNL     1     102.184 123.932 146.260  0.00  0.00    +0.000 OA
ATOM     21  O   UNL     1     102.528 125.137 147.333  0.00  0.00    +0.000 OA
ENDBRANCH   2  14
BRANCH   1  22
ATOM     22  O   UNL     1     105.504 125.202 145.721  0.00  0.00    +0.000 OA
BRANCH  22  28
ATOM     23  C   UNL     1     105.285 127.983 146.341  0.00  0.00    +0.000 C 
ATOM     24  C   UNL     1     105.394 127.380 145.788  0.00  0.00    +0.000 C 
ATOM     25  C   UNL     1     105.505 127.567 144.992  0.00  0.00    +0.000 C 
ATOM     26  C   UNL     1     105.615 126.964 144.438  0.00  0.00    +0.000 C 
ATOM     27  C   UNL     1     105.614 126.177 144.681  0.00  0.00    +0.000 C 
ATOM     28  C   UNL     1     105.504 125.990 145.478  0.00  0.00    +0.000 C 
ATOM     29  O   UNL     1     105.394 126.593 146.031  0.00  0.00    +0.000 OA
ATOM     30  O   UNL     1     105.724 125.574 144.128  0.00  0.00    +0.000 OA
ATOM     31  O   UNL     1     105.725 127.151 143.642  0.00  0.00    +0.000 OA
ATOM     32  O   UNL     1     105.505 128.355 144.749  0.00  0.00    +0.000 OA
ENDBRANCH  22  28
ENDBRANCH   1  22
TORSDOF 3
ENDMDL
MODEL 2
REMARK VINA RESULT:     -10.3      1.488      4.018
REMARK  Name = null
REMARK  3 active torsions:
REMARK  status: ('A' for Active; 'I' for Inactive)
REMARK    1  A    between atoms: C_6  and  O_8
REMARK    2  A    between atoms: O_8  and  C_9
REMARK    3  A    between atoms: C_10  and  C_22
REMARK                            x       y       z     vdW  Elec       q    Type
REMARK                         _______ _______ _______ _____ _____    ______ ____
ROOT
ATOM      1  C   UNL     1     105.160 125.617 147.067  0.00  0.00    +0.000 A 
ATOM      2  C   UNL     1     104.514 126.056 147.337  0.00  0.00    +0.000 A 
ATOM      3  O   UNL     1     103.753 125.744 147.284  0.00  0.00    +0.000 OA
ATOM      4  C   UNL     1     103.636 124.994 146.962  0.00  0.00    +0.000 A 
ATOM      5  C   UNL     1     102.874 124.681 146.909  0.00  0.00    +0.000 A 
ATOM      6  C   UNL     1     102.757 123.931 146.587  0.00  0.00    +0.000 A 
ATOM      7  C   UNL     1     103.403 123.493 146.317  0.00  0.00    +0.000 A 
ATOM      8  C   UNL     1     104.164 123.805 146.370  0.00  0.00    +0.000 A 
ATOM      9  C   UNL     1     104.282 124.555 146.692  0.00  0.00    +0.000 A 
ATOM     10  C   UNL     1     105.043 124.868 146.745  0.00  0.00    +0.000 A 
ATOM     11  O   UNL     1     105.688 124.429 146.475  0.00  0.00    +0.000 OA
ATOM     12  O   UNL     1     104.809 123.367 146.100  0.00  0.00    +0.000 OA
ATOM     13  O   UNL     1     101.995 123.618 146.534  0.00  0.00    +0.000 OA
ENDROOT
BRANCH   2  14
ATOM     14  C   UNL     1     104.631 126.806 147.660  0.00  0.00    +0.000 A 
ATOM     15  C   UNL     1     104.575 126.920 148.475  0.00  0.00    +0.000 A 
ATOM     16  C   UNL     1     104.692 127.670 148.797  0.00  0.00    +0.000 A 
ATOM     17  C   UNL     1     104.866 128.308 148.303  0.00  0.00    +0.000 A 
ATOM     18  C   UNL     1     104.923 128.195 147.488  0.00  0.00    +0.000 A 
ATOM     19  C   UNL     1     104.806 127.444 147.166  0.00  0.00    +0.000 A 
ATOM     20  O   UNL     1     104.984 129.058 148.624  0.00  0.00    +0.000 OA
ATOM     21  O   UNL     1     104.635 127.783 149.611  0.00  0.00    +0.000 OA
ENDBRANCH   2  14
BRANCH   1  22
ATOM     22  O   UNL     1     105.921 125.930 147.120  0.00  0.00    +0.000 OA
BRANCH  22  28
ATOM     23  C   UNL     1     106.632 124.325 149.376  0.00  0.00    +0.000 C 
ATOM     24  C   UNL     1     106.849 124.741 148.698  0.00  0.00    +0.000 C 
ATOM     25  C   UNL     1     107.642 124.771 148.469  0.00  0.00    +0.000 C 
ATOM     26  C   UNL     1     107.861 125.187 147.790  0.00  0.00    +0.000 C 
ATOM     27  C   UNL     1     107.288 125.573 147.341  0.00  0.00    +0.000 C 
ATOM     28  C   UNL     1     106.495 125.544 147.570  0.00  0.00    +0.000 C 
ATOM     29  O   UNL     1     106.276 125.127 148.249  0.00  0.00    +0.000 OA
ATOM     30  O   UNL     1     107.506 125.989 146.663  0.00  0.00    +0.000 OA
ATOM     31  O   UNL     1     108.653 125.216 147.563  0.00  0.00    +0.000 OA
ATOM     32  O   UNL     1     108.216 124.384 148.919  0.00  0.00    +0.000 OA
ENDBRANCH  22  28
ENDBRANCH   1  22
TORSDOF 3
ENDMDL
MODEL 3
REMARK VINA RESULT:      -9.8      1.508      4.055
REMARK  Name = null
REMARK  3 active torsions:
REMARK  status: ('A' for Active; 'I' for Inactive)
REMARK    1  A    between atoms: C_6  and  O_8
REMARK    2  A    between atoms: O_8  and  C_9
REMARK    3  A    between atoms: C_10  and  C_22
REMARK                            x       y       z     vdW  Elec       q    Type
REMARK                         _______ _______ _______ _____ _____    ______ ____
ROOT
ATOM      1  C   UNL     1     104.760 125.186 147.874  0.00  0.00    +0.000 A 
ATOM      2  C   UNL     1     105.314 124.663 147.556  0.00  0.00    +0.000 A 
ATOM      3  O   UNL     1     105.075 124.086 147.018  0.00  0.00    +0.000 OA
ATOM      4  C   UNL     1     104.283 124.030 146.797  0.00  0.00    +0.000 A 
ATOM      5  C   UNL     1     104.043 123.453 146.259  0.00  0.00    +0.000 A 
ATOM      6  C   UNL     1     103.251 123.397 146.038  0.00  0.00    +0.000 A 
ATOM      7  C   UNL     1     102.697 123.921 146.356  0.00  0.00    +0.000 A 
ATOM      8  C   UNL     1     102.936 124.498 146.894  0.00  0.00    +0.000 A 
ATOM      9  C   UNL     1     103.729 124.554 147.115  0.00  0.00    +0.000 A 
ATOM     10  C   UNL     1     103.967 125.131 147.653  0.00  0.00    +0.000 A 
ATOM     11  O   UNL     1     103.413 125.653 147.970  0.00  0.00    +0.000 OA
ATOM     12  O   UNL     1     102.382 125.020 147.211  0.00  0.00    +0.000 OA
ATOM     13  O   UNL     1     103.012 122.820 145.500  0.00  0.00    +0.000 OA
ENDROOT
BRANCH   2  14
ATOM     14  C   UNL     1     106.107 124.719 147.778  0.00  0.00    +0.000 A 
ATOM     15  C   UNL     1     106.665 125.019 147.248  0.00  0.00    +0.000 A 
ATOM     16  C   UNL     1     107.457 125.075 147.470  0.00  0.00    +0.000 A 
ATOM     17  C   UNL     1     107.693 124.830 148.222  0.00  0.00    +0.000 A 
ATOM     18  C   UNL     1     107.137 124.529 148.752  0.00  0.00    +0.000 A 
ATOM     19  C   UNL     1     106.343 124.474 148.529  0.00  0.00    +0.000 A 
ATOM     20  O   UNL     1     108.485 124.885 148.444  0.00  0.00    +0.000 OA
ATOM     21  O   UNL     1     108.013 125.375 146.941  0.00  0.00    +0.000 OA
ENDBRANCH   2  14
BRANCH   1  22
ATOM     22  O   UNL     1     104.999 125.764 148.412  0.00  0.00    +0.000 OA
BRANCH  22  28
ATOM     23  C   UNL     1     104.933 127.876 146.488  0.00  0.00    +0.000 C 
ATOM     24  C   UNL     1     104.866 127.618 147.268  0.00  0.00    +0.000 C 
ATOM     25  C   UNL     1     104.700 128.160 147.869  0.00  0.00    +0.000 C 
ATOM     26  C   UNL     1     104.633 127.902 148.650  0.00  0.00    +0.000 C 
ATOM     27  C   UNL     1     104.733 127.104 148.831  0.00  0.00    +0.000 C 
ATOM     28  C   UNL     1     104.899 126.563 148.231  0.00  0.00    +0.000 C 
ATOM     29  O   UNL     1     104.966 126.820 147.449  0.00  0.00    +0.000 OA
ATOM     30  O   UNL     1     104.666 126.847 149.612  0.00  0.00    +0.000 OA
ATOM     31  O   UNL     1     104.466 128.444 149.249  0.00  0.00    +0.000 OA
ATOM     32  O   UNL     1     104.600 128.958 147.687  0.00  0.00    +0.000 OA
ENDBRANCH  22  28
ENDBRANCH   1  22
TORSDOF 3
ENDMDL
MODEL 4
REMARK VINA RESULT:      -9.7     11.786     12.940
REMARK  Name = null
REMARK  3 active torsions:
REMARK  status: ('A' for Active; 'I' for Inactive)
REMARK    1  A    between atoms: C_6  and  O_8
REMARK    2  A    between atoms: O_8  and  C_9
REMARK    3  A    between atoms: C_10  and  C_22
REMARK                            x       y       z     vdW  Elec       q    Type
REMARK                         _______ _______ _______ _____ _____    ______ ____
ROOT
ATOM      1  C   UNL     1     112.249 126.832 136.760  0.00  0.00    +0.000 A 
ATOM      2  C   UNL     1     112.429 126.057 136.537  0.00  0.00    +0.000 A 
ATOM      3  O   UNL     1     111.905 125.632 136.063  0.00  0.00    +0.000 OA
ATOM      4  C   UNL     1     111.201 125.980 135.812  0.00  0.00    +0.000 A 
ATOM      5  C   UNL     1     110.676 125.555 135.339  0.00  0.00    +0.000 A 
ATOM      6  C   UNL     1     109.972 125.902 135.088  0.00  0.00    +0.000 A 
ATOM      7  C   UNL     1     109.791 126.677 135.311  0.00  0.00    +0.000 A 
ATOM      8  C   UNL     1     110.315 127.102 135.784  0.00  0.00    +0.000 A 
ATOM      9  C   UNL     1     111.021 126.754 136.036  0.00  0.00    +0.000 A 
ATOM     10  C   UNL     1     111.545 127.180 136.509  0.00  0.00    +0.000 A 
ATOM     11  O   UNL     1     111.365 127.953 136.732  0.00  0.00    +0.000 OA
ATOM     12  O   UNL     1     110.135 127.876 136.007  0.00  0.00    +0.000 OA
ATOM     13  O   UNL     1     109.447 125.477 134.614  0.00  0.00    +0.000 OA
ENDROOT
BRANCH   2  14
ATOM     14  C   UNL     1     113.134 125.710 136.788  0.00  0.00    +0.000 A 
ATOM     15  C   UNL     1     113.760 125.614 136.258  0.00  0.00    +0.000 A 
ATOM     16  C   UNL     1     114.464 125.266 136.510  0.00  0.00    +0.000 A 
ATOM     17  C   UNL     1     114.544 125.015 137.291  0.00  0.00    +0.000 A 
ATOM     18  C   UNL     1     113.919 125.110 137.822  0.00  0.00    +0.000 A 
ATOM     19  C   UNL     1     113.214 125.458 137.569  0.00  0.00    +0.000 A 
ATOM     20  O   UNL     1     115.248 124.667 137.544  0.00  0.00    +0.000 OA
ATOM     21  O   UNL     1     115.089 125.170 135.980  0.00  0.00    +0.000 OA
ENDBRANCH   2  14
BRANCH   1  22
ATOM     22  O   UNL     1     112.774 127.257 137.234  0.00  0.00    +0.000 OA
BRANCH  22  28
ATOM     23  C   UNL     1     113.756 128.890 135.103  0.00  0.00    +0.000 C 
ATOM     24  C   UNL     1     113.572 128.790 135.901  0.00  0.00    +0.000 C 
ATOM     25  C   UNL     1     113.696 129.410 136.433  0.00  0.00    +0.000 C 
ATOM     26  C   UNL     1     113.512 129.311 137.232  0.00  0.00    +0.000 C 
ATOM     27  C   UNL     1     113.205 128.594 137.498  0.00  0.00    +0.000 C 
ATOM     28  C   UNL     1     113.081 127.975 136.967  0.00  0.00    +0.000 C 
ATOM     29  O   UNL     1     113.265 128.074 136.168  0.00  0.00    +0.000 OA
ATOM     30  O   UNL     1     113.021 128.495 138.296  0.00  0.00    +0.000 OA
ATOM     31  O   UNL     1     113.636 129.930 137.762  0.00  0.00    +0.000 OA
ATOM     32  O   UNL     1     114.003 130.127 136.166  0.00  0.00    +0.000 OA
ENDBRANCH  22  28
ENDBRANCH   1  22
TORSDOF 3
ENDMDL
MODEL 5
REMARK VINA RESULT:      -9.6     10.613     12.000
REMARK  Name = null
REMARK  3 active torsions:
REMARK  status: ('A' for Active; 'I' for Inactive)
REMARK    1  A    between atoms: C_6  and  O_8
REMARK    2  A    between atoms: O_8  and  C_9
REMARK    3  A    between atoms: C_10  and  C_22
REMARK                            x       y       z     vdW  Elec       q    Type
REMARK                         _______ _______ _______ _____ _____    ______ ____
ROOT
ATOM      1  C   UNL     1     111.821 126.335 136.145  0.00  0.00    +0.000 A 
ATOM      2  C   UNL     1     111.089 125.976 136.276  0.00  0.00    +0.000 A 
ATOM      3  O   UNL     1     111.053 125.186 136.510  0.00  0.00    +0.000 OA
ATOM      4  C   UNL     1     111.748 124.754 136.612  0.00  0.00    +0.000 A 
ATOM      5  C   UNL     1     111.713 123.963 136.845  0.00  0.00    +0.000 A 
ATOM      6  C   UNL     1     112.408 123.532 136.948  0.00  0.00    +0.000 A 
ATOM      7  C   UNL     1     113.140 123.891 136.817  0.00  0.00    +0.000 A 
ATOM      8  C   UNL     1     113.176 124.681 136.583  0.00  0.00    +0.000 A 
ATOM      9  C   UNL     1     112.480 125.113 136.481  0.00  0.00    +0.000 A 
ATOM     10  C   UNL     1     112.516 125.903 136.247  0.00  0.00    +0.000 A 
ATOM     11  O   UNL     1     113.247 126.262 136.116  0.00  0.00    +0.000 OA
ATOM     12  O   UNL     1     113.907 125.039 136.452  0.00  0.00    +0.000 OA
ATOM     13  O   UNL     1     112.373 122.741 137.181  0.00  0.00    +0.000 OA
ENDROOT
BRANCH   2  14
ATOM     14  C   UNL     1     110.394 126.408 136.174  0.00  0.00    +0.000 A 
ATOM     15  C   UNL     1     109.971 126.674 136.831  0.00  0.00    +0.000 A 
ATOM     16  C   UNL     1     109.277 127.106 136.728  0.00  0.00    +0.000 A 
ATOM     17  C   UNL     1     109.004 127.273 135.967  0.00  0.00    +0.000 A 
ATOM     18  C   UNL     1     109.426 127.008 135.310  0.00  0.00    +0.000 A 
ATOM     19  C   UNL     1     110.121 126.575 135.413  0.00  0.00    +0.000 A 
ATOM     20  O   UNL     1     108.309 127.705 135.863  0.00  0.00    +0.000 OA
ATOM     21  O   UNL     1     108.855 127.371 137.384  0.00  0.00    +0.000 OA
ENDBRANCH   2  14
BRANCH   1  22
ATOM     22  O   UNL     1     111.857 127.125 135.912  0.00  0.00    +0.000 OA
BRANCH  22  28
ATOM     23  C   UNL     1     112.696 128.047 138.483  0.00  0.00    +0.000 C 
ATOM     24  C   UNL     1     112.678 128.135 137.663  0.00  0.00    +0.000 C 
ATOM     25  C   UNL     1     113.063 128.774 137.309  0.00  0.00    +0.000 C 
ATOM     26  C   UNL     1     113.045 128.863 136.488  0.00  0.00    +0.000 C 
ATOM     27  C   UNL     1     112.643 128.314 136.023  0.00  0.00    +0.000 C 
ATOM     28  C   UNL     1     112.259 127.675 136.377  0.00  0.00    +0.000 C 
ATOM     29  O   UNL     1     112.276 127.586 137.198  0.00  0.00    +0.000 OA
ATOM     30  O   UNL     1     112.625 128.402 135.203  0.00  0.00    +0.000 OA
ATOM     31  O   UNL     1     113.429 129.501 136.135  0.00  0.00    +0.000 OA
ATOM     32  O   UNL     1     113.465 129.324 137.775  0.00  0.00    +0.000 OA
ENDBRANCH  22  28
ENDBRANCH   1  22
TORSDOF 3
ENDMDL
MODEL 6
REMARK VINA RESULT:      -9.5      9.940     12.120
REMARK  Name = null
REMARK  3 active torsions:
REMARK  status: ('A' for Active; 'I' for Inactive)
REMARK    1  A    between atoms: C_6  and  O_8
REMARK    2  A    between atoms: O_8  and  C_9
REMARK    3  A    between atoms: C_10  and  C_22
REMARK                            x       y       z     vdW  Elec       q    Type
REMARK                         _______ _______ _______ _____ _____    ______ ____
ROOT
ATOM      1  C   UNL     1     112.757 127.140 137.754  0.00  0.00    +0.000 A 
ATOM      2  C   UNL     1     113.208 126.821 137.140  0.00  0.00    +0.000 A 
ATOM      3  O   UNL     1     113.559 127.320 136.585  0.00  0.00    +0.000 OA
ATOM      4  C   UNL     1     113.461 128.136 136.643  0.00  0.00    +0.000 A 
ATOM      5  C   UNL     1     113.813 128.635 136.088  0.00  0.00    +0.000 A 
ATOM      6  C   UNL     1     113.714 129.452 136.146  0.00  0.00    +0.000 A 
ATOM      7  C   UNL     1     113.264 129.771 136.760  0.00  0.00    +0.000 A 
ATOM      8  C   UNL     1     112.912 129.272 137.315  0.00  0.00    +0.000 A 
ATOM      9  C   UNL     1     113.010 128.455 137.257  0.00  0.00    +0.000 A 
ATOM     10  C   UNL     1     112.659 127.957 137.812  0.00  0.00    +0.000 A 
ATOM     11  O   UNL     1     112.209 128.275 138.426  0.00  0.00    +0.000 OA
ATOM     12  O   UNL     1     112.462 129.591 137.928  0.00  0.00    +0.000 OA
ATOM     13  O   UNL     1     114.066 129.951 135.590  0.00  0.00    +0.000 OA
ENDROOT
BRANCH   2  14
ATOM     14  C   UNL     1     113.306 126.004 137.082  0.00  0.00    +0.000 A 
ATOM     15  C   UNL     1     114.024 125.658 137.294  0.00  0.00    +0.000 A 
ATOM     16  C   UNL     1     114.122 124.841 137.236  0.00  0.00    +0.000 A 
ATOM     17  C   UNL     1     113.501 124.370 136.967  0.00  0.00    +0.000 A 
ATOM     18  C   UNL     1     112.782 124.715 136.755  0.00  0.00    +0.000 A 
ATOM     19  C   UNL     1     112.685 125.533 136.813  0.00  0.00    +0.000 A 
ATOM     20  O   UNL     1     113.598 123.553 136.909  0.00  0.00    +0.000 OA
ATOM     21  O   UNL     1     114.840 124.495 137.448  0.00  0.00    +0.000 OA
ENDBRANCH   2  14
BRANCH   1  22
ATOM     22  O   UNL     1     112.406 126.641 138.309  0.00  0.00    +0.000 OA
BRANCH  22  28
ATOM     23  C   UNL     1     114.308 127.255 140.352  0.00  0.00    +0.000 C 
ATOM     24  C   UNL     1     113.549 127.021 140.129  0.00  0.00    +0.000 C 
ATOM     25  C   UNL     1     112.982 126.859 140.707  0.00  0.00    +0.000 C 
ATOM     26  C   UNL     1     112.222 126.624 140.484  0.00  0.00    +0.000 C 
ATOM     27  C   UNL     1     112.030 126.552 139.686  0.00  0.00    +0.000 C 
ATOM     28  C   UNL     1     112.598 126.714 139.108  0.00  0.00    +0.000 C 
ATOM     29  O   UNL     1     113.357 126.949 139.331  0.00  0.00    +0.000 OA
ATOM     30  O   UNL     1     111.271 126.318 139.463  0.00  0.00    +0.000 OA
ATOM     31  O   UNL     1     111.656 126.463 141.061  0.00  0.00    +0.000 OA
ATOM     32  O   UNL     1     113.174 126.932 141.506  0.00  0.00    +0.000 OA
ENDBRANCH  22  28
ENDBRANCH   1  22
TORSDOF 3
ENDMDL
MODEL 7
REMARK VINA RESULT:      -9.5     10.176     12.374
REMARK  Name = null
REMARK  3 active torsions:
REMARK  status: ('A' for Active; 'I' for Inactive)
REMARK    1  A    between atoms: C_6  and  O_8
REMARK    2  A    between atoms: O_8  and  C_9
REMARK    3  A    between atoms: C_10  and  C_22
REMARK                            x       y       z     vdW  Elec       q    Type
REMARK                         _______ _______ _______ _____ _____    ______ ____
ROOT
ATOM      1  C   UNL     1     112.292 126.716 136.245  0.00  0.00    +0.000 A 
ATOM      2  C   UNL     1     112.938 127.158 136.509  0.00  0.00    +0.000 A 
ATOM      3  O   UNL     1     113.602 126.775 136.813  0.00  0.00    +0.000 OA
ATOM      4  C   UNL     1     113.622 125.952 136.853  0.00  0.00    +0.000 A 
ATOM      5  C   UNL     1     114.287 125.569 137.156  0.00  0.00    +0.000 A 
ATOM      6  C   UNL     1     114.306 124.746 137.196  0.00  0.00    +0.000 A 
ATOM      7  C   UNL     1     113.660 124.304 136.932  0.00  0.00    +0.000 A 
ATOM      8  C   UNL     1     112.996 124.687 136.629  0.00  0.00    +0.000 A 
ATOM      9  C   UNL     1     112.976 125.511 136.589  0.00  0.00    +0.000 A 
ATOM     10  C   UNL     1     112.312 125.893 136.285  0.00  0.00    +0.000 A 
ATOM     11  O   UNL     1     111.666 125.452 136.021  0.00  0.00    +0.000 OA
ATOM     12  O   UNL     1     112.351 124.245 136.365  0.00  0.00    +0.000 OA
ATOM     13  O   UNL     1     114.971 124.363 137.500  0.00  0.00    +0.000 OA
ENDROOT
BRANCH   2  14
ATOM     14  C   UNL     1     112.918 127.982 136.469  0.00  0.00    +0.000 A 
ATOM     15  C   UNL     1     112.808 128.427 137.155  0.00  0.00    +0.000 A 
ATOM     16  C   UNL     1     112.788 129.250 137.114  0.00  0.00    +0.000 A 
ATOM     17  C   UNL     1     112.878 129.629 136.387  0.00  0.00    +0.000 A 
ATOM     18  C   UNL     1     112.988 129.186 135.701  0.00  0.00    +0.000 A 
ATOM     19  C   UNL     1     113.008 128.361 135.742  0.00  0.00    +0.000 A 
ATOM     20  O   UNL     1     112.858 130.453 136.346  0.00  0.00    +0.000 OA
ATOM     21  O   UNL     1     112.678 129.695 137.800  0.00  0.00    +0.000 OA
ENDBRANCH   2  14
BRANCH   1  22
ATOM     22  O   UNL     1     111.627 127.100 135.941  0.00  0.00    +0.000 OA
BRANCH  22  28
ATOM     23  C   UNL     1     110.045 126.656 138.280  0.00  0.00    +0.000 C 
ATOM     24  C   UNL     1     110.100 126.767 137.464  0.00  0.00    +0.000 C 
ATOM     25  C   UNL     1     109.416 126.765 137.002  0.00  0.00    +0.000 C 
ATOM     26  C   UNL     1     109.470 126.875 136.185  0.00  0.00    +0.000 C 
ATOM     27  C   UNL     1     110.206 126.987 135.832  0.00  0.00    +0.000 C 
ATOM     28  C   UNL     1     110.890 126.988 136.295  0.00  0.00    +0.000 C 
ATOM     29  O   UNL     1     110.836 126.878 137.111  0.00  0.00    +0.000 OA
ATOM     30  O   UNL     1     110.261 127.097 135.016  0.00  0.00    +0.000 OA
ATOM     31  O   UNL     1     108.787 126.874 135.723  0.00  0.00    +0.000 OA
ATOM     32  O   UNL     1     108.679 126.654 137.355  0.00  0.00    +0.000 OA
ENDBRANCH  22  28
ENDBRANCH   1  22
TORSDOF 3
ENDMDL
MODEL 8
REMARK VINA RESULT:      -9.5      1.121      3.499
REMARK  Name = null
REMARK  3 active torsions:
REMARK  status: ('A' for Active; 'I' for Inactive)
REMARK    1  A    between atoms: C_6  and  O_8
REMARK    2  A    between atoms: O_8  and  C_9
REMARK    3  A    between atoms: C_10  and  C_22
REMARK                            x       y       z     vdW  Elec       q    Type
REMARK                         _______ _______ _______ _____ _____    ______ ____
ROOT
ATOM      1  C   UNL     1     104.696 124.468 146.920  0.00  0.00    +0.000 A 
ATOM      2  C   UNL     1     104.628 124.539 147.740  0.00  0.00    +0.000 A 
ATOM      3  O   UNL     1     103.895 124.436 148.102  0.00  0.00    +0.000 OA
ATOM      4  C   UNL     1     103.230 124.263 147.647  0.00  0.00    +0.000 A 
ATOM      5  C   UNL     1     102.496 124.160 148.009  0.00  0.00    +0.000 A 
ATOM      6  C   UNL     1     101.831 123.986 147.554  0.00  0.00    +0.000 A 
ATOM      7  C   UNL     1     101.900 123.916 146.734  0.00  0.00    +0.000 A 
ATOM      8  C   UNL     1     102.633 124.019 146.371  0.00  0.00    +0.000 A 
ATOM      9  C   UNL     1     103.298 124.192 146.827  0.00  0.00    +0.000 A 
ATOM     10  C   UNL     1     104.032 124.295 146.464  0.00  0.00    +0.000 A 
ATOM     11  O   UNL     1     104.100 124.224 145.645  0.00  0.00    +0.000 OA
ATOM     12  O   UNL     1     102.701 123.948 145.552  0.00  0.00    +0.000 OA
ATOM     13  O   UNL     1     101.097 123.883 147.917  0.00  0.00    +0.000 OA
ENDROOT
BRANCH   2  14
ATOM     14  C   UNL     1     105.294 124.712 148.195  0.00  0.00    +0.000 A 
ATOM     15  C   UNL     1     105.364 125.447 148.563  0.00  0.00    +0.000 A 
ATOM     16  C   UNL     1     106.029 125.620 149.018  0.00  0.00    +0.000 A 
ATOM     17  C   UNL     1     106.626 125.057 149.106  0.00  0.00    +0.000 A 
ATOM     18  C   UNL     1     106.557 124.322 148.739  0.00  0.00    +0.000 A 
ATOM     19  C   UNL     1     105.891 124.149 148.283  0.00  0.00    +0.000 A 
ATOM     20  O   UNL     1     107.292 125.229 149.561  0.00  0.00    +0.000 OA
ATOM     21  O   UNL     1     106.098 126.355 149.385  0.00  0.00    +0.000 OA
ENDBRANCH   2  14
BRANCH   1  22
ATOM     22  O   UNL     1     105.431 124.571 146.557  0.00  0.00    +0.000 OA
BRANCH  22  28
ATOM     23  C   UNL     1     104.922 127.237 145.661  0.00  0.00    +0.000 C 
ATOM     24  C   UNL     1     105.279 126.501 145.550  0.00  0.00    +0.000 C 
ATOM     25  C   UNL     1     105.739 126.364 144.879  0.00  0.00    +0.000 C 
ATOM     26  C   UNL     1     106.096 125.628 144.767  0.00  0.00    +0.000 C 
ATOM     27  C   UNL     1     105.994 125.031 145.326  0.00  0.00    +0.000 C 
ATOM     28  C   UNL     1     105.533 125.169 145.998  0.00  0.00    +0.000 C 
ATOM     29  O   UNL     1     105.176 125.905 146.109  0.00  0.00    +0.000 OA
ATOM     30  O   UNL     1     106.350 124.295 145.215  0.00  0.00    +0.000 OA
ATOM     31  O   UNL     1     106.556 125.490 144.096  0.00  0.00    +0.000 OA
ATOM     32  O   UNL     1     105.842 126.961 144.319  0.00  0.00    +0.000 OA
ENDBRANCH  22  28
ENDBRANCH   1  22
TORSDOF 3
ENDMDL
MODEL 9
REMARK VINA RESULT:      -9.4      9.736     11.741
REMARK  Name = null
REMARK  3 active torsions:
REMARK  status: ('A' for Active; 'I' for Inactive)
REMARK    1  A    between atoms: C_6  and  O_8
REMARK    2  A    between atoms: O_8  and  C_9
REMARK    3  A    between atoms: C_10  and  C_22
REMARK                            x       y       z     vdW  Elec       q    Type
REMARK                         _______ _______ _______ _____ _____    ______ ____
ROOT
ATOM      1  C   UNL     1     111.956 125.638 137.576  0.00  0.00    +0.000 A 
ATOM      2  C   UNL     1     112.724 125.769 137.851  0.00  0.00    +0.000 A 
ATOM      3  O   UNL     1     112.845 126.065 138.611  0.00  0.00    +0.000 OA
ATOM      4  C   UNL     1     112.199 126.229 139.096  0.00  0.00    +0.000 A 
ATOM      5  C   UNL     1     112.319 126.525 139.857  0.00  0.00    +0.000 A 
ATOM      6  C   UNL     1     111.674 126.690 140.343  0.00  0.00    +0.000 A 
ATOM      7  C   UNL     1     110.906 126.559 140.068  0.00  0.00    +0.000 A 
ATOM      8  C   UNL     1     110.786 126.263 139.308  0.00  0.00    +0.000 A 
ATOM      9  C   UNL     1     111.431 126.098 138.821  0.00  0.00    +0.000 A 
ATOM     10  C   UNL     1     111.311 125.803 138.061  0.00  0.00    +0.000 A 
ATOM     11  O   UNL     1     110.544 125.671 137.787  0.00  0.00    +0.000 OA
ATOM     12  O   UNL     1     110.019 126.132 139.033  0.00  0.00    +0.000 OA
ATOM     13  O   UNL     1     111.794 126.986 141.104  0.00  0.00    +0.000 OA
ENDROOT
BRANCH   2  14
ATOM     14  C   UNL     1     113.370 125.604 137.364  0.00  0.00    +0.000 A 
ATOM     15  C   UNL     1     113.772 126.219 136.988  0.00  0.00    +0.000 A 
ATOM     16  C   UNL     1     114.417 126.053 136.502  0.00  0.00    +0.000 A 
ATOM     17  C   UNL     1     114.661 125.273 136.391  0.00  0.00    +0.000 A 
ATOM     18  C   UNL     1     114.260 124.658 136.767  0.00  0.00    +0.000 A 
ATOM     19  C   UNL     1     113.614 124.824 137.254  0.00  0.00    +0.000 A 
ATOM     20  O   UNL     1     115.306 125.107 135.905  0.00  0.00    +0.000 OA
ATOM     21  O   UNL     1     114.818 126.667 136.126  0.00  0.00    +0.000 OA
ENDBRANCH   2  14
BRANCH   1  22
ATOM     22  O   UNL     1     111.836 125.342 136.815  0.00  0.00    +0.000 OA
BRANCH  22  28
ATOM     23  C   UNL     1     111.033 127.863 135.734  0.00  0.00    +0.000 C 
ATOM     24  C   UNL     1     110.998 127.038 135.727  0.00  0.00    +0.000 C 
ATOM     25  C   UNL     1     110.525 126.650 135.173  0.00  0.00    +0.000 C 
ATOM     26  C   UNL     1     110.490 125.825 135.166  0.00  0.00    +0.000 C 
ATOM     27  C   UNL     1     110.927 125.390 135.713  0.00  0.00    +0.000 C 
ATOM     28  C   UNL     1     111.399 125.778 136.268  0.00  0.00    +0.000 C 
ATOM     29  O   UNL     1     111.435 126.603 136.274  0.00  0.00    +0.000 OA
ATOM     30  O   UNL     1     110.892 124.566 135.707  0.00  0.00    +0.000 OA
ATOM     31  O   UNL     1     110.018 125.438 134.612  0.00  0.00    +0.000 OA
ATOM     32  O   UNL     1     110.088 127.086 134.626  0.00  0.00    +0.000 OA
ENDBRANCH  22  28
ENDBRANCH   1  22
TORSDOF 3
ENDMDL
MODEL 10
REMARK VINA RESULT:      -9.4      9.073     11.097
REMARK  Name = null
REMARK  3 active torsions:
REMARK  status: ('A' for Active; 'I' for Inactive)
REMARK    1  A    between atoms: C_6  and  O_8
REMARK    2  A    between atoms: O_8  and  C_9
REMARK    3  A    between atoms: C_10  and  C_22
REMARK                            x       y       z     vdW  Elec       q    Type
REMARK                         _______ _______ _______ _____ _____    ______ ____
ROOT
ATOM      1  C   UNL     1     112.458 125.900 138.642  0.00  0.00    +0.000 A 
ATOM      2  C   UNL     1     113.154 126.318 138.793  0.00  0.00    +0.000 A 
ATOM      3  O   UNL     1     113.820 126.194 138.324  0.00  0.00    +0.000 OA
ATOM      4  C   UNL     1     113.791 125.653 137.703  0.00  0.00    +0.000 A 
ATOM      5  C   UNL     1     114.458 125.528 137.232  0.00  0.00    +0.000 A 
ATOM      6  C   UNL     1     114.429 124.987 136.611  0.00  0.00    +0.000 A 
ATOM      7  C   UNL     1     113.733 124.569 136.459  0.00  0.00    +0.000 A 
ATOM      8  C   UNL     1     113.067 124.693 136.929  0.00  0.00    +0.000 A 
ATOM      9  C   UNL     1     113.095 125.235 137.551  0.00  0.00    +0.000 A 
ATOM     10  C   UNL     1     112.429 125.359 138.020  0.00  0.00    +0.000 A 
ATOM     11  O   UNL     1     111.734 124.941 137.869  0.00  0.00    +0.000 OA
ATOM     12  O   UNL     1     112.372 124.275 136.777  0.00  0.00    +0.000 OA
ATOM     13  O   UNL     1     115.096 124.862 136.141  0.00  0.00    +0.000 OA
ENDROOT
BRANCH   2  14
ATOM     14  C   UNL     1     113.181 126.860 139.415  0.00  0.00    +0.000 A 
ATOM     15  C   UNL     1     113.176 127.670 139.259  0.00  0.00    +0.000 A 
ATOM     16  C   UNL     1     113.204 128.211 139.880  0.00  0.00    +0.000 A 
ATOM     17  C   UNL     1     113.237 127.942 140.660  0.00  0.00    +0.000 A 
ATOM     18  C   UNL     1     113.243 127.133 140.817  0.00  0.00    +0.000 A 
ATOM     19  C   UNL     1     113.215 126.591 140.195  0.00  0.00    +0.000 A 
ATOM     20  O   UNL     1     113.265 128.483 141.282  0.00  0.00    +0.000 OA
ATOM     21  O   UNL     1     113.198 129.020 139.724  0.00  0.00    +0.000 OA
ENDBRANCH   2  14
BRANCH   1  22
ATOM     22  O   UNL     1     111.791 126.025 139.112  0.00  0.00    +0.000 OA
BRANCH  22  28
ATOM     23  C   UNL     1     110.436 127.581 137.135  0.00  0.00    +0.000 C 
ATOM     24  C   UNL     1     110.412 127.069 137.781  0.00  0.00    +0.000 C 
ATOM     25  C   UNL     1     109.685 126.821 138.084  0.00  0.00    +0.000 C 
ATOM     26  C   UNL     1     109.661 126.308 138.731  0.00  0.00    +0.000 C 
ATOM     27  C   UNL     1     110.362 126.043 139.073  0.00  0.00    +0.000 C 
ATOM     28  C   UNL     1     111.089 126.290 138.769  0.00  0.00    +0.000 C 
ATOM     29  O   UNL     1     111.113 126.804 138.123  0.00  0.00    +0.000 OA
ATOM     30  O   UNL     1     110.338 125.531 139.719  0.00  0.00    +0.000 OA
ATOM     31  O   UNL     1     108.934 126.062 139.034  0.00  0.00    +0.000 OA
ATOM     32  O   UNL     1     108.983 127.087 137.742  0.00  0.00    +0.000 OA
ENDBRANCH  22  28
ENDBRANCH   1  22
TORSDOF 3
ENDMDL
