MODEL 1
REMARK VINA RESULT:     -10.3      0.000      0.000
REMARK  Name = 44259384
REMARK  6 active torsions:
REMARK  status: ('A' for Active; 'I' for Inactive)
REMARK    1  A    between atoms: O_2  and  C_20
REMARK    2  A    between atoms: O_2  and  C_27
REMARK    3  A    between atoms: O_7  and  C_24
REMARK    4  A    between atoms: O_7  and  C_28
REMARK    5  A    between atoms: O_14  and  C_39
REMARK    6  A    between atoms: C_34  and  C_36
REMARK                            x       y       z     vdW  Elec       q    Type
REMARK                         _______ _______ _______ _____ _____    ______ ____
ROOT
ATOM      1  O   UNL     1     112.808 128.568 138.210  0.00  0.00    +0.000 OA
ATOM      2  O   UNL     1     113.705 127.137 140.554  0.00  0.00    +0.000 OA
ATOM      3  O   UNL     1     114.076 128.514 140.334  0.00  0.00    +0.000 OA
ATOM      4  C   UNL     1     112.423 126.462 138.845  0.00  0.00    +0.000 A 
ATOM      5  C   UNL     1     113.632 129.223 139.175  0.00  0.00    +0.000 A 
ATOM      6  C   UNL     1     113.251 127.860 139.368  0.00  0.00    +0.000 A 
ATOM      7  C   UNL     1     112.828 127.878 138.659  0.00  0.00    +0.000 A 
ATOM      8  C   UNL     1     112.406 127.184 138.381  0.00  0.00    +0.000 A 
ATOM      9  C   UNL     1     112.863 126.442 139.583  0.00  0.00    +0.000 A 
ATOM     10  C   UNL     1     113.653 128.533 139.626  0.00  0.00    +0.000 A 
ATOM     11  C   UNL     1     113.210 129.241 138.467  0.00  0.00    +0.000 A 
ATOM     12  C   UNL     1     113.280 127.146 139.846  0.00  0.00    +0.000 A 
ENDROOT
BRANCH  11  14
ATOM     13  O   UNL     1     113.128 132.005 136.666  0.00  0.00    +0.000 OA
ATOM     14  C   UNL     1     113.190 129.932 138.017  0.00  0.00    +0.000 A 
ATOM     15  C   UNL     1     112.522 130.416 138.033  0.00  0.00    +0.000 A 
ATOM     16  C   UNL     1     113.838 130.140 137.550  0.00  0.00    +0.000 A 
ATOM     17  C   UNL     1     112.501 131.107 137.584  0.00  0.00    +0.000 A 
ATOM     18  C   UNL     1     113.817 130.830 137.100  0.00  0.00    +0.000 A 
ATOM     19  C   UNL     1     113.149 131.314 137.117  0.00  0.00    +0.000 A 
BRANCH  17  20
ATOM     20  O   UNL     1     111.833 131.591 137.600  0.00  0.00    +0.000 OA
ATOM     21  C   UNL     1     111.090 131.264 137.748  0.00  0.00    +0.000 C 
ENDBRANCH  17  20
ENDBRANCH  11  14
BRANCH   4  22
ATOM     22  O   UNL     1     112.019 125.790 138.584  0.00  0.00    +0.000 OA
BRANCH  22  31
ATOM     23  O   UNL     1     113.154 125.221 137.928  0.00  0.00    +0.000 OA
ATOM     24  O   UNL     1     111.660 124.144 136.277  0.00  0.00    +0.000 OA
ATOM     25  O   UNL     1     113.292 123.934 136.171  0.00  0.00    +0.000 OA
ATOM     26  O   UNL     1     111.023 125.072 137.483  0.00  0.00    +0.000 OA
ATOM     27  C   UNL     1     112.157 124.503 136.827  0.00  0.00    +0.000 C 
ATOM     28  C   UNL     1     112.974 124.398 136.775  0.00  0.00    +0.000 C 
ATOM     29  C   UNL     1     111.840 124.967 137.430  0.00  0.00    +0.000 C 
ATOM     30  C   UNL     1     113.472 124.758 137.325  0.00  0.00    +0.000 C 
ATOM     31  C   UNL     1     112.338 125.326 137.981  0.00  0.00    +0.000 C 
ATOM     32  C   UNL     1     114.289 124.652 137.272  0.00  0.00    +0.000 C 
ENDBRANCH  22  31
ENDBRANCH   4  22
BRANCH   5  33
ATOM     33  O   UNL     1     114.035 129.895 139.433  0.00  0.00    +0.000 OA
BRANCH  33  41
ATOM     34  O   UNL     1     113.081 130.146 140.468  0.00  0.00    +0.000 OA
ATOM     35  O   UNL     1     114.768 131.471 141.703  0.00  0.00    +0.000 OA
ATOM     36  O   UNL     1     115.159 130.779 140.257  0.00  0.00    +0.000 OA
ATOM     37  O   UNL     1     113.251 131.280 142.325  0.00  0.00    +0.000 OA
ATOM     38  C   UNL     1     114.205 131.029 141.291  0.00  0.00    +0.000 C 
ATOM     39  C   UNL     1     114.401 130.684 140.569  0.00  0.00    +0.000 C 
ATOM     40  C   UNL     1     113.447 130.934 141.602  0.00  0.00    +0.000 C 
ATOM     41  C   UNL     1     113.839 130.242 140.157  0.00  0.00    +0.000 C 
ATOM     42  C   UNL     1     112.885 130.492 141.191  0.00  0.00    +0.000 C 
ENDBRANCH  33  41
ENDBRANCH   5  33
TORSDOF 6
ENDMDL
MODEL 2
REMARK VINA RESULT:     -10.0      2.353      5.629
REMARK  Name = 44259384
REMARK  6 active torsions:
REMARK  status: ('A' for Active; 'I' for Inactive)
REMARK    1  A    between atoms: O_2  and  C_20
REMARK    2  A    between atoms: O_2  and  C_27
REMARK    3  A    between atoms: O_7  and  C_24
REMARK    4  A    between atoms: O_7  and  C_28
REMARK    5  A    between atoms: O_14  and  C_39
REMARK    6  A    between atoms: C_34  and  C_36
REMARK                            x       y       z     vdW  Elec       q    Type
REMARK                         _______ _______ _______ _____ _____    ______ ____
ROOT
ATOM      1  O   UNL     1     112.097 128.280 138.257  0.00  0.00    +0.000 OA
ATOM      2  O   UNL     1     113.633 128.305 135.811  0.00  0.00    +0.000 OA
ATOM      3  O   UNL     1     113.818 127.267 136.796  0.00  0.00    +0.000 OA
ATOM      4  C   UNL     1     112.059 129.718 136.548  0.00  0.00    +0.000 A 
ATOM      5  C   UNL     1     113.058 127.254 138.006  0.00  0.00    +0.000 A 
ATOM      6  C   UNL     1     112.856 128.293 137.047  0.00  0.00    +0.000 A 
ATOM      7  C   UNL     1     112.281 128.631 137.535  0.00  0.00    +0.000 A 
ATOM      8  C   UNL     1     111.870 129.348 137.299  0.00  0.00    +0.000 A 
ATOM      9  C   UNL     1     112.657 129.367 136.040  0.00  0.00    +0.000 A 
ATOM     10  C   UNL     1     113.244 127.605 137.283  0.00  0.00    +0.000 A 
ATOM     11  C   UNL     1     112.485 127.591 138.494  0.00  0.00    +0.000 A 
ATOM     12  C   UNL     1     113.058 128.650 136.291  0.00  0.00    +0.000 A 
ENDROOT
BRANCH  11  14
ATOM     13  O   UNL     1     111.743 126.186 141.386  0.00  0.00    +0.000 OA
ATOM     14  C   UNL     1     112.299 127.240 139.217  0.00  0.00    +0.000 A 
ATOM     15  C   UNL     1     111.608 126.797 139.295  0.00  0.00    +0.000 A 
ATOM     16  C   UNL     1     112.805 127.333 139.862  0.00  0.00    +0.000 A 
ATOM     17  C   UNL     1     111.422 126.445 140.017  0.00  0.00    +0.000 A 
ATOM     18  C   UNL     1     112.619 126.981 140.584  0.00  0.00    +0.000 A 
ATOM     19  C   UNL     1     111.928 126.538 140.662  0.00  0.00    +0.000 A 
BRANCH  17  20
ATOM     20  O   UNL     1     110.731 126.002 140.095  0.00  0.00    +0.000 OA
ATOM     21  C   UNL     1     110.078 126.169 139.620  0.00  0.00    +0.000 C 
ENDBRANCH  17  20
ENDBRANCH  11  14
BRANCH   4  22
ATOM     22  O   UNL     1     111.669 130.407 136.314  0.00  0.00    +0.000 OA
BRANCH  22  31
ATOM     23  O   UNL     1     110.710 129.775 135.463  0.00  0.00    +0.000 OA
ATOM     24  O   UNL     1     108.998 131.412 136.176  0.00  0.00    +0.000 OA
ATOM     25  O   UNL     1     108.610 130.235 135.088  0.00  0.00    +0.000 OA
ATOM     26  O   UNL     1     110.527 131.499 136.790  0.00  0.00    +0.000 OA
ATOM     27  C   UNL     1     109.568 130.867 135.939  0.00  0.00    +0.000 C 
ATOM     28  C   UNL     1     109.375 130.278 135.395  0.00  0.00    +0.000 C 
ATOM     29  C   UNL     1     110.333 130.910 136.245  0.00  0.00    +0.000 C 
ATOM     30  C   UNL     1     109.946 129.732 135.157  0.00  0.00    +0.000 C 
ATOM     31  C   UNL     1     110.904 130.364 136.007  0.00  0.00    +0.000 C 
ATOM     32  C   UNL     1     109.752 129.143 134.613  0.00  0.00    +0.000 C 
ENDBRANCH  22  31
ENDBRANCH   4  22
BRANCH   5  33
ATOM     33  O   UNL     1     113.447 126.566 138.242  0.00  0.00    +0.000 OA
BRANCH  33  41
ATOM     34  O   UNL     1     112.737 125.749 137.308  0.00  0.00    +0.000 OA
ATOM     35  O   UNL     1     114.602 124.122 137.312  0.00  0.00    +0.000 OA
ATOM     36  O   UNL     1     114.690 125.481 138.244  0.00  0.00    +0.000 OA
ATOM     37  O   UNL     1     113.270 123.849 136.377  0.00  0.00    +0.000 OA
ATOM     38  C   UNL     1     113.980 124.664 137.310  0.00  0.00    +0.000 C 
ATOM     39  C   UNL     1     114.025 125.343 137.777  0.00  0.00    +0.000 C 
ATOM     40  C   UNL     1     113.314 124.528 136.843  0.00  0.00    +0.000 C 
ATOM     41  C   UNL     1     113.403 125.886 137.776  0.00  0.00    +0.000 C 
ATOM     42  C   UNL     1     112.693 125.070 136.842  0.00  0.00    +0.000 C 
ENDBRANCH  33  41
ENDBRANCH   5  33
TORSDOF 6
ENDMDL
MODEL 3
REMARK VINA RESULT:     -10.0      1.472      5.541
REMARK  Name = 44259384
REMARK  6 active torsions:
REMARK  status: ('A' for Active; 'I' for Inactive)
REMARK    1  A    between atoms: O_2  and  C_20
REMARK    2  A    between atoms: O_2  and  C_27
REMARK    3  A    between atoms: O_7  and  C_24
REMARK    4  A    between atoms: O_7  and  C_28
REMARK    5  A    between atoms: O_14  and  C_39
REMARK    6  A    between atoms: C_34  and  C_36
REMARK                            x       y       z     vdW  Elec       q    Type
REMARK                         _______ _______ _______ _____ _____    ______ ____
ROOT
ATOM      1  O   UNL     1     113.086 128.610 138.080  0.00  0.00    +0.000 OA
ATOM      2  O   UNL     1     113.042 126.459 140.008  0.00  0.00    +0.000 OA
ATOM      3  O   UNL     1     112.380 126.330 138.732  0.00  0.00    +0.000 OA
ATOM      4  C   UNL     1     113.994 128.484 140.117  0.00  0.00    +0.000 A 
ATOM      5  C   UNL     1     112.402 127.393 137.778  0.00  0.00    +0.000 A 
ATOM      6  C   UNL     1     113.065 127.548 139.034  0.00  0.00    +0.000 A 
ATOM      7  C   UNL     1     113.300 128.308 138.816  0.00  0.00    +0.000 A 
ATOM      8  C   UNL     1     113.768 128.794 139.349  0.00  0.00    +0.000 A 
ATOM      9  C   UNL     1     113.750 127.692 140.344  0.00  0.00    +0.000 A 
ATOM     10  C   UNL     1     112.615 127.090 138.514  0.00  0.00    +0.000 A 
ATOM     11  C   UNL     1     112.637 128.154 137.560  0.00  0.00    +0.000 A 
ATOM     12  C   UNL     1     113.282 127.221 139.799  0.00  0.00    +0.000 A 
ENDROOT
BRANCH  11  14
ATOM     13  O   UNL     1     111.780 129.364 134.612  0.00  0.00    +0.000 OA
ATOM     14  C   UNL     1     112.422 128.456 136.823  0.00  0.00    +0.000 A 
ATOM     15  C   UNL     1     112.986 128.523 136.225  0.00  0.00    +0.000 A 
ATOM     16  C   UNL     1     111.644 128.692 136.684  0.00  0.00    +0.000 A 
ATOM     17  C   UNL     1     112.773 128.826 135.488  0.00  0.00    +0.000 A 
ATOM     18  C   UNL     1     111.430 128.994 135.948  0.00  0.00    +0.000 A 
ATOM     19  C   UNL     1     111.995 129.061 135.349  0.00  0.00    +0.000 A 
BRANCH  17  20
ATOM     20  O   UNL     1     113.337 128.893 134.890  0.00  0.00    +0.000 OA
ATOM     21  C   UNL     1     114.105 129.134 135.072  0.00  0.00    +0.000 C 
ENDBRANCH  17  20
ENDBRANCH  11  14
BRANCH   4  22
ATOM     22  O   UNL     1     114.444 128.944 140.635  0.00  0.00    +0.000 OA
BRANCH  22  31
ATOM     23  O   UNL     1     113.366 129.512 141.381  0.00  0.00    +0.000 OA
ATOM     24  O   UNL     1     114.544 131.687 141.427  0.00  0.00    +0.000 OA
ATOM     25  O   UNL     1     113.073 131.531 142.158  0.00  0.00    +0.000 OA
ATOM     26  O   UNL     1     115.230 130.395 140.665  0.00  0.00    +0.000 OA
ATOM     27  C   UNL     1     114.151 130.963 141.411  0.00  0.00    +0.000 C 
ATOM     28  C   UNL     1     113.416 130.884 141.777  0.00  0.00    +0.000 C 
ATOM     29  C   UNL     1     114.494 130.316 141.031  0.00  0.00    +0.000 C 
ATOM     30  C   UNL     1     113.023 130.158 141.761  0.00  0.00    +0.000 C 
ATOM     31  C   UNL     1     114.101 129.591 141.016  0.00  0.00    +0.000 C 
ATOM     32  C   UNL     1     112.288 130.080 142.127  0.00  0.00    +0.000 C 
ENDBRANCH  22  31
ENDBRANCH   4  22
BRANCH   5  33
ATOM     33  O   UNL     1     111.952 126.936 137.259  0.00  0.00    +0.000 OA
BRANCH  33  41
ATOM     34  O   UNL     1     113.052 126.084 136.931  0.00  0.00    +0.000 OA
ATOM     35  O   UNL     1     111.472 124.273 136.338  0.00  0.00    +0.000 OA
ATOM     36  O   UNL     1     110.900 125.729 136.863  0.00  0.00    +0.000 OA
ATOM     37  O   UNL     1     113.099 124.025 136.208  0.00  0.00    +0.000 OA
ATOM     38  C   UNL     1     111.999 124.876 136.536  0.00  0.00    +0.000 C 
ATOM     39  C   UNL     1     111.712 125.604 136.798  0.00  0.00    +0.000 C 
ATOM     40  C   UNL     1     112.812 124.752 136.471  0.00  0.00    +0.000 C 
ATOM     41  C   UNL     1     112.238 126.208 136.996  0.00  0.00    +0.000 C 
ATOM     42  C   UNL     1     113.338 125.356 136.669  0.00  0.00    +0.000 C 
ENDBRANCH  33  41
ENDBRANCH   5  33
TORSDOF 6
ENDMDL
MODEL 4
REMARK VINA RESULT:     -10.0      1.562      3.361
REMARK  Name = 44259384
REMARK  6 active torsions:
REMARK  status: ('A' for Active; 'I' for Inactive)
REMARK    1  A    between atoms: O_2  and  C_20
REMARK    2  A    between atoms: O_2  and  C_27
REMARK    3  A    between atoms: O_7  and  C_24
REMARK    4  A    between atoms: O_7  and  C_28
REMARK    5  A    between atoms: O_14  and  C_39
REMARK    6  A    between atoms: C_34  and  C_36
REMARK                            x       y       z     vdW  Elec       q    Type
REMARK                         _______ _______ _______ _____ _____    ______ ____
ROOT
ATOM      1  O   UNL     1     111.917 128.727 138.383  0.00  0.00    +0.000 OA
ATOM      2  O   UNL     1     109.572 128.887 136.703  0.00  0.00    +0.000 OA
ATOM      3  O   UNL     1     110.409 130.041 136.926  0.00  0.00    +0.000 OA
ATOM      4  C   UNL     1     110.428 127.155 137.836  0.00  0.00    +0.000 A 
ATOM      5  C   UNL     1     111.569 129.963 137.756  0.00  0.00    +0.000 A 
ATOM      6  C   UNL     1     110.758 128.805 137.552  0.00  0.00    +0.000 A 
ATOM      7  C   UNL     1     111.261 128.367 138.038  0.00  0.00    +0.000 A 
ATOM      8  C   UNL     1     111.110 127.535 138.192  0.00  0.00    +0.000 A 
ATOM      9  C   UNL     1     109.904 127.610 137.330  0.00  0.00    +0.000 A 
ATOM     10  C   UNL     1     110.912 129.604 137.411  0.00  0.00    +0.000 A 
ATOM     11  C   UNL     1     112.072 129.525 138.242  0.00  0.00    +0.000 A 
ATOM     12  C   UNL     1     110.070 128.441 137.187  0.00  0.00    +0.000 A 
ENDROOT
BRANCH  11  14
ATOM     13  O   UNL     1     114.700 130.967 139.622  0.00  0.00    +0.000 OA
ATOM     14  C   UNL     1     112.729 129.886 138.587  0.00  0.00    +0.000 A 
ATOM     15  C   UNL     1     112.721 130.078 139.389  0.00  0.00    +0.000 A 
ATOM     16  C   UNL     1     113.395 130.054 138.130  0.00  0.00    +0.000 A 
ATOM     17  C   UNL     1     113.377 130.439 139.735  0.00  0.00    +0.000 A 
ATOM     18  C   UNL     1     114.052 130.414 138.475  0.00  0.00    +0.000 A 
ATOM     19  C   UNL     1     114.043 130.607 139.277  0.00  0.00    +0.000 A 
BRANCH  17  20
ATOM     20  O   UNL     1     113.369 130.631 140.537  0.00  0.00    +0.000 OA
ATOM     21  C   UNL     1     112.920 130.182 141.064  0.00  0.00    +0.000 C 
ENDBRANCH  17  20
ENDBRANCH  11  14
BRANCH   4  22
ATOM     22  O   UNL     1     110.276 126.355 137.979  0.00  0.00    +0.000 OA
BRANCH  22  31
ATOM     23  O   UNL     1     110.637 125.824 136.703  0.00  0.00    +0.000 OA
ATOM     24  O   UNL     1     111.807 123.949 137.814  0.00  0.00    +0.000 OA
ATOM     25  O   UNL     1     111.778 124.042 136.167  0.00  0.00    +0.000 OA
ATOM     26  O   UNL     1     111.057 125.105 138.720  0.00  0.00    +0.000 OA
ATOM     27  C   UNL     1     111.417 124.573 137.444  0.00  0.00    +0.000 C 
ATOM     28  C   UNL     1     111.402 124.621 136.620  0.00  0.00    +0.000 C 
ATOM     29  C   UNL     1     111.042 125.152 137.896  0.00  0.00    +0.000 C 
ATOM     30  C   UNL     1     111.012 125.246 136.250  0.00  0.00    +0.000 C 
ATOM     31  C   UNL     1     110.651 125.777 137.525  0.00  0.00    +0.000 C 
ATOM     32  C   UNL     1     110.997 125.292 135.426  0.00  0.00    +0.000 C 
ENDBRANCH  22  31
ENDBRANCH   4  22
BRANCH   5  33
ATOM     33  O   UNL     1     111.723 130.761 137.615  0.00  0.00    +0.000 OA
BRANCH  33  41
ATOM     34  O   UNL     1     110.651 131.203 138.450  0.00  0.00    +0.000 OA
ATOM     35  O   UNL     1     110.499 133.300 137.144  0.00  0.00    +0.000 OA
ATOM     36  O   UNL     1     111.622 132.159 136.745  0.00  0.00    +0.000 OA
ATOM     37  O   UNL     1     109.477 133.043 138.415  0.00  0.00    +0.000 OA
ATOM     38  C   UNL     1     110.549 132.602 137.580  0.00  0.00    +0.000 C 
ATOM     39  C   UNL     1     111.111 132.031 137.380  0.00  0.00    +0.000 C 
ATOM     40  C   UNL     1     110.038 132.473 138.215  0.00  0.00    +0.000 C 
ATOM     41  C   UNL     1     111.162 131.332 137.815  0.00  0.00    +0.000 C 
ATOM     42  C   UNL     1     110.089 131.773 138.650  0.00  0.00    +0.000 C 
ENDBRANCH  33  41
ENDBRANCH   5  33
TORSDOF 6
ENDMDL
MODEL 5
REMARK VINA RESULT:     -10.0      2.149      5.151
REMARK  Name = 44259384
REMARK  6 active torsions:
REMARK  status: ('A' for Active; 'I' for Inactive)
REMARK    1  A    between atoms: O_2  and  C_20
REMARK    2  A    between atoms: O_2  and  C_27
REMARK    3  A    between atoms: O_7  and  C_24
REMARK    4  A    between atoms: O_7  and  C_28
REMARK    5  A    between atoms: O_14  and  C_39
REMARK    6  A    between atoms: C_34  and  C_36
REMARK                            x       y       z     vdW  Elec       q    Type
REMARK                         _______ _______ _______ _____ _____    ______ ____
ROOT
ATOM      1  O   UNL     1     112.350 127.756 136.641  0.00  0.00    +0.000 OA
ATOM      2  O   UNL     1     112.030 129.860 138.596  0.00  0.00    +0.000 OA
ATOM      3  O   UNL     1     112.714 128.633 138.926  0.00  0.00    +0.000 OA
ATOM      4  C   UNL     1     111.359 129.750 136.461  0.00  0.00    +0.000 A 
ATOM      5  C   UNL     1     112.873 127.592 137.960  0.00  0.00    +0.000 A 
ATOM      6  C   UNL     1     112.191 128.796 137.607  0.00  0.00    +0.000 A 
ATOM      7  C   UNL     1     112.070 128.504 136.844  0.00  0.00    +0.000 A 
ATOM      8  C   UNL     1     111.653 128.970 136.255  0.00  0.00    +0.000 A 
ATOM      9  C   UNL     1     111.485 130.055 137.255  0.00  0.00    +0.000 A 
ATOM     10  C   UNL     1     112.593 128.340 138.165  0.00  0.00    +0.000 A 
ATOM     11  C   UNL     1     112.752 127.299 137.199  0.00  0.00    +0.000 A 
ATOM     12  C   UNL     1     111.904 129.575 137.831  0.00  0.00    +0.000 A 
ENDROOT
BRANCH  11  14
ATOM     13  O   UNL     1     113.872 124.304 136.384  0.00  0.00    +0.000 OA
ATOM     14  C   UNL     1     113.032 126.550 136.995  0.00  0.00    +0.000 A 
ATOM     15  C   UNL     1     112.508 125.916 136.935  0.00  0.00    +0.000 A 
ATOM     16  C   UNL     1     113.836 126.436 136.852  0.00  0.00    +0.000 A 
ATOM     17  C   UNL     1     112.787 125.167 136.731  0.00  0.00    +0.000 A 
ATOM     18  C   UNL     1     114.116 125.687 136.648  0.00  0.00    +0.000 A 
ATOM     19  C   UNL     1     113.592 125.053 136.588  0.00  0.00    +0.000 A 
BRANCH  17  20
ATOM     20  O   UNL     1     112.263 124.533 136.671  0.00  0.00    +0.000 OA
ATOM     21  C   UNL     1     111.484 124.663 136.434  0.00  0.00    +0.000 C 
ENDBRANCH  17  20
ENDBRANCH  11  14
BRANCH   4  22
ATOM     22  O   UNL     1     110.958 130.204 135.900  0.00  0.00    +0.000 OA
BRANCH  22  31
ATOM     23  O   UNL     1     109.729 129.476 135.871  0.00  0.00    +0.000 OA
ATOM     24  O   UNL     1     108.469 131.605 135.813  0.00  0.00    +0.000 OA
ATOM     25  O   UNL     1     107.659 130.168 135.803  0.00  0.00    +0.000 OA
ATOM     26  O   UNL     1     110.118 131.624 135.861  0.00  0.00    +0.000 OA
ATOM     27  C   UNL     1     108.889 130.896 135.832  0.00  0.00    +0.000 C 
ATOM     28  C   UNL     1     108.485 130.177 135.827  0.00  0.00    +0.000 C 
ATOM     29  C   UNL     1     109.713 130.904 135.857  0.00  0.00    +0.000 C 
ATOM     30  C   UNL     1     108.905 129.467 135.847  0.00  0.00    +0.000 C 
ATOM     31  C   UNL     1     110.133 130.195 135.876  0.00  0.00    +0.000 C 
ATOM     32  C   UNL     1     108.499 128.748 135.842  0.00  0.00    +0.000 C 
ENDBRANCH  22  31
ENDBRANCH   4  22
BRANCH   5  33
ATOM     33  O   UNL     1     113.274 127.136 138.519  0.00  0.00    +0.000 OA
BRANCH  33  41
ATOM     34  O   UNL     1     112.094 126.804 139.253  0.00  0.00    +0.000 OA
ATOM     35  O   UNL     1     113.436 126.613 141.324  0.00  0.00    +0.000 OA
ATOM     36  O   UNL     1     114.168 127.008 139.899  0.00  0.00    +0.000 OA
ATOM     37  O   UNL     1     111.807 126.345 141.368  0.00  0.00    +0.000 OA
ATOM     38  C   UNL     1     112.988 126.676 140.634  0.00  0.00    +0.000 C 
ATOM     39  C   UNL     1     113.355 126.874 139.922  0.00  0.00    +0.000 C 
ATOM     40  C   UNL     1     112.174 126.543 140.655  0.00  0.00    +0.000 C 
ATOM     41  C   UNL     1     112.908 126.938 139.231  0.00  0.00    +0.000 C 
ATOM     42  C   UNL     1     111.727 126.607 139.965  0.00  0.00    +0.000 C 
ENDBRANCH  33  41
ENDBRANCH   5  33
TORSDOF 6
ENDMDL
MODEL 6
REMARK VINA RESULT:      -9.8      2.011      5.835
REMARK  Name = 44259384
REMARK  6 active torsions:
REMARK  status: ('A' for Active; 'I' for Inactive)
REMARK    1  A    between atoms: O_2  and  C_20
REMARK    2  A    between atoms: O_2  and  C_27
REMARK    3  A    between atoms: O_7  and  C_24
REMARK    4  A    between atoms: O_7  and  C_28
REMARK    5  A    between atoms: O_14  and  C_39
REMARK    6  A    between atoms: C_34  and  C_36
REMARK                            x       y       z     vdW  Elec       q    Type
REMARK                         _______ _______ _______ _____ _____    ______ ____
ROOT
ATOM      1  O   UNL     1     113.359 126.284 138.801  0.00  0.00    +0.000 OA
ATOM      2  O   UNL     1     110.619 126.353 139.714  0.00  0.00    +0.000 OA
ATOM      3  O   UNL     1     110.964 125.774 138.439  0.00  0.00    +0.000 OA
ATOM      4  C   UNL     1     112.492 127.095 140.694  0.00  0.00    +0.000 A 
ATOM      5  C   UNL     1     112.319 125.739 137.987  0.00  0.00    +0.000 A 
ATOM      6  C   UNL     1     112.004 126.319 139.253  0.00  0.00    +0.000 A 
ATOM      7  C   UNL     1     112.803 126.489 139.375  0.00  0.00    +0.000 A 
ATOM      8  C   UNL     1     113.066 126.879 140.093  0.00  0.00    +0.000 A 
ATOM      9  C   UNL     1     111.660 126.918 140.569  0.00  0.00    +0.000 A 
ATOM     10  C   UNL     1     111.763 125.944 138.560  0.00  0.00    +0.000 A 
ATOM     11  C   UNL     1     113.118 125.909 138.107  0.00  0.00    +0.000 A 
ATOM     12  C   UNL     1     111.415 126.527 139.844  0.00  0.00    +0.000 A 
ENDROOT
BRANCH  11  14
ATOM     13  O   UNL     1     115.343 125.089 135.813  0.00  0.00    +0.000 OA
ATOM     14  C   UNL     1     113.674 125.704 137.534  0.00  0.00    +0.000 A 
ATOM     15  C   UNL     1     113.980 126.281 137.030  0.00  0.00    +0.000 A 
ATOM     16  C   UNL     1     113.925 124.921 137.463  0.00  0.00    +0.000 A 
ATOM     17  C   UNL     1     114.536 126.077 136.457  0.00  0.00    +0.000 A 
ATOM     18  C   UNL     1     114.481 124.717 136.890  0.00  0.00    +0.000 A 
ATOM     19  C   UNL     1     114.787 125.294 136.387  0.00  0.00    +0.000 A 
BRANCH  17  20
ATOM     20  O   UNL     1     114.842 126.655 135.953  0.00  0.00    +0.000 OA
ATOM     21  C   UNL     1     114.533 127.420 135.967  0.00  0.00    +0.000 C 
ENDBRANCH  17  20
ENDBRANCH  11  14
BRANCH   4  22
ATOM     22  O   UNL     1     112.737 127.471 141.387  0.00  0.00    +0.000 OA
BRANCH  22  31
ATOM     23  O   UNL     1     113.119 128.730 140.831  0.00  0.00    +0.000 OA
ATOM     24  O   UNL     1     112.056 129.894 142.738  0.00  0.00    +0.000 OA
ATOM     25  O   UNL     1     112.793 130.766 141.547  0.00  0.00    +0.000 OA
ATOM     26  O   UNL     1     112.028 128.247 142.659  0.00  0.00    +0.000 OA
ATOM     27  C   UNL     1     112.410 129.507 142.103  0.00  0.00    +0.000 C 
ATOM     28  C   UNL     1     112.779 129.942 141.507  0.00  0.00    +0.000 C 
ATOM     29  C   UNL     1     112.397 128.683 142.063  0.00  0.00    +0.000 C 
ATOM     30  C   UNL     1     113.133 129.554 140.871  0.00  0.00    +0.000 C 
ATOM     31  C   UNL     1     112.751 128.295 141.427  0.00  0.00    +0.000 C 
ATOM     32  C   UNL     1     113.501 129.990 140.275  0.00  0.00    +0.000 C 
ENDBRANCH  22  31
ENDBRANCH   4  22
BRANCH   5  33
ATOM     33  O   UNL     1     112.078 125.364 137.293  0.00  0.00    +0.000 OA
BRANCH  33  41
ATOM     34  O   UNL     1     111.464 126.558 136.804  0.00  0.00    +0.000 OA
ATOM     35  O   UNL     1     110.105 125.215 135.230  0.00  0.00    +0.000 OA
ATOM     36  O   UNL     1     111.172 124.469 136.244  0.00  0.00    +0.000 OA
ATOM     37  O   UNL     1     109.945 126.858 135.265  0.00  0.00    +0.000 OA
ATOM     38  C   UNL     1     110.558 125.663 135.754  0.00  0.00    +0.000 C 
ATOM     39  C   UNL     1     111.091 125.290 136.261  0.00  0.00    +0.000 C 
ATOM     40  C   UNL     1     110.478 126.484 135.772  0.00  0.00    +0.000 C 
ATOM     41  C   UNL     1     111.544 125.737 136.786  0.00  0.00    +0.000 C 
ATOM     42  C   UNL     1     110.931 126.932 136.297  0.00  0.00    +0.000 C 
ENDBRANCH  33  41
ENDBRANCH   5  33
TORSDOF 6
ENDMDL
MODEL 7
REMARK VINA RESULT:      -9.7      1.617      3.455
REMARK  Name = 44259384
REMARK  6 active torsions:
REMARK  status: ('A' for Active; 'I' for Inactive)
REMARK    1  A    between atoms: O_2  and  C_20
REMARK    2  A    between atoms: O_2  and  C_27
REMARK    3  A    between atoms: O_7  and  C_24
REMARK    4  A    between atoms: O_7  and  C_28
REMARK    5  A    between atoms: O_14  and  C_39
REMARK    6  A    between atoms: C_34  and  C_36
REMARK                            x       y       z     vdW  Elec       q    Type
REMARK                         _______ _______ _______ _____ _____    ______ ____
ROOT
ATOM      1  O   UNL     1     112.969 128.496 138.586  0.00  0.00    +0.000 OA
ATOM      2  O   UNL     1     111.717 129.042 136.040  0.00  0.00    +0.000 OA
ATOM      3  O   UNL     1     111.495 129.900 137.179  0.00  0.00    +0.000 OA
ATOM      4  C   UNL     1     113.098 127.387 136.650  0.00  0.00    +0.000 A 
ATOM      5  C   UNL     1     112.114 129.630 138.439  0.00  0.00    +0.000 A 
ATOM      6  C   UNL     1     112.351 128.765 137.327  0.00  0.00    +0.000 A 
ATOM      7  C   UNL     1     112.843 128.296 137.796  0.00  0.00    +0.000 A 
ATOM      8  C   UNL     1     113.227 127.600 137.472  0.00  0.00    +0.000 A 
ATOM      9  C   UNL     1     112.586 127.875 136.161  0.00  0.00    +0.000 A 
ATOM     10  C   UNL     1     111.987 129.432 137.648  0.00  0.00    +0.000 A 
ATOM     11  C   UNL     1     112.606 129.162 138.908  0.00  0.00    +0.000 A 
ATOM     12  C   UNL     1     112.210 128.568 136.502  0.00  0.00    +0.000 A 
ENDROOT
BRANCH  11  14
ATOM     13  O   UNL     1     113.115 129.959 142.069  0.00  0.00    +0.000 OA
ATOM     14  C   UNL     1     112.733 129.361 139.698  0.00  0.00    +0.000 A 
ATOM     15  C   UNL     1     113.266 129.961 139.892  0.00  0.00    +0.000 A 
ATOM     16  C   UNL     1     112.328 128.961 140.295  0.00  0.00    +0.000 A 
ATOM     17  C   UNL     1     113.393 130.161 140.682  0.00  0.00    +0.000 A 
ATOM     18  C   UNL     1     112.456 129.161 141.085  0.00  0.00    +0.000 A 
ATOM     19  C   UNL     1     112.988 129.760 141.279  0.00  0.00    +0.000 A 
BRANCH  17  20
ATOM     20  O   UNL     1     113.926 130.760 140.876  0.00  0.00    +0.000 OA
ATOM     21  C   UNL     1     114.697 130.738 140.582  0.00  0.00    +0.000 C 
ENDBRANCH  17  20
ENDBRANCH  11  14
BRANCH   4  22
ATOM     22  O   UNL     1     113.464 126.719 136.331  0.00  0.00    +0.000 OA
BRANCH  22  31
ATOM     23  O   UNL     1     112.322 125.862 136.278  0.00  0.00    +0.000 OA
ATOM     24  O   UNL     1     113.709 123.966 137.056  0.00  0.00    +0.000 OA
ATOM     25  O   UNL     1     112.105 123.740 136.743  0.00  0.00    +0.000 OA
ATOM     26  O   UNL     1     114.389 125.455 136.850  0.00  0.00    +0.000 OA
ATOM     27  C   UNL     1     113.247 124.598 136.797  0.00  0.00    +0.000 C 
ATOM     28  C   UNL     1     112.445 124.486 136.640  0.00  0.00    +0.000 C 
ATOM     29  C   UNL     1     113.586 125.342 136.694  0.00  0.00    +0.000 C 
ATOM     30  C   UNL     1     111.983 125.118 136.380  0.00  0.00    +0.000 C 
ATOM     31  C   UNL     1     113.124 125.975 136.434  0.00  0.00    +0.000 C 
ATOM     32  C   UNL     1     111.180 125.004 136.224  0.00  0.00    +0.000 C 
ENDBRANCH  22  31
ENDBRANCH   4  22
BRANCH   5  33
ATOM     33  O   UNL     1     111.750 130.297 138.760  0.00  0.00    +0.000 OA
BRANCH  33  41
ATOM     34  O   UNL     1     110.468 129.667 138.790  0.00  0.00    +0.000 OA
ATOM     35  O   UNL     1     109.376 131.888 138.775  0.00  0.00    +0.000 OA
ATOM     36  O   UNL     1     111.022 131.778 138.749  0.00  0.00    +0.000 OA
ATOM     37  O   UNL     1     108.457 130.517 138.810  0.00  0.00    +0.000 OA
ATOM     38  C   UNL     1     109.739 131.148 138.780  0.00  0.00    +0.000 C 
ATOM     39  C   UNL     1     110.562 131.093 138.767  0.00  0.00    +0.000 C 
ATOM     40  C   UNL     1     109.280 130.462 138.798  0.00  0.00    +0.000 C 
ATOM     41  C   UNL     1     110.927 130.353 138.772  0.00  0.00    +0.000 C 
ATOM     42  C   UNL     1     109.645 129.722 138.803  0.00  0.00    +0.000 C 
ENDBRANCH  33  41
ENDBRANCH   5  33
TORSDOF 6
ENDMDL
MODEL 8
REMARK VINA RESULT:      -9.7      2.226      5.364
REMARK  Name = 44259384
REMARK  6 active torsions:
REMARK  status: ('A' for Active; 'I' for Inactive)
REMARK    1  A    between atoms: O_2  and  C_20
REMARK    2  A    between atoms: O_2  and  C_27
REMARK    3  A    between atoms: O_7  and  C_24
REMARK    4  A    between atoms: O_7  and  C_28
REMARK    5  A    between atoms: O_14  and  C_39
REMARK    6  A    between atoms: C_34  and  C_36
REMARK                            x       y       z     vdW  Elec       q    Type
REMARK                         _______ _______ _______ _____ _____    ______ ____
ROOT
ATOM      1  O   UNL     1     113.148 126.580 138.964  0.00  0.00    +0.000 OA
ATOM      2  O   UNL     1     113.012 129.458 139.177  0.00  0.00    +0.000 OA
ATOM      3  O   UNL     1     113.301 128.817 137.917  0.00  0.00    +0.000 OA
ATOM      4  C   UNL     1     112.729 127.874 140.736  0.00  0.00    +0.000 A 
ATOM      5  C   UNL     1     113.368 127.393 137.811  0.00  0.00    +0.000 A 
ATOM      6  C   UNL     1     113.080 128.002 139.070  0.00  0.00    +0.000 A 
ATOM      7  C   UNL     1     113.029 127.256 139.420  0.00  0.00    +0.000 A 
ATOM      8  C   UNL     1     112.853 127.173 140.256  0.00  0.00    +0.000 A 
ATOM      9  C   UNL     1     112.782 128.651 140.373  0.00  0.00    +0.000 A 
ATOM     10  C   UNL     1     113.250 128.071 138.266  0.00  0.00    +0.000 A 
ATOM     11  C   UNL     1     113.317 126.647 138.159  0.00  0.00    +0.000 A 
ATOM     12  C   UNL     1     112.959 128.716 139.535  0.00  0.00    +0.000 A 
ENDROOT
BRANCH  11  14
ATOM     13  O   UNL     1     113.791 123.938 136.336  0.00  0.00    +0.000 OA
ATOM     14  C   UNL     1     113.436 125.970 137.704  0.00  0.00    +0.000 A 
ATOM     15  C   UNL     1     112.790 125.521 137.455  0.00  0.00    +0.000 A 
ATOM     16  C   UNL     1     114.201 125.741 137.497  0.00  0.00    +0.000 A 
ATOM     17  C   UNL     1     112.908 124.844 136.999  0.00  0.00    +0.000 A 
ATOM     18  C   UNL     1     114.319 125.063 137.041  0.00  0.00    +0.000 A 
ATOM     19  C   UNL     1     113.673 124.615 136.792  0.00  0.00    +0.000 A 
BRANCH  17  20
ATOM     20  O   UNL     1     112.261 124.396 136.750  0.00  0.00    +0.000 OA
ATOM     21  C   UNL     1     111.585 124.351 137.221  0.00  0.00    +0.000 C 
ENDBRANCH  17  20
ENDBRANCH  11  14
BRANCH   4  22
ATOM     22  O   UNL     1     112.559 127.802 141.541  0.00  0.00    +0.000 OA
BRANCH  22  31
ATOM     23  O   UNL     1     111.179 127.450 141.421  0.00  0.00    +0.000 OA
ATOM     24  O   UNL     1     110.645 128.882 143.366  0.00  0.00    +0.000 OA
ATOM     25  O   UNL     1     109.443 128.054 142.598  0.00  0.00    +0.000 OA
ATOM     26  O   UNL     1     112.202 128.757 142.838  0.00  0.00    +0.000 OA
ATOM     27  C   UNL     1     110.823 128.405 142.718  0.00  0.00    +0.000 C 
ATOM     28  C   UNL     1     110.222 127.991 142.334  0.00  0.00    +0.000 C 
ATOM     29  C   UNL     1     111.601 128.342 142.454  0.00  0.00    +0.000 C 
ATOM     30  C   UNL     1     110.401 127.513 141.685  0.00  0.00    +0.000 C 
ATOM     31  C   UNL     1     111.780 127.865 141.805  0.00  0.00    +0.000 C 
ATOM     32  C   UNL     1     109.799 127.099 141.301  0.00  0.00    +0.000 C 
ENDBRANCH  22  31
ENDBRANCH   4  22
BRANCH   5  33
ATOM     33  O   UNL     1     113.538 127.462 137.006  0.00  0.00    +0.000 OA
BRANCH  33  41
ATOM     34  O   UNL     1     112.204 127.827 136.649  0.00  0.00    +0.000 OA
ATOM     35  O   UNL     1     113.072 129.114 134.721  0.00  0.00    +0.000 OA
ATOM     36  O   UNL     1     114.116 128.320 135.721  0.00  0.00    +0.000 OA
ATOM     37  O   UNL     1     111.447 129.050 135.008  0.00  0.00    +0.000 OA
ATOM     38  C   UNL     1     112.782 128.685 135.364  0.00  0.00    +0.000 C 
ATOM     39  C   UNL     1     113.305 128.288 135.863  0.00  0.00    +0.000 C 
ATOM     40  C   UNL     1     111.970 128.653 135.507  0.00  0.00    +0.000 C 
ATOM     41  C   UNL     1     113.016 127.859 136.506  0.00  0.00    +0.000 C 
ATOM     42  C   UNL     1     111.681 128.224 136.150  0.00  0.00    +0.000 C 
ENDBRANCH  33  41
ENDBRANCH   5  33
TORSDOF 6
ENDMDL
MODEL 9
REMARK VINA RESULT:      -9.6      2.329      4.984
REMARK  Name = 44259384
REMARK  6 active torsions:
REMARK  status: ('A' for Active; 'I' for Inactive)
REMARK    1  A    between atoms: O_2  and  C_20
REMARK    2  A    between atoms: O_2  and  C_27
REMARK    3  A    between atoms: O_7  and  C_24
REMARK    4  A    between atoms: O_7  and  C_28
REMARK    5  A    between atoms: O_14  and  C_39
REMARK    6  A    between atoms: C_34  and  C_36
REMARK                            x       y       z     vdW  Elec       q    Type
REMARK                         _______ _______ _______ _____ _____    ______ ____
ROOT
ATOM      1  O   UNL     1     111.103 128.876 137.353  0.00  0.00    +0.000 OA
ATOM      2  O   UNL     1     110.285 130.463 139.624  0.00  0.00    +0.000 OA
ATOM      3  O   UNL     1     111.511 129.704 139.649  0.00  0.00    +0.000 OA
ATOM      4  C   UNL     1     109.291 130.151 137.640  0.00  0.00    +0.000 A 
ATOM      5  C   UNL     1     111.917 128.919 138.526  0.00  0.00    +0.000 A 
ATOM      6  C   UNL     1     110.698 129.661 138.475  0.00  0.00    +0.000 A 
ATOM      7  C   UNL     1     110.561 129.385 137.709  0.00  0.00    +0.000 A 
ATOM      8  C   UNL     1     109.859 129.621 137.274  0.00  0.00    +0.000 A 
ATOM      9  C   UNL     1     109.432 130.439 138.438  0.00  0.00    +0.000 A 
ATOM     10  C   UNL     1     111.376 129.428 138.883  0.00  0.00    +0.000 A 
ATOM     11  C   UNL     1     111.781 128.643 137.760  0.00  0.00    +0.000 A 
ATOM     12  C   UNL     1     110.140 130.192 138.858  0.00  0.00    +0.000 A 
ENDROOT
BRANCH  11  14
ATOM     13  O   UNL     1     113.950 126.606 136.332  0.00  0.00    +0.000 OA
ATOM     14  C   UNL     1     112.323 128.133 137.403  0.00  0.00    +0.000 A 
ATOM     15  C   UNL     1     112.840 128.419 136.827  0.00  0.00    +0.000 A 
ATOM     16  C   UNL     1     112.349 127.338 137.623  0.00  0.00    +0.000 A 
ATOM     17  C   UNL     1     113.382 127.910 136.469  0.00  0.00    +0.000 A 
ATOM     18  C   UNL     1     112.891 126.830 137.266  0.00  0.00    +0.000 A 
ATOM     19  C   UNL     1     113.408 127.116 136.689  0.00  0.00    +0.000 A 
BRANCH  17  20
ATOM     20  O   UNL     1     113.898 128.196 135.893  0.00  0.00    +0.000 OA
ATOM     21  C   UNL     1     113.700 128.869 135.459  0.00  0.00    +0.000 C 
ENDBRANCH  17  20
ENDBRANCH  11  14
BRANCH   4  22
ATOM     22  O   UNL     1     108.614 130.383 137.229  0.00  0.00    +0.000 OA
BRANCH  22  31
ATOM     23  O   UNL     1     109.212 131.575 136.718  0.00  0.00    +0.000 OA
ATOM     24  O   UNL     1     107.720 131.479 134.746  0.00  0.00    +0.000 OA
ATOM     25  O   UNL     1     108.816 132.704 134.891  0.00  0.00    +0.000 OA
ATOM     26  O   UNL     1     107.619 130.318 135.914  0.00  0.00    +0.000 OA
ATOM     27  C   UNL     1     108.217 131.511 135.403  0.00  0.00    +0.000 C 
ATOM     28  C   UNL     1     108.765 132.123 135.476  0.00  0.00    +0.000 C 
ATOM     29  C   UNL     1     108.167 130.931 135.987  0.00  0.00    +0.000 C 
ATOM     30  C   UNL     1     109.263 132.155 136.134  0.00  0.00    +0.000 C 
ATOM     31  C   UNL     1     108.665 130.963 136.645  0.00  0.00    +0.000 C 
ATOM     32  C   UNL     1     109.811 132.768 136.206  0.00  0.00    +0.000 C 
ENDBRANCH  22  31
ENDBRANCH   4  22
BRANCH   5  33
ATOM     33  O   UNL     1     112.595 128.686 138.934  0.00  0.00    +0.000 OA
BRANCH  33  41
ATOM     34  O   UNL     1     113.225 129.960 138.790  0.00  0.00    +0.000 OA
ATOM     35  O   UNL     1     114.545 129.539 140.841  0.00  0.00    +0.000 OA
ATOM     36  O   UNL     1     113.475 128.406 140.301  0.00  0.00    +0.000 OA
ATOM     37  O   UNL     1     114.735 130.955 140.012  0.00  0.00    +0.000 OA
ATOM     38  C   UNL     1     114.106 129.680 140.157  0.00  0.00    +0.000 C 
ATOM     39  C   UNL     1     113.571 129.113 139.888  0.00  0.00    +0.000 C 
ATOM     40  C   UNL     1     114.200 130.387 139.743  0.00  0.00    +0.000 C 
ATOM     41  C   UNL     1     113.130 129.253 139.204  0.00  0.00    +0.000 C 
ATOM     42  C   UNL     1     113.760 130.527 139.059  0.00  0.00    +0.000 C 
ENDBRANCH  33  41
ENDBRANCH   5  33
TORSDOF 6
ENDMDL
MODEL 10
REMARK VINA RESULT:      -9.6      2.582      3.531
REMARK  Name = 44259384
REMARK  6 active torsions:
REMARK  status: ('A' for Active; 'I' for Inactive)
REMARK    1  A    between atoms: O_2  and  C_20
REMARK    2  A    between atoms: O_2  and  C_27
REMARK    3  A    between atoms: O_7  and  C_24
REMARK    4  A    between atoms: O_7  and  C_28
REMARK    5  A    between atoms: O_14  and  C_39
REMARK    6  A    between atoms: C_34  and  C_36
REMARK                            x       y       z     vdW  Elec       q    Type
REMARK                         _______ _______ _______ _____ _____    ______ ____
ROOT
ATOM      1  O   UNL     1     110.272 127.448 136.909  0.00  0.00    +0.000 OA
ATOM      2  O   UNL     1     110.357 126.847 139.734  0.00  0.00    +0.000 OA
ATOM      3  O   UNL     1     109.801 128.088 139.253  0.00  0.00    +0.000 OA
ATOM      4  C   UNL     1     111.053 125.647 137.975  0.00  0.00    +0.000 A 
ATOM      5  C   UNL     1     109.758 128.387 137.856  0.00  0.00    +0.000 A 
ATOM      6  C   UNL     1     110.314 127.150 138.305  0.00  0.00    +0.000 A 
ATOM      7  C   UNL     1     110.472 126.936 137.524  0.00  0.00    +0.000 A 
ATOM      8  C   UNL     1     110.843 126.184 137.339  0.00  0.00    +0.000 A 
ATOM      9  C   UNL     1     110.889 125.868 138.789  0.00  0.00    +0.000 A 
ATOM     10  C   UNL     1     109.958 127.875 138.471  0.00  0.00    +0.000 A 
ATOM     11  C   UNL     1     109.915 128.174 137.075  0.00  0.00    +0.000 A 
ATOM     12  C   UNL     1     110.518 126.625 138.955  0.00  0.00    +0.000 A 
ENDROOT
BRANCH  11  14
ATOM     13  O   UNL     1     109.118 130.222 134.614  0.00  0.00    +0.000 OA
ATOM     14  C   UNL     1     109.716 128.686 136.459  0.00  0.00    +0.000 A 
ATOM     15  C   UNL     1     110.307 129.097 136.057  0.00  0.00    +0.000 A 
ATOM     16  C   UNL     1     108.925 128.787 136.246  0.00  0.00    +0.000 A 
ATOM     17  C   UNL     1     110.108 129.609 135.442  0.00  0.00    +0.000 A 
ATOM     18  C   UNL     1     108.726 129.299 135.631  0.00  0.00    +0.000 A 
ATOM     19  C   UNL     1     109.317 129.710 135.229  0.00  0.00    +0.000 A 
BRANCH  17  20
ATOM     20  O   UNL     1     110.699 130.021 135.039  0.00  0.00    +0.000 OA
ATOM     21  C   UNL     1     111.464 129.714 135.004  0.00  0.00    +0.000 C 
ENDBRANCH  17  20
ENDBRANCH  11  14
BRANCH   4  22
ATOM     22  O   UNL     1     111.410 124.922 137.806  0.00  0.00    +0.000 OA
BRANCH  22  31
ATOM     23  O   UNL     1     112.758 125.349 138.007  0.00  0.00    +0.000 OA
ATOM     24  O   UNL     1     113.496 123.898 136.143  0.00  0.00    +0.000 OA
ATOM     25  O   UNL     1     114.599 124.809 136.964  0.00  0.00    +0.000 OA
ATOM     26  O   UNL     1     111.901 123.954 136.563  0.00  0.00    +0.000 OA
ATOM     27  C   UNL     1     113.250 124.382 136.764  0.00  0.00    +0.000 C 
ATOM     28  C   UNL     1     113.801 124.837 137.175  0.00  0.00    +0.000 C 
ATOM     29  C   UNL     1     112.453 124.410 136.974  0.00  0.00    +0.000 C 
ATOM     30  C   UNL     1     113.555 125.321 137.797  0.00  0.00    +0.000 C 
ATOM     31  C   UNL     1     112.207 124.894 137.596  0.00  0.00    +0.000 C 
ATOM     32  C   UNL     1     114.107 125.777 138.207  0.00  0.00    +0.000 C 
ENDBRANCH  22  31
ENDBRANCH   4  22
BRANCH   5  33
ATOM     33  O   UNL     1     109.402 129.112 138.022  0.00  0.00    +0.000 OA
BRANCH  33  41
ATOM     34  O   UNL     1     110.619 129.685 138.503  0.00  0.00    +0.000 OA
ATOM     35  O   UNL     1     109.322 131.301 139.858  0.00  0.00    +0.000 OA
ATOM     36  O   UNL     1     108.538 130.189 138.926  0.00  0.00    +0.000 OA
ATOM     37  O   UNL     1     110.973 131.335 139.888  0.00  0.00    +0.000 OA
ATOM     38  C   UNL     1     109.755 130.762 139.407  0.00  0.00    +0.000 C 
ATOM     39  C   UNL     1     109.362 130.207 138.941  0.00  0.00    +0.000 C 
ATOM     40  C   UNL     1     110.580 130.780 139.421  0.00  0.00    +0.000 C 
ATOM     41  C   UNL     1     109.794 129.668 138.489  0.00  0.00    +0.000 C 
ATOM     42  C   UNL     1     111.012 130.241 138.970  0.00  0.00    +0.000 C 
ENDBRANCH  33  41
ENDBRANCH   5  33
TORSDOF 6
ENDMDL
