MODEL 1
REMARK VINA RESULT:      -9.3      0.000      0.000
REMARK  Name = 42608064
REMARK  5 active torsions:
REMARK  status: ('A' for Active; 'I' for Inactive)
REMARK    1  A    between atoms: O_2  and  C_16
REMARK    2  A    between atoms: O_2  and  C_18
REMARK    3  A    between atoms: O_8  and  C_25
REMARK    4  A    between atoms: C_15  and  C_17
REMARK    5  A    between atoms: C_19  and  C_27
REMARK                            x       y       z     vdW  Elec       q    Type
REMARK                         _______ _______ _______ _____ _____    ______ ____
ROOT
ATOM      1  O   UNL     1     105.400 126.333 144.221  0.00  0.00    +0.000 OA
ATOM      2  O   UNL     1     107.294 127.454 145.474  0.00  0.00    +0.000 OA
ATOM      3  C   UNL     1     105.690 124.954 145.926  0.00  0.00    +0.000 A 
ATOM      4  C   UNL     1     105.732 127.065 143.917  0.00  0.00    +0.000 C 
ATOM      5  C   UNL     1     106.307 125.322 146.332  0.00  0.00    +0.000 A 
ATOM      6  C   UNL     1     106.334 126.360 145.351  0.00  0.00    +0.000 A 
ATOM      7  C   UNL     1     105.717 125.993 144.945  0.00  0.00    +0.000 A 
ATOM      8  C   UNL     1     106.375 127.448 144.340  0.00  0.00    +0.000 C 
ATOM      9  C   UNL     1     105.395 125.290 145.232  0.00  0.00    +0.000 A 
ATOM     10  C   UNL     1     106.629 126.025 146.044  0.00  0.00    +0.000 A 
ATOM     11  C   UNL     1     106.677 127.093 145.062  0.00  0.00    +0.000 C 
ATOM     12  C   UNL     1     106.602 124.986 147.026  0.00  0.00    +0.000 C 
ENDROOT
BRANCH   4  15
ATOM     13  O   UNL     1     105.379 126.976 141.082  0.00  0.00    +0.000 OA
ATOM     14  O   UNL     1     104.544 128.398 141.142  0.00  0.00    +0.000 OA
ATOM     15  C   UNL     1     105.435 127.398 143.224  0.00  0.00    +0.000 A 
ATOM     16  C   UNL     1     105.555 127.021 142.500  0.00  0.00    +0.000 A 
ATOM     17  C   UNL     1     105.017 128.109 143.253  0.00  0.00    +0.000 A 
ATOM     18  C   UNL     1     105.259 127.353 141.806  0.00  0.00    +0.000 A 
ATOM     19  C   UNL     1     104.720 128.443 142.560  0.00  0.00    +0.000 A 
ATOM     20  C   UNL     1     104.841 128.064 141.836  0.00  0.00    +0.000 A 
ENDBRANCH   4  15
BRANCH  10  21
ATOM     21  O   UNL     1     107.246 126.392 146.451  0.00  0.00    +0.000 OA
ATOM     22  C   UNL     1     107.086 127.003 146.980  0.00  0.00    +0.000 C 
ENDBRANCH  10  21
BRANCH   3  23
ATOM     23  O   UNL     1     105.368 124.251 146.214  0.00  0.00    +0.000 OA
BRANCH  23  32
ATOM     24  O   UNL     1     104.148 124.740 146.775  0.00  0.00    +0.000 OA
ATOM     25  O   UNL     1     102.915 122.869 145.723  0.00  0.00    +0.000 OA
ATOM     26  O   UNL     1     102.107 123.981 146.634  0.00  0.00    +0.000 OA
ATOM     27  O   UNL     1     104.546 123.004 145.513  0.00  0.00    +0.000 OA
ATOM     28  C   UNL     1     103.326 123.492 146.074  0.00  0.00    +0.000 C 
ATOM     29  C   UNL     1     102.922 124.049 146.529  0.00  0.00    +0.000 C 
ATOM     30  C   UNL     1     104.142 123.560 145.968  0.00  0.00    +0.000 C 
ATOM     31  C   UNL     1     103.333 124.672 146.880  0.00  0.00    +0.000 C 
ATOM     32  C   UNL     1     104.553 124.184 146.319  0.00  0.00    +0.000 C 
BRANCH  31  34
ATOM     33  O   UNL     1     103.245 125.482 148.054  0.00  0.00    +0.000 OA
ATOM     34  C   UNL     1     102.929 125.228 147.335  0.00  0.00    +0.000 C 
ENDBRANCH  31  34
ENDBRANCH  23  32
ENDBRANCH   3  23
TORSDOF 5
ENDMDL
MODEL 2
REMARK VINA RESULT:      -9.2      8.922     11.707
REMARK  Name = 42608064
REMARK  5 active torsions:
REMARK  status: ('A' for Active; 'I' for Inactive)
REMARK    1  A    between atoms: O_2  and  C_16
REMARK    2  A    between atoms: O_2  and  C_18
REMARK    3  A    between atoms: O_8  and  C_25
REMARK    4  A    between atoms: C_15  and  C_17
REMARK    5  A    between atoms: C_19  and  C_27
REMARK                            x       y       z     vdW  Elec       q    Type
REMARK                         _______ _______ _______ _____ _____    ______ ____
ROOT
ATOM      1  O   UNL     1     112.428 128.180 135.565  0.00  0.00    +0.000 OA
ATOM      2  O   UNL     1     110.516 129.540 134.612  0.00  0.00    +0.000 OA
ATOM      3  C   UNL     1     110.812 126.674 135.463  0.00  0.00    +0.000 A 
ATOM      4  C   UNL     1     112.551 129.011 135.383  0.00  0.00    +0.000 C 
ATOM      5  C   UNL     1     110.191 127.120 135.153  0.00  0.00    +0.000 A 
ATOM      6  C   UNL     1     111.037 128.270 135.110  0.00  0.00    +0.000 A 
ATOM      7  C   UNL     1     111.659 127.825 135.421  0.00  0.00    +0.000 A 
ATOM      8  C   UNL     1     111.904 129.475 135.060  0.00  0.00    +0.000 C 
ATOM      9  C   UNL     1     111.546 127.027 135.597  0.00  0.00    +0.000 A 
ATOM     10  C   UNL     1     110.304 127.918 134.976  0.00  0.00    +0.000 A 
ATOM     11  C   UNL     1     111.142 129.101 134.923  0.00  0.00    +0.000 C 
ATOM     12  C   UNL     1     109.457 126.767 135.019  0.00  0.00    +0.000 C 
ENDROOT
BRANCH   4  15
ATOM     13  O   UNL     1     114.310 130.498 137.074  0.00  0.00    +0.000 OA
ATOM     14  O   UNL     1     115.490 130.411 135.924  0.00  0.00    +0.000 OA
ATOM     15  C   UNL     1     113.286 129.361 135.518  0.00  0.00    +0.000 A 
ATOM     16  C   UNL     1     113.431 129.754 136.228  0.00  0.00    +0.000 A 
ATOM     17  C   UNL     1     113.876 129.317 134.943  0.00  0.00    +0.000 A 
ATOM     18  C   UNL     1     114.165 130.105 136.364  0.00  0.00    +0.000 A 
ATOM     19  C   UNL     1     114.610 129.667 135.078  0.00  0.00    +0.000 A 
ATOM     20  C   UNL     1     114.755 130.061 135.789  0.00  0.00    +0.000 A 
ENDBRANCH   4  15
BRANCH  10  21
ATOM     21  O   UNL     1     109.682 128.363 134.666  0.00  0.00    +0.000 OA
ATOM     22  C   UNL     1     109.254 128.871 135.154  0.00  0.00    +0.000 C 
ENDBRANCH  10  21
BRANCH   3  23
ATOM     23  O   UNL     1     110.699 125.876 135.640  0.00  0.00    +0.000 OA
BRANCH  23  32
ATOM     24  O   UNL     1     110.571 125.989 137.058  0.00  0.00    +0.000 OA
ATOM     25  O   UNL     1     111.951 123.954 137.345  0.00  0.00    +0.000 OA
ATOM     26  O   UNL     1     111.363 124.746 138.667  0.00  0.00    +0.000 OA
ATOM     27  O   UNL     1     111.619 124.519 135.831  0.00  0.00    +0.000 OA
ATOM     28  C   UNL     1     111.491 124.633 137.250  0.00  0.00    +0.000 C 
ATOM     29  C   UNL     1     111.197 125.029 137.911  0.00  0.00    +0.000 C 
ATOM     30  C   UNL     1     111.325 124.915 136.492  0.00  0.00    +0.000 C 
ATOM     31  C   UNL     1     110.737 125.707 137.815  0.00  0.00    +0.000 C 
ATOM     32  C   UNL     1     110.865 125.594 136.396  0.00  0.00    +0.000 C 
BRANCH  31  34
ATOM     33  O   UNL     1     109.642 126.291 138.523  0.00  0.00    +0.000 OA
ATOM     34  C   UNL     1     110.444 126.102 138.476  0.00  0.00    +0.000 C 
ENDBRANCH  31  34
ENDBRANCH  23  32
ENDBRANCH   3  23
TORSDOF 5
ENDMDL
MODEL 3
REMARK VINA RESULT:      -9.2      7.060     10.653
REMARK  Name = 42608064
REMARK  5 active torsions:
REMARK  status: ('A' for Active; 'I' for Inactive)
REMARK    1  A    between atoms: O_2  and  C_16
REMARK    2  A    between atoms: O_2  and  C_18
REMARK    3  A    between atoms: O_8  and  C_25
REMARK    4  A    between atoms: C_15  and  C_17
REMARK    5  A    between atoms: C_19  and  C_27
REMARK                            x       y       z     vdW  Elec       q    Type
REMARK                         _______ _______ _______ _____ _____    ______ ____
ROOT
ATOM      1  O   UNL     1     110.250 126.639 138.301  0.00  0.00    +0.000 OA
ATOM      2  O   UNL     1     111.453 124.582 137.443  0.00  0.00    +0.000 OA
ATOM      3  C   UNL     1     109.740 126.683 136.149  0.00  0.00    +0.000 A 
ATOM      4  C   UNL     1     110.701 126.154 138.849  0.00  0.00    +0.000 C 
ATOM      5  C   UNL     1     110.133 126.013 135.874  0.00  0.00    +0.000 A 
ATOM      6  C   UNL     1     110.608 125.747 137.194  0.00  0.00    +0.000 A 
ATOM      7  C   UNL     1     110.215 126.417 137.471  0.00  0.00    +0.000 A 
ATOM      8  C   UNL     1     111.110 125.456 138.561  0.00  0.00    +0.000 C 
ATOM      9  C   UNL     1     109.781 126.886 136.949  0.00  0.00    +0.000 A 
ATOM     10  C   UNL     1     110.567 125.544 136.396  0.00  0.00    +0.000 A 
ATOM     11  C   UNL     1     111.063 125.251 137.728  0.00  0.00    +0.000 C 
ATOM     12  C   UNL     1     110.092 125.811 135.074  0.00  0.00    +0.000 C 
ENDROOT
BRANCH   4  15
ATOM     13  O   UNL     1     109.559 126.131 141.469  0.00  0.00    +0.000 OA
ATOM     14  O   UNL     1     110.858 126.972 142.042  0.00  0.00    +0.000 OA
ATOM     15  C   UNL     1     110.740 126.359 139.648  0.00  0.00    +0.000 A 
ATOM     16  C   UNL     1     110.131 126.143 140.159  0.00  0.00    +0.000 A 
ATOM     17  C   UNL     1     111.390 126.780 139.934  0.00  0.00    +0.000 A 
ATOM     18  C   UNL     1     110.169 126.347 140.957  0.00  0.00    +0.000 A 
ATOM     19  C   UNL     1     111.429 126.984 140.732  0.00  0.00    +0.000 A 
ATOM     20  C   UNL     1     110.819 126.768 141.244  0.00  0.00    +0.000 A 
ENDBRANCH   4  15
BRANCH  10  21
ATOM     21  O   UNL     1     110.960 124.874 136.119  0.00  0.00    +0.000 OA
ATOM     22  C   UNL     1     111.775 124.893 135.997  0.00  0.00    +0.000 C 
ENDBRANCH  10  21
BRANCH   3  23
ATOM     23  O   UNL     1     109.306 127.152 135.627  0.00  0.00    +0.000 OA
BRANCH  23  32
ATOM     24  O   UNL     1     110.185 128.272 135.508  0.00  0.00    +0.000 OA
ATOM     25  O   UNL     1     108.262 129.809 135.756  0.00  0.00    +0.000 OA
ATOM     26  O   UNL     1     109.782 130.416 135.553  0.00  0.00    +0.000 OA
ATOM     27  O   UNL     1     108.023 128.177 135.793  0.00  0.00    +0.000 OA
ATOM     28  C   UNL     1     108.903 129.297 135.673  0.00  0.00    +0.000 C 
ATOM     29  C   UNL     1     109.663 129.600 135.572  0.00  0.00    +0.000 C 
ATOM     30  C   UNL     1     108.784 128.480 135.691  0.00  0.00    +0.000 C 
ATOM     31  C   UNL     1     110.305 129.087 135.489  0.00  0.00    +0.000 C 
ATOM     32  C   UNL     1     109.425 127.967 135.609  0.00  0.00    +0.000 C 
BRANCH  31  34
ATOM     33  O   UNL     1     111.572 129.057 134.829  0.00  0.00    +0.000 OA
ATOM     34  C   UNL     1     111.064 129.391 135.388  0.00  0.00    +0.000 C 
ENDBRANCH  31  34
ENDBRANCH  23  32
ENDBRANCH   3  23
TORSDOF 5
ENDMDL
MODEL 4
REMARK VINA RESULT:      -9.2      8.983     11.331
REMARK  Name = 42608064
REMARK  5 active torsions:
REMARK  status: ('A' for Active; 'I' for Inactive)
REMARK    1  A    between atoms: O_2  and  C_16
REMARK    2  A    between atoms: O_2  and  C_18
REMARK    3  A    between atoms: O_8  and  C_25
REMARK    4  A    between atoms: C_15  and  C_17
REMARK    5  A    between atoms: C_19  and  C_27
REMARK                            x       y       z     vdW  Elec       q    Type
REMARK                         _______ _______ _______ _____ _____    ______ ____
ROOT
ATOM      1  O   UNL     1     113.002 127.500 136.218  0.00  0.00    +0.000 OA
ATOM      2  O   UNL     1     114.864 125.789 136.348  0.00  0.00    +0.000 OA
ATOM      3  C   UNL     1     111.868 125.624 136.511  0.00  0.00    +0.000 A 
ATOM      4  C   UNL     1     113.818 127.759 136.146  0.00  0.00    +0.000 C 
ATOM      5  C   UNL     1     112.477 125.069 136.553  0.00  0.00    +0.000 A 
ATOM      6  C   UNL     1     113.439 126.110 136.375  0.00  0.00    +0.000 A 
ATOM      7  C   UNL     1     112.831 126.666 136.332  0.00  0.00    +0.000 A 
ATOM      8  C   UNL     1     114.452 127.181 136.190  0.00  0.00    +0.000 C 
ATOM      9  C   UNL     1     112.045 126.423 136.401  0.00  0.00    +0.000 A 
ATOM     10  C   UNL     1     113.263 125.312 136.485  0.00  0.00    +0.000 A 
ATOM     11  C   UNL     1     114.261 126.351 136.305  0.00  0.00    +0.000 C 
ATOM     12  C   UNL     1     112.300 124.271 136.664  0.00  0.00    +0.000 C 
ENDROOT
BRANCH   4  15
ATOM     13  O   UNL     1     113.919 130.432 137.153  0.00  0.00    +0.000 OA
ATOM     14  O   UNL     1     114.513 130.955 135.705  0.00  0.00    +0.000 OA
ATOM     15  C   UNL     1     113.992 128.558 136.036  0.00  0.00    +0.000 A 
ATOM     16  C   UNL     1     113.869 129.096 136.649  0.00  0.00    +0.000 A 
ATOM     17  C   UNL     1     114.289 128.819 135.312  0.00  0.00    +0.000 A 
ATOM     18  C   UNL     1     114.042 129.894 136.540  0.00  0.00    +0.000 A 
ATOM     19  C   UNL     1     114.463 129.618 135.201  0.00  0.00    +0.000 A 
ATOM     20  C   UNL     1     114.339 130.156 135.816  0.00  0.00    +0.000 A 
ENDBRANCH   4  15
BRANCH  10  21
ATOM     21  O   UNL     1     113.871 124.756 136.527  0.00  0.00    +0.000 OA
ATOM     22  C   UNL     1     114.272 124.637 137.237  0.00  0.00    +0.000 C 
ENDBRANCH  10  21
BRANCH   3  23
ATOM     23  O   UNL     1     111.083 125.381 136.579  0.00  0.00    +0.000 OA
BRANCH  23  32
ATOM     24  O   UNL     1     110.761 125.783 137.912  0.00  0.00    +0.000 OA
ATOM     25  O   UNL     1     108.694 126.866 137.087  0.00  0.00    +0.000 OA
ATOM     26  O   UNL     1     109.062 126.907 138.694  0.00  0.00    +0.000 OA
ATOM     27  O   UNL     1     109.704 126.103 136.029  0.00  0.00    +0.000 OA
ATOM     28  C   UNL     1     109.383 126.505 137.362  0.00  0.00    +0.000 C 
ATOM     29  C   UNL     1     109.568 126.525 138.166  0.00  0.00    +0.000 C 
ATOM     30  C   UNL     1     109.889 126.123 136.833  0.00  0.00    +0.000 C 
ATOM     31  C   UNL     1     110.257 126.165 138.441  0.00  0.00    +0.000 C 
ATOM     32  C   UNL     1     110.578 125.762 137.108  0.00  0.00    +0.000 C 
BRANCH  31  34
ATOM     33  O   UNL     1     110.729 125.510 139.620  0.00  0.00    +0.000 OA
ATOM     34  C   UNL     1     110.440 126.185 139.244  0.00  0.00    +0.000 C 
ENDBRANCH  31  34
ENDBRANCH  23  32
ENDBRANCH   3  23
TORSDOF 5
ENDMDL
MODEL 5
REMARK VINA RESULT:      -9.1     10.066     12.431
REMARK  Name = 42608064
REMARK  5 active torsions:
REMARK  status: ('A' for Active; 'I' for Inactive)
REMARK    1  A    between atoms: O_2  and  C_16
REMARK    2  A    between atoms: O_2  and  C_18
REMARK    3  A    between atoms: O_8  and  C_25
REMARK    4  A    between atoms: C_15  and  C_17
REMARK    5  A    between atoms: C_19  and  C_27
REMARK                            x       y       z     vdW  Elec       q    Type
REMARK                         _______ _______ _______ _____ _____    ______ ____
ROOT
ATOM      1  O   UNL     1     111.527 126.660 135.909  0.00  0.00    +0.000 OA
ATOM      2  O   UNL     1     109.057 127.018 135.481  0.00  0.00    +0.000 OA
ATOM      3  C   UNL     1     111.500 128.733 135.137  0.00  0.00    +0.000 A 
ATOM      4  C   UNL     1     110.974 126.025 136.078  0.00  0.00    +0.000 C 
ATOM      5  C   UNL     1     110.695 128.846 134.999  0.00  0.00    +0.000 A 
ATOM      6  C   UNL     1     110.428 127.520 135.459  0.00  0.00    +0.000 A 
ATOM      7  C   UNL     1     111.234 127.406 135.597  0.00  0.00    +0.000 A 
ATOM      8  C   UNL     1     110.135 126.144 135.934  0.00  0.00    +0.000 C 
ATOM      9  C   UNL     1     111.770 128.012 135.436  0.00  0.00    +0.000 A 
ATOM     10  C   UNL     1     110.159 128.239 135.160  0.00  0.00    +0.000 A 
ATOM     11  C   UNL     1     109.861 126.896 135.622  0.00  0.00    +0.000 C 
ATOM     12  C   UNL     1     110.425 129.566 134.699  0.00  0.00    +0.000 C 
ENDROOT
BRANCH   4  15
ATOM     13  O   UNL     1     111.486 124.306 138.303  0.00  0.00    +0.000 OA
ATOM     14  O   UNL     1     112.062 123.150 137.276  0.00  0.00    +0.000 OA
ATOM     15  C   UNL     1     111.246 125.306 136.377  0.00  0.00    +0.000 A 
ATOM     16  C   UNL     1     111.230 125.165 137.190  0.00  0.00    +0.000 A 
ATOM     17  C   UNL     1     111.534 124.728 135.864  0.00  0.00    +0.000 A 
ATOM     18  C   UNL     1     111.502 124.447 137.490  0.00  0.00    +0.000 A 
ATOM     19  C   UNL     1     111.806 124.009 136.163  0.00  0.00    +0.000 A 
ATOM     20  C   UNL     1     111.790 123.869 136.977  0.00  0.00    +0.000 A 
ENDBRANCH   4  15
BRANCH  10  21
ATOM     21  O   UNL     1     109.354 128.354 135.021  0.00  0.00    +0.000 OA
ATOM     22  C   UNL     1     108.861 128.605 135.632  0.00  0.00    +0.000 C 
ENDBRANCH  10  21
BRANCH   3  23
ATOM     23  O   UNL     1     112.036 129.339 134.976  0.00  0.00    +0.000 OA
BRANCH  23  32
ATOM     24  O   UNL     1     112.326 129.783 136.303  0.00  0.00    +0.000 OA
ATOM     25  O   UNL     1     114.741 129.827 135.760  0.00  0.00    +0.000 OA
ATOM     26  O   UNL     1     114.226 130.256 137.266  0.00  0.00    +0.000 OA
ATOM     27  O   UNL     1     113.646 129.368 134.614  0.00  0.00    +0.000 OA
ATOM     28  C   UNL     1     113.936 129.812 135.941  0.00  0.00    +0.000 C 
ATOM     29  C   UNL     1     113.678 130.027 136.694  0.00  0.00    +0.000 C 
ATOM     30  C   UNL     1     113.388 129.583 135.367  0.00  0.00    +0.000 C 
ATOM     31  C   UNL     1     112.873 130.012 136.875  0.00  0.00    +0.000 C 
ATOM     32  C   UNL     1     112.583 129.568 135.548  0.00  0.00    +0.000 C 
BRANCH  31  34
ATOM     33  O   UNL     1     111.971 130.732 137.717  0.00  0.00    +0.000 OA
ATOM     34  C   UNL     1     112.617 130.226 137.629  0.00  0.00    +0.000 C 
ENDBRANCH  31  34
ENDBRANCH  23  32
ENDBRANCH   3  23
TORSDOF 5
ENDMDL
MODEL 6
REMARK VINA RESULT:      -9.0      9.685     12.044
REMARK  Name = 42608064
REMARK  5 active torsions:
REMARK  status: ('A' for Active; 'I' for Inactive)
REMARK    1  A    between atoms: O_2  and  C_16
REMARK    2  A    between atoms: O_2  and  C_18
REMARK    3  A    between atoms: O_8  and  C_25
REMARK    4  A    between atoms: C_15  and  C_17
REMARK    5  A    between atoms: C_19  and  C_27
REMARK                            x       y       z     vdW  Elec       q    Type
REMARK                         _______ _______ _______ _____ _____    ______ ____
ROOT
ATOM      1  O   UNL     1     113.190 127.712 137.314  0.00  0.00    +0.000 OA
ATOM      2  O   UNL     1     114.232 128.812 135.284  0.00  0.00    +0.000 OA
ATOM      3  C   UNL     1     112.903 129.857 137.768  0.00  0.00    +0.000 A 
ATOM      4  C   UNL     1     113.527 127.221 136.694  0.00  0.00    +0.000 C 
ATOM      5  C   UNL     1     113.243 130.212 137.106  0.00  0.00    +0.000 A 
ATOM      6  C   UNL     1     113.553 128.924 136.572  0.00  0.00    +0.000 A 
ATOM      7  C   UNL     1     113.213 128.567 137.234  0.00  0.00    +0.000 A 
ATOM      8  C   UNL     1     113.881 127.591 136.004  0.00  0.00    +0.000 C 
ATOM      9  C   UNL     1     112.888 129.034 137.832  0.00  0.00    +0.000 A 
ATOM     10  C   UNL     1     113.568 129.745 136.508  0.00  0.00    +0.000 A 
ATOM     11  C   UNL     1     113.894 128.448 135.943  0.00  0.00    +0.000 C 
ATOM     12  C   UNL     1     113.259 131.035 137.041  0.00  0.00    +0.000 C 
ENDROOT
BRANCH   4  15
ATOM     13  O   UNL     1     114.778 124.777 137.486  0.00  0.00    +0.000 OA
ATOM     14  O   UNL     1     113.461 123.933 136.963  0.00  0.00    +0.000 OA
ATOM     15  C   UNL     1     113.510 126.399 136.761  0.00  0.00    +0.000 A 
ATOM     16  C   UNL     1     114.152 125.998 137.090  0.00  0.00    +0.000 A 
ATOM     17  C   UNL     1     112.851 125.977 136.499  0.00  0.00    +0.000 A 
ATOM     18  C   UNL     1     114.136 125.177 137.157  0.00  0.00    +0.000 A 
ATOM     19  C   UNL     1     112.835 125.155 136.566  0.00  0.00    +0.000 A 
ATOM     20  C   UNL     1     113.478 124.755 136.896  0.00  0.00    +0.000 A 
ENDBRANCH   4  15
BRANCH  10  21
ATOM     21  O   UNL     1     113.908 130.102 135.846  0.00  0.00    +0.000 OA
ATOM     22  C   UNL     1     114.722 130.232 135.819  0.00  0.00    +0.000 C 
ENDBRANCH  10  21
BRANCH   3  23
ATOM     23  O   UNL     1     112.579 130.324 138.366  0.00  0.00    +0.000 OA
BRANCH  23  32
ATOM     24  O   UNL     1     113.570 130.160 139.382  0.00  0.00    +0.000 OA
ATOM     25  O   UNL     1     111.789 129.801 141.062  0.00  0.00    +0.000 OA
ATOM     26  O   UNL     1     113.373 129.756 141.517  0.00  0.00    +0.000 OA
ATOM     27  O   UNL     1     111.391 130.084 139.486  0.00  0.00    +0.000 OA
ATOM     28  C   UNL     1     112.383 129.920 140.502  0.00  0.00    +0.000 C 
ATOM     29  C   UNL     1     113.175 129.898 140.729  0.00  0.00    +0.000 C 
ATOM     30  C   UNL     1     112.184 130.062 139.713  0.00  0.00    +0.000 C 
ATOM     31  C   UNL     1     113.769 130.018 140.169  0.00  0.00    +0.000 C 
ATOM     32  C   UNL     1     112.778 130.182 139.153  0.00  0.00    +0.000 C 
BRANCH  31  34
ATOM     33  O   UNL     1     115.085 130.573 140.126  0.00  0.00    +0.000 OA
ATOM     34  C   UNL     1     114.561 129.996 140.397  0.00  0.00    +0.000 C 
ENDBRANCH  31  34
ENDBRANCH  23  32
ENDBRANCH   3  23
TORSDOF 5
ENDMDL
MODEL 7
REMARK VINA RESULT:      -9.0      1.246      4.694
REMARK  Name = 42608064
REMARK  5 active torsions:
REMARK  status: ('A' for Active; 'I' for Inactive)
REMARK    1  A    between atoms: O_2  and  C_16
REMARK    2  A    between atoms: O_2  and  C_18
REMARK    3  A    between atoms: O_8  and  C_25
REMARK    4  A    between atoms: C_15  and  C_17
REMARK    5  A    between atoms: C_19  and  C_27
REMARK                            x       y       z     vdW  Elec       q    Type
REMARK                         _______ _______ _______ _____ _____    ______ ____
ROOT
ATOM      1  O   UNL     1     104.202 124.477 146.027  0.00  0.00    +0.000 OA
ATOM      2  O   UNL     1     105.010 124.629 148.422  0.00  0.00    +0.000 OA
ATOM      3  C   UNL     1     106.158 125.478 145.779  0.00  0.00    +0.000 A 
ATOM      4  C   UNL     1     103.710 124.166 146.658  0.00  0.00    +0.000 C 
ATOM      5  C   UNL     1     106.418 125.526 146.561  0.00  0.00    +0.000 A 
ATOM      6  C   UNL     1     105.221 124.883 147.000  0.00  0.00    +0.000 A 
ATOM      7  C   UNL     1     104.959 124.835 146.218  0.00  0.00    +0.000 A 
ATOM      8  C   UNL     1     103.981 124.216 147.472  0.00  0.00    +0.000 C 
ATOM      9  C   UNL     1     105.428 125.132 145.608  0.00  0.00    +0.000 A 
ATOM     10  C   UNL     1     105.949 125.229 147.171  0.00  0.00    +0.000 A 
ATOM     11  C   UNL     1     104.742 124.577 147.644  0.00  0.00    +0.000 C 
ATOM     12  C   UNL     1     107.148 125.872 146.732  0.00  0.00    +0.000 C 
ENDROOT
BRANCH   4  15
ATOM     13  O   UNL     1     100.853 124.248 146.725  0.00  0.00    +0.000 OA
ATOM     14  O   UNL     1     100.794 122.786 145.963  0.00  0.00    +0.000 OA
ATOM     15  C   UNL     1     102.981 123.820 146.485  0.00  0.00    +0.000 A 
ATOM     16  C   UNL     1     102.281 124.206 146.691  0.00  0.00    +0.000 A 
ATOM     17  C   UNL     1     102.951 123.089 146.104  0.00  0.00    +0.000 A 
ATOM     18  C   UNL     1     101.553 123.862 146.518  0.00  0.00    +0.000 A 
ATOM     19  C   UNL     1     102.222 122.744 145.930  0.00  0.00    +0.000 A 
ATOM     20  C   UNL     1     101.523 123.131 146.137  0.00  0.00    +0.000 A 
ENDBRANCH   4  15
BRANCH  10  21
ATOM     21  O   UNL     1     106.211 125.277 147.952  0.00  0.00    +0.000 OA
ATOM     22  C   UNL     1     106.526 124.613 148.324  0.00  0.00    +0.000 C 
ENDBRANCH  10  21
BRANCH   3  23
ATOM     23  O   UNL     1     106.627 125.776 145.169  0.00  0.00    +0.000 OA
BRANCH  23  32
ATOM     24  O   UNL     1     105.920 126.969 144.822  0.00  0.00    +0.000 OA
ATOM     25  O   UNL     1     106.048 126.348 142.429  0.00  0.00    +0.000 OA
ATOM     26  O   UNL     1     105.299 127.747 142.880  0.00  0.00    +0.000 OA
ATOM     27  O   UNL     1     106.712 125.362 143.574  0.00  0.00    +0.000 OA
ATOM     28  C   UNL     1     106.005 126.555 143.227  0.00  0.00    +0.000 C 
ATOM     29  C   UNL     1     105.631 127.254 143.453  0.00  0.00    +0.000 C 
ATOM     30  C   UNL     1     106.338 126.062 143.800  0.00  0.00    +0.000 C 
ATOM     31  C   UNL     1     105.588 127.461 144.250  0.00  0.00    +0.000 C 
ATOM     32  C   UNL     1     106.295 126.269 144.597  0.00  0.00    +0.000 C 
BRANCH  31  34
ATOM     33  O   UNL     1     105.547 128.638 145.060  0.00  0.00    +0.000 OA
ATOM     34  C   UNL     1     105.214 128.160 144.475  0.00  0.00    +0.000 C 
ENDBRANCH  31  34
ENDBRANCH  23  32
ENDBRANCH   3  23
TORSDOF 5
ENDMDL
MODEL 8
REMARK VINA RESULT:      -9.0      9.743     11.719
REMARK  Name = 42608064
REMARK  5 active torsions:
REMARK  status: ('A' for Active; 'I' for Inactive)
REMARK    1  A    between atoms: O_2  and  C_16
REMARK    2  A    between atoms: O_2  and  C_18
REMARK    3  A    between atoms: O_8  and  C_25
REMARK    4  A    between atoms: C_15  and  C_17
REMARK    5  A    between atoms: C_19  and  C_27
REMARK                            x       y       z     vdW  Elec       q    Type
REMARK                         _______ _______ _______ _____ _____    ______ ____
ROOT
ATOM      1  O   UNL     1     112.131 127.286 136.873  0.00  0.00    +0.000 OA
ATOM      2  O   UNL     1     114.310 128.046 135.830  0.00  0.00    +0.000 OA
ATOM      3  C   UNL     1     111.946 129.486 136.997  0.00  0.00    +0.000 A 
ATOM      4  C   UNL     1     112.692 126.699 136.592  0.00  0.00    +0.000 C 
ATOM      5  C   UNL     1     112.657 129.730 136.657  0.00  0.00    +0.000 A 
ATOM      6  C   UNL     1     113.030 128.367 136.455  0.00  0.00    +0.000 A 
ATOM      7  C   UNL     1     112.319 128.121 136.795  0.00  0.00    +0.000 A 
ATOM      8  C   UNL     1     113.432 126.953 136.238  0.00  0.00    +0.000 C 
ATOM      9  C   UNL     1     111.777 128.681 137.066  0.00  0.00    +0.000 A 
ATOM     10  C   UNL     1     113.198 129.170 136.386  0.00  0.00    +0.000 A 
ATOM     11  C   UNL     1     113.602 127.793 136.169  0.00  0.00    +0.000 C 
ATOM     12  C   UNL     1     112.825 130.536 136.588  0.00  0.00    +0.000 C 
ENDROOT
BRANCH   4  15
ATOM     13  O   UNL     1     111.150 124.420 135.818  0.00  0.00    +0.000 OA
ATOM     14  O   UNL     1     112.006 123.483 136.873  0.00  0.00    +0.000 OA
ATOM     15  C   UNL     1     112.521 125.895 136.662  0.00  0.00    +0.000 A 
ATOM     16  C   UNL     1     111.921 125.559 136.205  0.00  0.00    +0.000 A 
ATOM     17  C   UNL     1     112.949 125.426 137.190  0.00  0.00    +0.000 A 
ATOM     18  C   UNL     1     111.750 124.755 136.275  0.00  0.00    +0.000 A 
ATOM     19  C   UNL     1     112.777 124.622 137.260  0.00  0.00    +0.000 A 
ATOM     20  C   UNL     1     112.177 124.287 136.802  0.00  0.00    +0.000 A 
ENDBRANCH   4  15
BRANCH  10  21
ATOM     21  O   UNL     1     113.909 129.416 136.046  0.00  0.00    +0.000 OA
ATOM     22  C   UNL     1     113.978 129.470 135.226  0.00  0.00    +0.000 C 
ENDBRANCH  10  21
BRANCH   3  23
ATOM     23  O   UNL     1     111.404 130.046 137.268  0.00  0.00    +0.000 OA
BRANCH  23  32
ATOM     24  O   UNL     1     110.374 129.878 136.292  0.00  0.00    +0.000 OA
ATOM     25  O   UNL     1     108.667 129.937 138.083  0.00  0.00    +0.000 OA
ATOM     26  O   UNL     1     108.207 129.749 136.511  0.00  0.00    +0.000 OA
ATOM     27  O   UNL     1     110.266 130.086 138.462  0.00  0.00    +0.000 OA
ATOM     28  C   UNL     1     109.236 129.917 137.486  0.00  0.00    +0.000 C 
ATOM     29  C   UNL     1     109.006 129.823 136.700  0.00  0.00    +0.000 C 
ATOM     30  C   UNL     1     110.036 129.992 137.676  0.00  0.00    +0.000 C 
ATOM     31  C   UNL     1     109.575 129.804 136.103  0.00  0.00    +0.000 C 
ATOM     32  C   UNL     1     110.605 129.972 137.079  0.00  0.00    +0.000 C 
BRANCH  31  34
ATOM     33  O   UNL     1     109.691 130.171 134.726  0.00  0.00    +0.000 OA
ATOM     34  C   UNL     1     109.345 129.710 135.317  0.00  0.00    +0.000 C 
ENDBRANCH  31  34
ENDBRANCH  23  32
ENDBRANCH   3  23
TORSDOF 5
ENDMDL
MODEL 9
REMARK VINA RESULT:      -8.9      9.256     11.826
REMARK  Name = 42608064
REMARK  5 active torsions:
REMARK  status: ('A' for Active; 'I' for Inactive)
REMARK    1  A    between atoms: O_2  and  C_16
REMARK    2  A    between atoms: O_2  and  C_18
REMARK    3  A    between atoms: O_8  and  C_25
REMARK    4  A    between atoms: C_15  and  C_17
REMARK    5  A    between atoms: C_19  and  C_27
REMARK                            x       y       z     vdW  Elec       q    Type
REMARK                         _______ _______ _______ _____ _____    ______ ____
ROOT
ATOM      1  O   UNL     1     112.559 128.741 135.765  0.00  0.00    +0.000 OA
ATOM      2  O   UNL     1     113.305 126.506 136.695  0.00  0.00    +0.000 OA
ATOM      3  C   UNL     1     110.624 127.717 136.082  0.00  0.00    +0.000 A 
ATOM      4  C   UNL     1     113.398 128.585 135.867  0.00  0.00    +0.000 C 
ATOM      5  C   UNL     1     110.871 126.990 136.384  0.00  0.00    +0.000 A 
ATOM      6  C   UNL     1     112.233 127.408 136.282  0.00  0.00    +0.000 A 
ATOM      7  C   UNL     1     111.987 128.136 135.980  0.00  0.00    +0.000 A 
ATOM      8  C   UNL     1     113.654 127.828 136.183  0.00  0.00    +0.000 C 
ATOM      9  C   UNL     1     111.183 128.290 135.879  0.00  0.00    +0.000 A 
ATOM     10  C   UNL     1     111.675 126.836 136.485  0.00  0.00    +0.000 A 
ATOM     11  C   UNL     1     113.067 127.236 136.391  0.00  0.00    +0.000 C 
ATOM     12  C   UNL     1     110.312 126.417 136.587  0.00  0.00    +0.000 C 
ENDROOT
BRANCH   4  15
ATOM     13  O   UNL     1     114.860 130.953 136.517  0.00  0.00    +0.000 OA
ATOM     14  O   UNL     1     115.622 130.884 135.056  0.00  0.00    +0.000 OA
ATOM     15  C   UNL     1     113.954 129.160 135.664  0.00  0.00    +0.000 A 
ATOM     16  C   UNL     1     114.129 129.769 136.192  0.00  0.00    +0.000 A 
ATOM     17  C   UNL     1     114.335 129.125 134.933  0.00  0.00    +0.000 A 
ATOM     18  C   UNL     1     114.685 130.344 135.990  0.00  0.00    +0.000 A 
ATOM     19  C   UNL     1     114.891 129.700 134.730  0.00  0.00    +0.000 A 
ATOM     20  C   UNL     1     115.066 130.309 135.259  0.00  0.00    +0.000 A 
ENDBRANCH   4  15
BRANCH  10  21
ATOM     21  O   UNL     1     111.920 126.108 136.787  0.00  0.00    +0.000 OA
ATOM     22  C   UNL     1     112.145 125.502 136.275  0.00  0.00    +0.000 C 
ENDBRANCH  10  21
BRANCH   3  23
ATOM     23  O   UNL     1     109.820 127.871 135.982  0.00  0.00    +0.000 OA
BRANCH  23  32
ATOM     24  O   UNL     1     109.631 128.796 137.054  0.00  0.00    +0.000 OA
ATOM     25  O   UNL     1     108.249 130.224 135.578  0.00  0.00    +0.000 OA
ATOM     26  O   UNL     1     108.521 130.673 137.142  0.00  0.00    +0.000 OA
ATOM     27  O   UNL     1     108.899 128.823 134.998  0.00  0.00    +0.000 OA
ATOM     28  C   UNL     1     108.710 129.748 136.070  0.00  0.00    +0.000 C 
ATOM     29  C   UNL     1     108.846 129.972 136.852  0.00  0.00    +0.000 C 
ATOM     30  C   UNL     1     109.035 129.047 135.780  0.00  0.00    +0.000 C 
ATOM     31  C   UNL     1     109.307 129.496 137.344  0.00  0.00    +0.000 C 
ATOM     32  C   UNL     1     109.496 128.571 136.272  0.00  0.00    +0.000 C 
BRANCH  31  34
ATOM     33  O   UNL     1     109.300 129.188 138.740  0.00  0.00    +0.000 OA
ATOM     34  C   UNL     1     109.442 129.721 138.126  0.00  0.00    +0.000 C 
ENDBRANCH  31  34
ENDBRANCH  23  32
ENDBRANCH   3  23
TORSDOF 5
ENDMDL
MODEL 10
REMARK VINA RESULT:      -8.8      9.052     11.737
REMARK  Name = 42608064
REMARK  5 active torsions:
REMARK  status: ('A' for Active; 'I' for Inactive)
REMARK    1  A    between atoms: O_2  and  C_16
REMARK    2  A    between atoms: O_2  and  C_18
REMARK    3  A    between atoms: O_8  and  C_25
REMARK    4  A    between atoms: C_15  and  C_17
REMARK    5  A    between atoms: C_19  and  C_27
REMARK                            x       y       z     vdW  Elec       q    Type
REMARK                         _______ _______ _______ _____ _____    ______ ____
ROOT
ATOM      1  O   UNL     1     112.241 126.643 136.449  0.00  0.00    +0.000 OA
ATOM      2  O   UNL     1     110.491 125.010 135.621  0.00  0.00    +0.000 OA
ATOM      3  C   UNL     1     110.589 128.001 135.885  0.00  0.00    +0.000 A 
ATOM      4  C   UNL     1     112.413 125.801 136.455  0.00  0.00    +0.000 C 
ATOM      5  C   UNL     1     110.021 127.466 135.616  0.00  0.00    +0.000 A 
ATOM      6  C   UNL     1     110.910 126.382 135.893  0.00  0.00    +0.000 A 
ATOM      7  C   UNL     1     111.478 126.916 136.162  0.00  0.00    +0.000 A 
ATOM      8  C   UNL     1     111.822 125.244 136.174  0.00  0.00    +0.000 C 
ATOM      9  C   UNL     1     111.318 127.726 136.158  0.00  0.00    +0.000 A 
ATOM     10  C   UNL     1     110.182 126.657 135.620  0.00  0.00    +0.000 A 
ATOM     11  C   UNL     1     111.065 125.537 135.891  0.00  0.00    +0.000 C 
ATOM     12  C   UNL     1     109.292 127.741 135.343  0.00  0.00    +0.000 C 
ENDROOT
BRANCH   4  15
ATOM     13  O   UNL     1     115.165 125.192 135.977  0.00  0.00    +0.000 OA
ATOM     14  O   UNL     1     115.331 124.713 137.547  0.00  0.00    +0.000 OA
ATOM     15  C   UNL     1     113.143 125.529 136.728  0.00  0.00    +0.000 A 
ATOM     16  C   UNL     1     113.789 125.496 136.216  0.00  0.00    +0.000 A 
ATOM     17  C   UNL     1     113.226 125.290 137.513  0.00  0.00    +0.000 A 
ATOM     18  C   UNL     1     114.518 125.225 136.489  0.00  0.00    +0.000 A 
ATOM     19  C   UNL     1     113.955 125.018 137.786  0.00  0.00    +0.000 A 
ATOM     20  C   UNL     1     114.602 124.985 137.274  0.00  0.00    +0.000 A 
ENDBRANCH   4  15
BRANCH  10  21
ATOM     21  O   UNL     1     109.613 126.123 135.351  0.00  0.00    +0.000 OA
ATOM     22  C   UNL     1     109.698 125.767 134.612  0.00  0.00    +0.000 C 
ENDBRANCH  10  21
BRANCH   3  23
ATOM     23  O   UNL     1     110.428 128.810 135.882  0.00  0.00    +0.000 OA
BRANCH  23  32
ATOM     24  O   UNL     1     110.245 129.033 137.281  0.00  0.00    +0.000 OA
ATOM     25  O   UNL     1     111.639 131.073 137.139  0.00  0.00    +0.000 OA
ATOM     26  O   UNL     1     110.991 130.615 138.585  0.00  0.00    +0.000 OA
ATOM     27  O   UNL     1     111.358 130.170 135.787  0.00  0.00    +0.000 OA
ATOM     28  C   UNL     1     111.174 130.393 137.187  0.00  0.00    +0.000 C 
ATOM     29  C   UNL     1     110.850 130.164 137.910  0.00  0.00    +0.000 C 
ATOM     30  C   UNL     1     111.034 129.941 136.510  0.00  0.00    +0.000 C 
ATOM     31  C   UNL     1     110.385 129.484 137.957  0.00  0.00    +0.000 C 
ATOM     32  C   UNL     1     110.569 129.261 136.557  0.00  0.00    +0.000 C 
BRANCH  31  34
ATOM     33  O   UNL     1     109.265 129.045 138.728  0.00  0.00    +0.000 OA
ATOM     34  C   UNL     1     110.061 129.256 138.680  0.00  0.00    +0.000 C 
ENDBRANCH  31  34
ENDBRANCH  23  32
ENDBRANCH   3  23
TORSDOF 5
ENDMDL
