MODEL 1
REMARK VINA RESULT:     -10.0      0.000      0.000
REMARK  Name = 44257127
REMARK  7 active torsions:
REMARK  status: ('A' for Active; 'I' for Inactive)
REMARK    1  A    between atoms: O_1  and  C_17
REMARK    2  A    between atoms: O_1  and  C_20
REMARK    3  A    between atoms: O_4  and  C_22
REMARK    4  A    between atoms: O_4  and  C_27
REMARK    5  A    between atoms: O_13  and  C_38
REMARK    6  A    between atoms: C_25  and  C_30
REMARK    7  A    between atoms: C_28  and  C_32
REMARK                            x       y       z     vdW  Elec       q    Type
REMARK                         _______ _______ _______ _____ _____    ______ ____
ROOT
ATOM      1  O   UNL     1     113.083 127.411 136.160  0.00  0.00    +0.000 OA
ATOM      2  O   UNL     1     112.703 130.249 136.545  0.00  0.00    +0.000 OA
ATOM      3  O   UNL     1     115.016 129.284 135.046  0.00  0.00    +0.000 OA
ATOM      4  C   UNL     1     111.954 127.888 136.892  0.00  0.00    +0.000 C 
ATOM      5  C   UNL     1     112.393 127.261 136.585  0.00  0.00    +0.000 C 
ATOM      6  C   UNL     1     112.205 128.665 136.775  0.00  0.00    +0.000 C 
ATOM      7  C   UNL     1     112.896 128.814 136.350  0.00  0.00    +0.000 A 
ATOM      8  C   UNL     1     113.336 128.187 136.042  0.00  0.00    +0.000 A 
ATOM      9  C   UNL     1     113.148 129.627 136.234  0.00  0.00    +0.000 A 
ATOM     10  C   UNL     1     114.057 128.330 135.598  0.00  0.00    +0.000 A 
ATOM     11  C   UNL     1     113.867 129.790 135.792  0.00  0.00    +0.000 A 
ATOM     12  C   UNL     1     114.324 129.137 135.472  0.00  0.00    +0.000 A 
ENDROOT
BRANCH   5  15
ATOM     13  O   UNL     1     110.972 124.956 135.671  0.00  0.00    +0.000 OA
ATOM     14  O   UNL     1     111.382 124.154 137.054  0.00  0.00    +0.000 OA
ATOM     15  C   UNL     1     112.140 126.484 136.703  0.00  0.00    +0.000 A 
ATOM     16  C   UNL     1     111.682 126.108 136.129  0.00  0.00    +0.000 A 
ATOM     17  C   UNL     1     112.345 126.084 137.394  0.00  0.00    +0.000 A 
ATOM     18  C   UNL     1     111.429 125.332 136.245  0.00  0.00    +0.000 A 
ATOM     19  C   UNL     1     112.093 125.307 137.512  0.00  0.00    +0.000 A 
ATOM     20  C   UNL     1     111.635 124.931 136.938  0.00  0.00    +0.000 A 
ENDBRANCH   5  15
BRANCH  11  21
ATOM     21  O   UNL     1     114.116 130.569 135.676  0.00  0.00    +0.000 OA
ATOM     22  C   UNL     1     114.690 130.895 136.171  0.00  0.00    +0.000 C 
ENDBRANCH  11  21
BRANCH   4  23
ATOM     23  O   UNL     1     111.262 127.738 137.318  0.00  0.00    +0.000 OA
BRANCH  23  30
ATOM     24  O   UNL     1     110.359 128.515 136.528  0.00  0.00    +0.000 OA
ATOM     25  O   UNL     1     109.246 129.314 138.590  0.00  0.00    +0.000 OA
ATOM     26  O   UNL     1     110.520 128.271 138.692  0.00  0.00    +0.000 OA
ATOM     27  C   UNL     1     109.351 129.303 137.165  0.00  0.00    +0.000 C 
ATOM     28  C   UNL     1     109.617 129.048 137.903  0.00  0.00    +0.000 C 
ATOM     29  C   UNL     1     110.254 128.526 137.954  0.00  0.00    +0.000 C 
ATOM     30  C   UNL     1     110.625 128.260 137.267  0.00  0.00    +0.000 C 
ATOM     31  C   UNL     1     109.722 129.037 136.477  0.00  0.00    +0.000 C 
BRANCH  27  32
ATOM     32  O   UNL     1     108.714 129.825 137.114  0.00  0.00    +0.000 OA
BRANCH  32  37
ATOM     33  O   UNL     1     109.392 131.048 136.818  0.00  0.00    +0.000 OA
ATOM     34  O   UNL     1     107.624 130.140 135.915  0.00  0.00    +0.000 OA
ATOM     35  O   UNL     1     107.758 131.520 135.021  0.00  0.00    +0.000 OA
ATOM     36  O   UNL     1     108.981 132.584 135.324  0.00  0.00    +0.000 OA
ATOM     37  C   UNL     1     108.781 130.515 136.667  0.00  0.00    +0.000 C 
ATOM     38  C   UNL     1     108.236 130.672 136.068  0.00  0.00    +0.000 C 
ATOM     39  C   UNL     1     108.303 131.362 135.620  0.00  0.00    +0.000 C 
ATOM     40  C   UNL     1     108.914 131.894 135.772  0.00  0.00    +0.000 C 
ATOM     41  C   UNL     1     109.459 131.737 136.371  0.00  0.00    +0.000 C 
BRANCH  41  43
ATOM     42  O   UNL     1     110.272 132.456 137.301  0.00  0.00    +0.000 OA
ATOM     43  C   UNL     1     110.070 132.269 136.523  0.00  0.00    +0.000 C 
ENDBRANCH  41  43
ENDBRANCH  32  37
ENDBRANCH  27  32
ENDBRANCH  23  30
ENDBRANCH   4  23
TORSDOF 7
ENDMDL
MODEL 2
REMARK VINA RESULT:      -9.8      1.412      4.870
REMARK  Name = 44257127
REMARK  7 active torsions:
REMARK  status: ('A' for Active; 'I' for Inactive)
REMARK    1  A    between atoms: O_1  and  C_17
REMARK    2  A    between atoms: O_1  and  C_20
REMARK    3  A    between atoms: O_4  and  C_22
REMARK    4  A    between atoms: O_4  and  C_27
REMARK    5  A    between atoms: O_13  and  C_38
REMARK    6  A    between atoms: C_25  and  C_30
REMARK    7  A    between atoms: C_28  and  C_32
REMARK                            x       y       z     vdW  Elec       q    Type
REMARK                         _______ _______ _______ _____ _____    ______ ____
ROOT
ATOM      1  O   UNL     1     112.395 131.219 136.902  0.00  0.00    +0.000 OA
ATOM      2  O   UNL     1     112.771 128.629 135.678  0.00  0.00    +0.000 OA
ATOM      3  O   UNL     1     115.078 130.350 136.173  0.00  0.00    +0.000 OA
ATOM      4  C   UNL     1     111.270 130.373 136.657  0.00  0.00    +0.000 C 
ATOM      5  C   UNL     1     111.583 131.082 136.941  0.00  0.00    +0.000 C 
ATOM      6  C   UNL     1     111.769 129.801 136.335  0.00  0.00    +0.000 C 
ATOM      7  C   UNL     1     112.583 129.938 136.296  0.00  0.00    +0.000 A 
ATOM      8  C   UNL     1     112.895 130.647 136.580  0.00  0.00    +0.000 A 
ATOM      9  C   UNL     1     113.092 129.335 135.959  0.00  0.00    +0.000 A 
ATOM     10  C   UNL     1     113.739 130.802 136.545  0.00  0.00    +0.000 A 
ATOM     11  C   UNL     1     113.940 129.472 135.915  0.00  0.00    +0.000 A 
ATOM     12  C   UNL     1     114.266 130.210 136.210  0.00  0.00    +0.000 A 
ENDROOT
BRANCH   5  15
ATOM     13  O   UNL     1     110.320 132.267 139.214  0.00  0.00    +0.000 OA
ATOM     14  O   UNL     1     109.582 133.367 138.231  0.00  0.00    +0.000 OA
ATOM     15  C   UNL     1     111.082 131.654 137.263  0.00  0.00    +0.000 A 
ATOM     16  C   UNL     1     110.951 131.675 138.077  0.00  0.00    +0.000 A 
ATOM     17  C   UNL     1     110.714 132.204 136.772  0.00  0.00    +0.000 A 
ATOM     18  C   UNL     1     110.451 132.246 138.400  0.00  0.00    +0.000 A 
ATOM     19  C   UNL     1     110.213 132.775 137.094  0.00  0.00    +0.000 A 
ATOM     20  C   UNL     1     110.082 132.796 137.908  0.00  0.00    +0.000 A 
ENDBRANCH   5  15
BRANCH  11  21
ATOM     21  O   UNL     1     114.437 128.897 135.593  0.00  0.00    +0.000 OA
ATOM     22  C   UNL     1     114.748 129.000 134.835  0.00  0.00    +0.000 C 
ENDBRANCH  11  21
BRANCH   4  23
ATOM     23  O   UNL     1     110.457 130.236 136.696  0.00  0.00    +0.000 OA
BRANCH  23  30
ATOM     24  O   UNL     1     110.489 129.088 137.547  0.00  0.00    +0.000 OA
ATOM     25  O   UNL     1     108.696 128.041 136.198  0.00  0.00    +0.000 OA
ATOM     26  O   UNL     1     109.262 129.538 135.797  0.00  0.00    +0.000 OA
ATOM     27  C   UNL     1     109.608 127.990 137.297  0.00  0.00    +0.000 C 
ATOM     28  C   UNL     1     109.294 128.390 136.648  0.00  0.00    +0.000 C 
ATOM     29  C   UNL     1     109.577 129.139 136.447  0.00  0.00    +0.000 C 
ATOM     30  C   UNL     1     110.174 129.487 136.897  0.00  0.00    +0.000 C 
ATOM     31  C   UNL     1     110.206 128.340 137.747  0.00  0.00    +0.000 C 
BRANCH  27  32
ATOM     32  O   UNL     1     109.325 127.242 137.497  0.00  0.00    +0.000 OA
BRANCH  32  37
ATOM     33  O   UNL     1     110.427 126.402 137.150  0.00  0.00    +0.000 OA
ATOM     34  O   UNL     1     109.235 126.513 138.975  0.00  0.00    +0.000 OA
ATOM     35  O   UNL     1     110.293 125.308 139.366  0.00  0.00    +0.000 OA
ATOM     36  O   UNL     1     111.440 124.833 138.280  0.00  0.00    +0.000 OA
ATOM     37  C   UNL     1     109.853 126.640 137.692  0.00  0.00    +0.000 C 
ATOM     38  C   UNL     1     109.809 126.275 138.431  0.00  0.00    +0.000 C 
ATOM     39  C   UNL     1     110.338 125.673 138.627  0.00  0.00    +0.000 C 
ATOM     40  C   UNL     1     110.911 125.436 138.084  0.00  0.00    +0.000 C 
ATOM     41  C   UNL     1     110.956 125.800 137.345  0.00  0.00    +0.000 C 
BRANCH  41  43
ATOM     42  O   UNL     1     111.332 125.470 136.006  0.00  0.00    +0.000 OA
ATOM     43  C   UNL     1     111.529 125.562 136.802  0.00  0.00    +0.000 C 
ENDBRANCH  41  43
ENDBRANCH  32  37
ENDBRANCH  27  32
ENDBRANCH  23  30
ENDBRANCH   4  23
TORSDOF 7
ENDMDL
MODEL 3
REMARK VINA RESULT:      -9.8      1.256      3.651
REMARK  Name = 44257127
REMARK  7 active torsions:
REMARK  status: ('A' for Active; 'I' for Inactive)
REMARK    1  A    between atoms: O_1  and  C_17
REMARK    2  A    between atoms: O_1  and  C_20
REMARK    3  A    between atoms: O_4  and  C_22
REMARK    4  A    between atoms: O_4  and  C_27
REMARK    5  A    between atoms: O_13  and  C_38
REMARK    6  A    between atoms: C_25  and  C_30
REMARK    7  A    between atoms: C_28  and  C_32
REMARK                            x       y       z     vdW  Elec       q    Type
REMARK                         _______ _______ _______ _____ _____    ______ ____
ROOT
ATOM      1  O   UNL     1     113.869 127.560 136.448  0.00  0.00    +0.000 OA
ATOM      2  O   UNL     1     111.286 126.342 136.888  0.00  0.00    +0.000 OA
ATOM      3  O   UNL     1     113.705 124.986 137.804  0.00  0.00    +0.000 OA
ATOM      4  C   UNL     1     112.683 128.218 136.002  0.00  0.00    +0.000 C 
ATOM      5  C   UNL     1     113.504 128.200 136.078  0.00  0.00    +0.000 C 
ATOM      6  C   UNL     1     112.226 127.597 136.296  0.00  0.00    +0.000 C 
ATOM      7  C   UNL     1     112.592 126.956 136.666  0.00  0.00    +0.000 A 
ATOM      8  C   UNL     1     113.414 126.937 136.742  0.00  0.00    +0.000 A 
ATOM      9  C   UNL     1     112.107 126.315 136.968  0.00  0.00    +0.000 A 
ATOM     10  C   UNL     1     113.806 126.277 137.126  0.00  0.00    +0.000 A 
ATOM     11  C   UNL     1     112.482 125.645 137.355  0.00  0.00    +0.000 A 
ATOM     12  C   UNL     1     113.337 125.625 137.434  0.00  0.00    +0.000 A 
ENDROOT
BRANCH   5  15
ATOM     13  O   UNL     1     114.924 130.643 136.504  0.00  0.00    +0.000 OA
ATOM     14  O   UNL     1     115.325 130.689 134.904  0.00  0.00    +0.000 OA
ATOM     15  C   UNL     1     113.959 128.822 135.784  0.00  0.00    +0.000 A 
ATOM     16  C   UNL     1     114.214 129.421 136.291  0.00  0.00    +0.000 A 
ATOM     17  C   UNL     1     114.160 128.845 134.985  0.00  0.00    +0.000 A 
ATOM     18  C   UNL     1     114.669 130.044 135.998  0.00  0.00    +0.000 A 
ATOM     19  C   UNL     1     114.615 129.467 134.691  0.00  0.00    +0.000 A 
ATOM     20  C   UNL     1     114.870 130.066 135.197  0.00  0.00    +0.000 A 
ENDBRANCH   5  15
BRANCH  11  21
ATOM     21  O   UNL     1     112.023 125.025 137.648  0.00  0.00    +0.000 OA
ATOM     22  C   UNL     1     111.865 124.369 137.172  0.00  0.00    +0.000 C 
ENDBRANCH  11  21
BRANCH   4  23
ATOM     23  O   UNL     1     112.317 128.859 135.632  0.00  0.00    +0.000 OA
BRANCH  23  30
ATOM     24  O   UNL     1     111.515 129.373 136.697  0.00  0.00    +0.000 OA
ATOM     25  O   UNL     1     109.570 129.498 135.170  0.00  0.00    +0.000 OA
ATOM     26  O   UNL     1     111.021 128.942 134.614  0.00  0.00    +0.000 OA
ATOM     27  C   UNL     1     110.141 129.693 136.465  0.00  0.00    +0.000 C 
ATOM     28  C   UNL     1     110.218 129.456 135.679  0.00  0.00    +0.000 C 
ATOM     29  C   UNL     1     110.944 129.178 135.401  0.00  0.00    +0.000 C 
ATOM     30  C   UNL     1     111.591 129.137 135.910  0.00  0.00    +0.000 C 
ATOM     31  C   UNL     1     110.789 129.651 136.974  0.00  0.00    +0.000 C 
BRANCH  27  32
ATOM     32  O   UNL     1     109.415 129.971 136.743  0.00  0.00    +0.000 OA
BRANCH  32  37
ATOM     33  O   UNL     1     109.741 131.359 136.834  0.00  0.00    +0.000 OA
ATOM     34  O   UNL     1     108.607 130.067 138.178  0.00  0.00    +0.000 OA
ATOM     35  O   UNL     1     108.528 131.503 138.987  0.00  0.00    +0.000 OA
ATOM     36  O   UNL     1     109.259 132.842 138.361  0.00  0.00    +0.000 OA
ATOM     37  C   UNL     1     109.376 130.688 137.147  0.00  0.00    +0.000 C 
ATOM     38  C   UNL     1     108.972 130.736 137.865  0.00  0.00    +0.000 C 
ATOM     39  C   UNL     1     108.933 131.455 138.270  0.00  0.00    +0.000 C 
ATOM     40  C   UNL     1     109.298 132.125 137.956  0.00  0.00    +0.000 C 
ATOM     41  C   UNL     1     109.702 132.077 137.238  0.00  0.00    +0.000 C 
BRANCH  41  43
ATOM     42  O   UNL     1     109.980 132.930 136.126  0.00  0.00    +0.000 OA
ATOM     43  C   UNL     1     110.067 132.747 136.926  0.00  0.00    +0.000 C 
ENDBRANCH  41  43
ENDBRANCH  32  37
ENDBRANCH  27  32
ENDBRANCH  23  30
ENDBRANCH   4  23
TORSDOF 7
ENDMDL
MODEL 4
REMARK VINA RESULT:      -9.7      2.861      4.448
REMARK  Name = 44257127
REMARK  7 active torsions:
REMARK  status: ('A' for Active; 'I' for Inactive)
REMARK    1  A    between atoms: O_1  and  C_17
REMARK    2  A    between atoms: O_1  and  C_20
REMARK    3  A    between atoms: O_4  and  C_22
REMARK    4  A    between atoms: O_4  and  C_27
REMARK    5  A    between atoms: O_13  and  C_38
REMARK    6  A    between atoms: C_25  and  C_30
REMARK    7  A    between atoms: C_28  and  C_32
REMARK                            x       y       z     vdW  Elec       q    Type
REMARK                         _______ _______ _______ _____ _____    ______ ____
ROOT
ATOM      1  O   UNL     1     112.360 126.954 136.355  0.00  0.00    +0.000 OA
ATOM      2  O   UNL     1     113.524 129.283 137.608  0.00  0.00    +0.000 OA
ATOM      3  O   UNL     1     112.282 129.518 134.976  0.00  0.00    +0.000 OA
ATOM      4  C   UNL     1     112.969 126.844 137.642  0.00  0.00    +0.000 C 
ATOM      5  C   UNL     1     112.574 126.496 137.007  0.00  0.00    +0.000 C 
ATOM      6  C   UNL     1     113.150 127.649 137.626  0.00  0.00    +0.000 C 
ATOM      7  C   UNL     1     112.935 128.106 136.973  0.00  0.00    +0.000 A 
ATOM      8  C   UNL     1     112.541 127.759 136.338  0.00  0.00    +0.000 A 
ATOM      9  C   UNL     1     113.129 128.943 136.968  0.00  0.00    +0.000 A 
ATOM     10  C   UNL     1     112.312 128.224 135.653  0.00  0.00    +0.000 A 
ATOM     11  C   UNL     1     112.908 129.425 136.291  0.00  0.00    +0.000 A 
ATOM     12  C   UNL     1     112.497 129.063 135.629  0.00  0.00    +0.000 A 
ENDROOT
BRANCH   5  15
ATOM     13  O   UNL     1     113.318 123.784 136.503  0.00  0.00    +0.000 OA
ATOM     14  O   UNL     1     111.856 123.276 137.075  0.00  0.00    +0.000 OA
ATOM     15  C   UNL     1     112.394 125.691 137.024  0.00  0.00    +0.000 A 
ATOM     16  C   UNL     1     112.946 125.140 136.755  0.00  0.00    +0.000 A 
ATOM     17  C   UNL     1     111.664 125.438 137.310  0.00  0.00    +0.000 A 
ATOM     18  C   UNL     1     112.767 124.335 136.772  0.00  0.00    +0.000 A 
ATOM     19  C   UNL     1     111.484 124.633 137.327  0.00  0.00    +0.000 A 
ATOM     20  C   UNL     1     112.035 124.081 137.058  0.00  0.00    +0.000 A 
ENDBRANCH   5  15
BRANCH  11  21
ATOM     21  O   UNL     1     113.090 130.230 136.278  0.00  0.00    +0.000 OA
ATOM     22  C   UNL     1     112.554 130.779 136.581  0.00  0.00    +0.000 C 
ENDBRANCH  11  21
BRANCH   4  23
ATOM     23  O   UNL     1     113.184 126.386 138.295  0.00  0.00    +0.000 OA
BRANCH  23  30
ATOM     24  O   UNL     1     112.552 127.159 139.318  0.00  0.00    +0.000 OA
ATOM     25  O   UNL     1     114.539 126.864 140.765  0.00  0.00    +0.000 OA
ATOM     26  O   UNL     1     114.508 126.190 139.260  0.00  0.00    +0.000 OA
ATOM     27  C   UNL     1     113.231 127.398 140.554  0.00  0.00    +0.000 C 
ATOM     28  C   UNL     1     113.877 126.962 140.283  0.00  0.00    +0.000 C 
ATOM     29  C   UNL     1     113.861 126.625 139.530  0.00  0.00    +0.000 C 
ATOM     30  C   UNL     1     113.199 126.723 139.048  0.00  0.00    +0.000 C 
ATOM     31  C   UNL     1     112.568 127.496 140.071  0.00  0.00    +0.000 C 
BRANCH  27  32
ATOM     32  O   UNL     1     113.246 127.735 141.307  0.00  0.00    +0.000 OA
BRANCH  32  37
ATOM     33  O   UNL     1     113.613 129.079 140.991  0.00  0.00    +0.000 OA
ATOM     34  O   UNL     1     112.054 128.293 142.301  0.00  0.00    +0.000 OA
ATOM     35  O   UNL     1     111.824 129.917 142.483  0.00  0.00    +0.000 OA
ATOM     36  O   UNL     1     112.787 130.981 141.670  0.00  0.00    +0.000 OA
ATOM     37  C   UNL     1     113.132 128.546 141.397  0.00  0.00    +0.000 C 
ATOM     38  C   UNL     1     112.536 128.825 141.895  0.00  0.00    +0.000 C 
ATOM     39  C   UNL     1     112.421 129.638 141.986  0.00  0.00    +0.000 C 
ATOM     40  C   UNL     1     112.902 130.170 141.579  0.00  0.00    +0.000 C 
ATOM     41  C   UNL     1     113.498 129.891 141.082  0.00  0.00    +0.000 C 
BRANCH  41  43
ATOM     42  O   UNL     1     114.791 130.288 140.622  0.00  0.00    +0.000 OA
ATOM     43  C   UNL     1     113.979 130.423 140.676  0.00  0.00    +0.000 C 
ENDBRANCH  41  43
ENDBRANCH  32  37
ENDBRANCH  27  32
ENDBRANCH  23  30
ENDBRANCH   4  23
TORSDOF 7
ENDMDL
MODEL 5
REMARK VINA RESULT:      -9.7      1.986      3.051
REMARK  Name = 44257127
REMARK  7 active torsions:
REMARK  status: ('A' for Active; 'I' for Inactive)
REMARK    1  A    between atoms: O_1  and  C_17
REMARK    2  A    between atoms: O_1  and  C_20
REMARK    3  A    between atoms: O_4  and  C_22
REMARK    4  A    between atoms: O_4  and  C_27
REMARK    5  A    between atoms: O_13  and  C_38
REMARK    6  A    between atoms: C_25  and  C_30
REMARK    7  A    between atoms: C_28  and  C_32
REMARK                            x       y       z     vdW  Elec       q    Type
REMARK                         _______ _______ _______ _____ _____    ______ ____
ROOT
ATOM      1  O   UNL     1     113.069 126.417 138.910  0.00  0.00    +0.000 OA
ATOM      2  O   UNL     1     113.086 129.306 138.856  0.00  0.00    +0.000 OA
ATOM      3  O   UNL     1     113.044 127.902 141.416  0.00  0.00    +0.000 OA
ATOM      4  C   UNL     1     113.089 127.109 137.661  0.00  0.00    +0.000 C 
ATOM      5  C   UNL     1     113.080 126.402 138.086  0.00  0.00    +0.000 C 
ATOM      6  C   UNL     1     113.088 127.831 138.060  0.00  0.00    +0.000 C 
ATOM      7  C   UNL     1     113.077 127.846 138.885  0.00  0.00    +0.000 A 
ATOM      8  C   UNL     1     113.068 127.139 139.311  0.00  0.00    +0.000 A 
ATOM      9  C   UNL     1     113.076 128.604 139.289  0.00  0.00    +0.000 A 
ATOM     10  C   UNL     1     113.056 127.141 140.169  0.00  0.00    +0.000 A 
ATOM     11  C   UNL     1     113.065 128.626 140.149  0.00  0.00    +0.000 A 
ATOM     12  C   UNL     1     113.055 127.890 140.592  0.00  0.00    +0.000 A 
ENDROOT
BRANCH   5  15
ATOM     13  O   UNL     1     111.665 124.148 137.046  0.00  0.00    +0.000 OA
ATOM     14  O   UNL     1     113.082 123.516 136.486  0.00  0.00    +0.000 OA
ATOM     15  C   UNL     1     113.081 125.680 137.686  0.00  0.00    +0.000 A 
ATOM     16  C   UNL     1     112.373 125.275 137.566  0.00  0.00    +0.000 A 
ATOM     17  C   UNL     1     113.789 125.365 137.406  0.00  0.00    +0.000 A 
ATOM     18  C   UNL     1     112.373 124.553 137.166  0.00  0.00    +0.000 A 
ATOM     19  C   UNL     1     113.791 124.643 137.006  0.00  0.00    +0.000 A 
ATOM     20  C   UNL     1     113.082 124.237 136.886  0.00  0.00    +0.000 A 
ENDBRANCH   5  15
BRANCH  11  21
ATOM     21  O   UNL     1     113.064 129.350 140.545  0.00  0.00    +0.000 OA
ATOM     22  C   UNL     1     113.764 129.646 140.865  0.00  0.00    +0.000 C 
ENDBRANCH  11  21
BRANCH   4  23
ATOM     23  O   UNL     1     113.100 127.094 136.835  0.00  0.00    +0.000 OA
BRANCH  23  30
ATOM     24  O   UNL     1     111.873 127.761 136.535  0.00  0.00    +0.000 OA
ATOM     25  O   UNL     1     113.045 129.165 134.866  0.00  0.00    +0.000 OA
ATOM     26  O   UNL     1     113.882 128.029 135.723  0.00  0.00    +0.000 OA
ATOM     27  C   UNL     1     111.846 128.797 135.550  0.00  0.00    +0.000 C 
ATOM     28  C   UNL     1     112.654 128.697 135.423  0.00  0.00    +0.000 C 
ATOM     29  C   UNL     1     113.073 128.129 135.851  0.00  0.00    +0.000 C 
ATOM     30  C   UNL     1     112.682 127.662 136.407  0.00  0.00    +0.000 C 
ATOM     31  C   UNL     1     111.455 128.329 136.107  0.00  0.00    +0.000 C 
BRANCH  27  32
ATOM     32  O   UNL     1     111.428 129.365 135.122  0.00  0.00    +0.000 OA
BRANCH  32  37
ATOM     33  O   UNL     1     111.145 130.323 136.143  0.00  0.00    +0.000 OA
ATOM     34  O   UNL     1     109.857 129.436 134.620  0.00  0.00    +0.000 OA
ATOM     35  O   UNL     1     108.789 130.429 135.391  0.00  0.00    +0.000 OA
ATOM     36  O   UNL     1     109.292 131.352 136.663  0.00  0.00    +0.000 OA
ATOM     37  C   UNL     1     110.894 129.861 135.507  0.00  0.00    +0.000 C 
ATOM     38  C   UNL     1     110.109 129.897 135.256  0.00  0.00    +0.000 C 
ATOM     39  C   UNL     1     109.574 130.394 135.642  0.00  0.00    +0.000 C 
ATOM     40  C   UNL     1     109.826 130.855 136.278  0.00  0.00    +0.000 C 
ATOM     41  C   UNL     1     110.611 130.820 136.528  0.00  0.00    +0.000 C 
BRANCH  41  43
ATOM     42  O   UNL     1     111.581 131.683 137.125  0.00  0.00    +0.000 OA
ATOM     43  C   UNL     1     110.862 131.281 137.164  0.00  0.00    +0.000 C 
ENDBRANCH  41  43
ENDBRANCH  32  37
ENDBRANCH  27  32
ENDBRANCH  23  30
ENDBRANCH   4  23
TORSDOF 7
ENDMDL
MODEL 6
REMARK VINA RESULT:      -9.7      1.742      3.384
REMARK  Name = 44257127
REMARK  7 active torsions:
REMARK  status: ('A' for Active; 'I' for Inactive)
REMARK    1  A    between atoms: O_1  and  C_17
REMARK    2  A    between atoms: O_1  and  C_20
REMARK    3  A    between atoms: O_4  and  C_22
REMARK    4  A    between atoms: O_4  and  C_27
REMARK    5  A    between atoms: O_13  and  C_38
REMARK    6  A    between atoms: C_25  and  C_30
REMARK    7  A    between atoms: C_28  and  C_32
REMARK                            x       y       z     vdW  Elec       q    Type
REMARK                         _______ _______ _______ _____ _____    ______ ____
ROOT
ATOM      1  O   UNL     1     112.169 125.998 138.000  0.00  0.00    +0.000 OA
ATOM      2  O   UNL     1     111.318 127.305 135.568  0.00  0.00    +0.000 OA
ATOM      3  O   UNL     1     111.109 124.402 135.805  0.00  0.00    +0.000 OA
ATOM      4  C   UNL     1     112.269 127.418 137.879  0.00  0.00    +0.000 C 
ATOM      5  C   UNL     1     112.376 126.729 138.320  0.00  0.00    +0.000 C 
ATOM      6  C   UNL     1     111.955 127.375 137.117  0.00  0.00    +0.000 C 
ATOM      7  C   UNL     1     111.748 126.643 136.797  0.00  0.00    +0.000 A 
ATOM      8  C   UNL     1     111.854 125.954 137.238  0.00  0.00    +0.000 A 
ATOM      9  C   UNL     1     111.422 126.612 136.003  0.00  0.00    +0.000 A 
ATOM     10  C   UNL     1     111.643 125.187 136.916  0.00  0.00    +0.000 A 
ATOM     11  C   UNL     1     111.204 125.852 135.663  0.00  0.00    +0.000 A 
ATOM     12  C   UNL     1     111.315 125.135 136.123  0.00  0.00    +0.000 A 
ENDROOT
BRANCH   5  15
ATOM     13  O   UNL     1     111.998 126.787 141.152  0.00  0.00    +0.000 OA
ATOM     14  O   UNL     1     113.630 126.903 141.368  0.00  0.00    +0.000 OA
ATOM     15  C   UNL     1     112.690 126.773 139.082  0.00  0.00    +0.000 A 
ATOM     16  C   UNL     1     112.188 126.758 139.736  0.00  0.00    +0.000 A 
ATOM     17  C   UNL     1     113.505 126.831 139.190  0.00  0.00    +0.000 A 
ATOM     18  C   UNL     1     112.500 126.801 140.498  0.00  0.00    +0.000 A 
ATOM     19  C   UNL     1     113.819 126.875 139.951  0.00  0.00    +0.000 A 
ATOM     20  C   UNL     1     113.317 126.860 140.606  0.00  0.00    +0.000 A 
ENDBRANCH   5  15
BRANCH  11  21
ATOM     21  O   UNL     1     110.890 125.813 134.901  0.00  0.00    +0.000 OA
ATOM     22  C   UNL     1     110.074 125.747 134.794  0.00  0.00    +0.000 C 
ENDBRANCH  11  21
BRANCH   4  23
ATOM     23  O   UNL     1     112.476 128.150 138.199  0.00  0.00    +0.000 OA
BRANCH  23  30
ATOM     24  O   UNL     1     111.210 128.810 138.146  0.00  0.00    +0.000 OA
ATOM     25  O   UNL     1     112.308 130.843 137.256  0.00  0.00    +0.000 OA
ATOM     26  O   UNL     1     113.208 129.505 137.605  0.00  0.00    +0.000 OA
ATOM     27  C   UNL     1     111.126 130.157 137.675  0.00  0.00    +0.000 C 
ATOM     28  C   UNL     1     111.942 130.165 137.553  0.00  0.00    +0.000 C 
ATOM     29  C   UNL     1     112.392 129.496 137.728  0.00  0.00    +0.000 C 
ATOM     30  C   UNL     1     112.026 128.819 138.024  0.00  0.00    +0.000 C 
ATOM     31  C   UNL     1     110.760 129.479 137.972  0.00  0.00    +0.000 C 
BRANCH  27  32
ATOM     32  O   UNL     1     110.676 130.826 137.500  0.00  0.00    +0.000 OA
BRANCH  32  37
ATOM     33  O   UNL     1     109.995 130.339 136.342  0.00  0.00    +0.000 OA
ATOM     34  O   UNL     1     109.274 131.511 138.037  0.00  0.00    +0.000 OA
ATOM     35  O   UNL     1     107.892 131.366 137.147  0.00  0.00    +0.000 OA
ATOM     36  O   UNL     1     107.912 130.537 135.722  0.00  0.00    +0.000 OA
ATOM     37  C   UNL     1     109.986 130.754 137.056  0.00  0.00    +0.000 C 
ATOM     38  C   UNL     1     109.285 131.096 137.324  0.00  0.00    +0.000 C 
ATOM     39  C   UNL     1     108.593 131.024 136.879  0.00  0.00    +0.000 C 
ATOM     40  C   UNL     1     108.603 130.609 136.166  0.00  0.00    +0.000 C 
ATOM     41  C   UNL     1     109.304 130.266 135.898  0.00  0.00    +0.000 C 
BRANCH  41  43
ATOM     42  O   UNL     1     109.881 130.028 134.612  0.00  0.00    +0.000 OA
ATOM     43  C   UNL     1     109.314 129.852 135.185  0.00  0.00    +0.000 C 
ENDBRANCH  41  43
ENDBRANCH  32  37
ENDBRANCH  27  32
ENDBRANCH  23  30
ENDBRANCH   4  23
TORSDOF 7
ENDMDL
MODEL 7
REMARK VINA RESULT:      -9.6      7.092      9.078
REMARK  Name = 44257127
REMARK  7 active torsions:
REMARK  status: ('A' for Active; 'I' for Inactive)
REMARK    1  A    between atoms: O_1  and  C_17
REMARK    2  A    between atoms: O_1  and  C_20
REMARK    3  A    between atoms: O_4  and  C_22
REMARK    4  A    between atoms: O_4  and  C_27
REMARK    5  A    between atoms: O_13  and  C_38
REMARK    6  A    between atoms: C_25  and  C_30
REMARK    7  A    between atoms: C_28  and  C_32
REMARK                            x       y       z     vdW  Elec       q    Type
REMARK                         _______ _______ _______ _____ _____    ______ ____
ROOT
ATOM      1  O   UNL     1     107.620 125.047 140.333  0.00  0.00    +0.000 OA
ATOM      2  O   UNL     1     108.744 127.062 142.072  0.00  0.00    +0.000 OA
ATOM      3  O   UNL     1     110.437 125.749 140.088  0.00  0.00    +0.000 OA
ATOM      4  C   UNL     1     106.797 125.692 141.305  0.00  0.00    +0.000 C 
ATOM      5  C   UNL     1     106.886 125.145 140.694  0.00  0.00    +0.000 C 
ATOM      6  C   UNL     1     107.442 126.142 141.555  0.00  0.00    +0.000 C 
ATOM      7  C   UNL     1     108.177 126.043 141.192  0.00  0.00    +0.000 A 
ATOM      8  C   UNL     1     108.267 125.496 140.581  0.00  0.00    +0.000 A 
ATOM      9  C   UNL     1     108.842 126.517 141.461  0.00  0.00    +0.000 A 
ATOM     10  C   UNL     1     109.026 125.385 140.197  0.00  0.00    +0.000 A 
ATOM     11  C   UNL     1     109.610 126.419 141.088  0.00  0.00    +0.000 A 
ATOM     12  C   UNL     1     109.703 125.849 140.452  0.00  0.00    +0.000 A 
ENDROOT
BRANCH   5  15
ATOM     13  O   UNL     1     105.349 122.739 140.822  0.00  0.00    +0.000 OA
ATOM     14  O   UNL     1     104.302 123.348 139.701  0.00  0.00    +0.000 OA
ATOM     15  C   UNL     1     106.240 124.696 140.445  0.00  0.00    +0.000 A 
ATOM     16  C   UNL     1     106.117 123.943 140.758  0.00  0.00    +0.000 A 
ATOM     17  C   UNL     1     105.717 125.000 139.885  0.00  0.00    +0.000 A 
ATOM     18  C   UNL     1     105.472 123.493 140.510  0.00  0.00    +0.000 A 
ATOM     19  C   UNL     1     105.071 124.551 139.637  0.00  0.00    +0.000 A 
ATOM     20  C   UNL     1     104.948 123.798 139.949  0.00  0.00    +0.000 A 
ENDBRANCH   5  15
BRANCH  11  21
ATOM     21  O   UNL     1     110.254 126.870 141.340  0.00  0.00    +0.000 OA
ATOM     22  C   UNL     1     110.476 127.543 140.917  0.00  0.00    +0.000 C 
ENDBRANCH  11  21
BRANCH   4  23
ATOM     23  O   UNL     1     106.061 125.791 141.667  0.00  0.00    +0.000 OA
BRANCH  23  30
ATOM     24  O   UNL     1     106.394 125.495 143.025  0.00  0.00    +0.000 OA
ATOM     25  O   UNL     1     105.139 127.496 143.767  0.00  0.00    +0.000 OA
ATOM     26  O   UNL     1     105.225 127.125 142.161  0.00  0.00    +0.000 OA
ATOM     27  C   UNL     1     105.932 126.348 144.075  0.00  0.00    +0.000 C 
ATOM     28  C   UNL     1     105.557 126.829 143.519  0.00  0.00    +0.000 C 
ATOM     29  C   UNL     1     105.601 126.643 142.717  0.00  0.00    +0.000 C 
ATOM     30  C   UNL     1     106.018 125.976 142.470  0.00  0.00    +0.000 C 
ATOM     31  C   UNL     1     106.350 125.681 143.828  0.00  0.00    +0.000 C 
BRANCH  27  32
ATOM     32  O   UNL     1     105.889 126.534 144.878  0.00  0.00    +0.000 OA
BRANCH  32  37
ATOM     33  O   UNL     1     105.153 125.432 145.411  0.00  0.00    +0.000 OA
ATOM     34  O   UNL     1     107.037 126.334 146.046  0.00  0.00    +0.000 OA
ATOM     35  O   UNL     1     106.875 125.131 147.164  0.00  0.00    +0.000 OA
ATOM     36  O   UNL     1     105.566 124.129 147.113  0.00  0.00    +0.000 OA
ATOM     37  C   UNL     1     105.808 125.933 145.436  0.00  0.00    +0.000 C 
ATOM     38  C   UNL     1     106.382 125.833 146.020  0.00  0.00    +0.000 C 
ATOM     39  C   UNL     1     106.301 125.231 146.580  0.00  0.00    +0.000 C 
ATOM     40  C   UNL     1     105.646 124.730 146.554  0.00  0.00    +0.000 C 
ATOM     41  C   UNL     1     105.072 124.831 145.970  0.00  0.00    +0.000 C 
BRANCH  41  43
ATOM     42  O   UNL     1     103.659 124.644 145.864  0.00  0.00    +0.000 OA
ATOM     43  C   UNL     1     104.418 124.330 145.945  0.00  0.00    +0.000 C 
ENDBRANCH  41  43
ENDBRANCH  32  37
ENDBRANCH  27  32
ENDBRANCH  23  30
ENDBRANCH   4  23
TORSDOF 7
ENDMDL
MODEL 8
REMARK VINA RESULT:      -9.5      2.476      4.491
REMARK  Name = 44257127
REMARK  7 active torsions:
REMARK  status: ('A' for Active; 'I' for Inactive)
REMARK    1  A    between atoms: O_1  and  C_17
REMARK    2  A    between atoms: O_1  and  C_20
REMARK    3  A    between atoms: O_4  and  C_22
REMARK    4  A    between atoms: O_4  and  C_27
REMARK    5  A    between atoms: O_13  and  C_38
REMARK    6  A    between atoms: C_25  and  C_30
REMARK    7  A    between atoms: C_28  and  C_32
REMARK                            x       y       z     vdW  Elec       q    Type
REMARK                         _______ _______ _______ _____ _____    ______ ____
ROOT
ATOM      1  O   UNL     1     111.973 125.742 136.118  0.00  0.00    +0.000 OA
ATOM      2  O   UNL     1     110.558 128.225 135.695  0.00  0.00    +0.000 OA
ATOM      3  O   UNL     1     109.306 125.695 134.948  0.00  0.00    +0.000 OA
ATOM      4  C   UNL     1     112.581 126.982 136.482  0.00  0.00    +0.000 C 
ATOM      5  C   UNL     1     112.612 126.160 136.431  0.00  0.00    +0.000 C 
ATOM      6  C   UNL     1     111.912 127.388 136.221  0.00  0.00    +0.000 C 
ATOM      7  C   UNL     1     111.272 126.969 135.908  0.00  0.00    +0.000 A 
ATOM      8  C   UNL     1     111.303 126.146 135.857  0.00  0.00    +0.000 A 
ATOM      9  C   UNL     1     110.581 127.402 135.640  0.00  0.00    +0.000 A 
ATOM     10  C   UNL     1     110.645 125.699 135.534  0.00  0.00    +0.000 A 
ATOM     11  C   UNL     1     109.911 126.972 135.314  0.00  0.00    +0.000 A 
ATOM     12  C   UNL     1     109.944 126.115 135.260  0.00  0.00    +0.000 A 
ENDROOT
BRANCH   5  15
ATOM     13  O   UNL     1     115.254 125.181 135.952  0.00  0.00    +0.000 OA
ATOM     14  O   UNL     1     115.294 124.543 137.473  0.00  0.00    +0.000 OA
ATOM     15  C   UNL     1     113.282 125.755 136.692  0.00  0.00    +0.000 A 
ATOM     16  C   UNL     1     113.933 125.670 136.192  0.00  0.00    +0.000 A 
ATOM     17  C   UNL     1     113.302 125.437 137.452  0.00  0.00    +0.000 A 
ATOM     18  C   UNL     1     114.603 125.266 136.452  0.00  0.00    +0.000 A 
ATOM     19  C   UNL     1     113.973 125.033 137.713  0.00  0.00    +0.000 A 
ATOM     20  C   UNL     1     114.623 124.947 137.213  0.00  0.00    +0.000 A 
ENDBRANCH   5  15
BRANCH  11  21
ATOM     21  O   UNL     1     109.243 127.380 135.053  0.00  0.00    +0.000 OA
ATOM     22  C   UNL     1     108.636 127.558 135.584  0.00  0.00    +0.000 C 
ENDBRANCH  11  21
BRANCH   4  23
ATOM     23  O   UNL     1     113.220 127.401 136.795  0.00  0.00    +0.000 OA
BRANCH  23  30
ATOM     24  O   UNL     1     112.589 128.075 137.885  0.00  0.00    +0.000 OA
ATOM     25  O   UNL     1     113.698 130.186 137.220  0.00  0.00    +0.000 OA
ATOM     26  O   UNL     1     113.959 128.808 136.351  0.00  0.00    +0.000 OA
ATOM     27  C   UNL     1     112.828 129.469 138.097  0.00  0.00    +0.000 C 
ATOM     28  C   UNL     1     113.328 129.482 137.441  0.00  0.00    +0.000 C 
ATOM     29  C   UNL     1     113.459 128.793 137.007  0.00  0.00    +0.000 C 
ATOM     30  C   UNL     1     113.090 128.090 137.229  0.00  0.00    +0.000 C 
ATOM     31  C   UNL     1     112.459 128.764 138.319  0.00  0.00    +0.000 C 
BRANCH  27  32
ATOM     32  O   UNL     1     112.698 130.158 138.532  0.00  0.00    +0.000 OA
BRANCH  32  37
ATOM     33  O   UNL     1     113.447 129.826 139.702  0.00  0.00    +0.000 OA
ATOM     34  O   UNL     1     111.499 130.783 139.477  0.00  0.00    +0.000 OA
ATOM     35  O   UNL     1     111.649 130.764 141.120  0.00  0.00    +0.000 OA
ATOM     36  O   UNL     1     112.997 130.119 141.817  0.00  0.00    +0.000 OA
ATOM     37  C   UNL     1     112.773 130.148 139.352  0.00  0.00    +0.000 C 
ATOM     38  C   UNL     1     112.173 130.461 139.825  0.00  0.00    +0.000 C 
ATOM     39  C   UNL     1     112.248 130.451 140.647  0.00  0.00    +0.000 C 
ATOM     40  C   UNL     1     112.923 130.129 140.995  0.00  0.00    +0.000 C 
ATOM     41  C   UNL     1     113.522 129.816 140.523  0.00  0.00    +0.000 C 
BRANCH  41  43
ATOM     42  O   UNL     1     114.944 129.689 140.584  0.00  0.00    +0.000 OA
ATOM     43  C   UNL     1     114.196 129.494 140.872  0.00  0.00    +0.000 C 
ENDBRANCH  41  43
ENDBRANCH  32  37
ENDBRANCH  27  32
ENDBRANCH  23  30
ENDBRANCH   4  23
TORSDOF 7
ENDMDL
MODEL 9
REMARK VINA RESULT:      -9.5      2.575      3.979
REMARK  Name = 44257127
REMARK  7 active torsions:
REMARK  status: ('A' for Active; 'I' for Inactive)
REMARK    1  A    between atoms: O_1  and  C_17
REMARK    2  A    between atoms: O_1  and  C_20
REMARK    3  A    between atoms: O_4  and  C_22
REMARK    4  A    between atoms: O_4  and  C_27
REMARK    5  A    between atoms: O_13  and  C_38
REMARK    6  A    between atoms: C_25  and  C_30
REMARK    7  A    between atoms: C_28  and  C_32
REMARK                            x       y       z     vdW  Elec       q    Type
REMARK                         _______ _______ _______ _____ _____    ______ ____
ROOT
ATOM      1  O   UNL     1     111.782 125.553 136.112  0.00  0.00    +0.000 OA
ATOM      2  O   UNL     1     109.532 126.918 137.306  0.00  0.00    +0.000 OA
ATOM      3  O   UNL     1     109.298 125.815 134.612  0.00  0.00    +0.000 OA
ATOM      4  C   UNL     1     111.891 126.094 137.430  0.00  0.00    +0.000 C 
ATOM      5  C   UNL     1     112.225 125.688 136.794  0.00  0.00    +0.000 C 
ATOM      6  C   UNL     1     111.113 126.363 137.384  0.00  0.00    +0.000 C 
ATOM      7  C   UNL     1     110.668 126.227 136.701  0.00  0.00    +0.000 A 
ATOM      8  C   UNL     1     111.003 125.822 136.066  0.00  0.00    +0.000 A 
ATOM      9  C   UNL     1     109.859 126.513 136.666  0.00  0.00    +0.000 A 
ATOM     10  C   UNL     1     110.551 125.674 135.350  0.00  0.00    +0.000 A 
ATOM     11  C   UNL     1     109.391 126.375 135.958  0.00  0.00    +0.000 A 
ATOM     12  C   UNL     1     109.740 125.953 135.296  0.00  0.00    +0.000 A 
ENDROOT
BRANCH   5  15
ATOM     13  O   UNL     1     115.000 126.027 136.200  0.00  0.00    +0.000 OA
ATOM     14  O   UNL     1     115.340 124.613 136.980  0.00  0.00    +0.000 OA
ATOM     15  C   UNL     1     113.004 125.419 136.841  0.00  0.00    +0.000 A 
ATOM     16  C   UNL     1     113.613 125.857 136.497  0.00  0.00    +0.000 A 
ATOM     17  C   UNL     1     113.174 124.712 137.230  0.00  0.00    +0.000 A 
ATOM     18  C   UNL     1     114.391 125.589 136.543  0.00  0.00    +0.000 A 
ATOM     19  C   UNL     1     113.952 124.443 137.277  0.00  0.00    +0.000 A 
ATOM     20  C   UNL     1     114.561 124.881 136.933  0.00  0.00    +0.000 A 
ENDBRANCH   5  15
BRANCH  11  21
ATOM     21  O   UNL     1     108.613 126.646 135.915  0.00  0.00    +0.000 OA
ATOM     22  C   UNL     1     108.461 127.435 135.727  0.00  0.00    +0.000 C 
ENDBRANCH  11  21
BRANCH   4  23
ATOM     23  O   UNL     1     112.335 126.230 138.112  0.00  0.00    +0.000 OA
BRANCH  23  30
ATOM     24  O   UNL     1     112.247 127.655 138.144  0.00  0.00    +0.000 OA
ATOM     25  O   UNL     1     111.910 127.579 140.596  0.00  0.00    +0.000 OA
ATOM     26  O   UNL     1     112.110 126.179 139.746  0.00  0.00    +0.000 OA
ATOM     27  C   UNL     1     112.035 128.330 139.386  0.00  0.00    +0.000 C 
ATOM     28  C   UNL     1     112.022 127.604 139.778  0.00  0.00    +0.000 C 
ATOM     29  C   UNL     1     112.122 126.904 139.353  0.00  0.00    +0.000 C 
ATOM     30  C   UNL     1     112.235 126.930 138.537  0.00  0.00    +0.000 C 
ATOM     31  C   UNL     1     112.147 128.355 138.569  0.00  0.00    +0.000 C 
BRANCH  27  32
ATOM     32  O   UNL     1     111.935 129.030 139.811  0.00  0.00    +0.000 OA
BRANCH  32  37
ATOM     33  O   UNL     1     110.578 129.332 139.479  0.00  0.00    +0.000 OA
ATOM     34  O   UNL     1     112.349 130.606 139.548  0.00  0.00    +0.000 OA
ATOM     35  O   UNL     1     111.199 131.695 139.084  0.00  0.00    +0.000 OA
ATOM     36  O   UNL     1     109.636 131.208 138.884  0.00  0.00    +0.000 OA
ATOM     37  C   UNL     1     111.360 129.574 139.579  0.00  0.00    +0.000 C 
ATOM     38  C   UNL     1     111.567 130.362 139.448  0.00  0.00    +0.000 C 
ATOM     39  C   UNL     1     110.992 130.907 139.215  0.00  0.00    +0.000 C 
ATOM     40  C   UNL     1     110.211 130.663 139.116  0.00  0.00    +0.000 C 
ATOM     41  C   UNL     1     110.003 129.876 139.247  0.00  0.00    +0.000 C 
BRANCH  41  43
ATOM     42  O   UNL     1     108.855 129.173 139.726  0.00  0.00    +0.000 OA
ATOM     43  C   UNL     1     109.222 129.633 139.147  0.00  0.00    +0.000 C 
ENDBRANCH  41  43
ENDBRANCH  32  37
ENDBRANCH  27  32
ENDBRANCH  23  30
ENDBRANCH   4  23
TORSDOF 7
ENDMDL
MODEL 10
REMARK VINA RESULT:      -9.5      2.944      4.161
REMARK  Name = 44257127
REMARK  7 active torsions:
REMARK  status: ('A' for Active; 'I' for Inactive)
REMARK    1  A    between atoms: O_1  and  C_17
REMARK    2  A    between atoms: O_1  and  C_20
REMARK    3  A    between atoms: O_4  and  C_22
REMARK    4  A    between atoms: O_4  and  C_27
REMARK    5  A    between atoms: O_13  and  C_38
REMARK    6  A    between atoms: C_25  and  C_30
REMARK    7  A    between atoms: C_28  and  C_32
REMARK                            x       y       z     vdW  Elec       q    Type
REMARK                         _______ _______ _______ _____ _____    ______ ____
ROOT
ATOM      1  O   UNL     1     113.197 127.233 136.403  0.00  0.00    +0.000 OA
ATOM      2  O   UNL     1     113.139 129.468 138.233  0.00  0.00    +0.000 OA
ATOM      3  O   UNL     1     113.522 129.940 135.376  0.00  0.00    +0.000 OA
ATOM      4  C   UNL     1     113.010 127.008 137.801  0.00  0.00    +0.000 C 
ATOM      5  C   UNL     1     113.082 126.714 137.034  0.00  0.00    +0.000 C 
ATOM      6  C   UNL     1     113.053 127.820 137.938  0.00  0.00    +0.000 C 
ATOM      7  C   UNL     1     113.168 128.339 137.307  0.00  0.00    +0.000 A 
ATOM      8  C   UNL     1     113.240 128.046 136.539  0.00  0.00    +0.000 A 
ATOM      9  C   UNL     1     113.212 129.183 137.462  0.00  0.00    +0.000 A 
ATOM     10  C   UNL     1     113.361 128.575 135.874  0.00  0.00    +0.000 A 
ATOM     11  C   UNL     1     113.332 129.729 136.809  0.00  0.00    +0.000 A 
ATOM     12  C   UNL     1     113.407 129.423 136.009  0.00  0.00    +0.000 A 
ENDROOT
BRANCH   5  15
ATOM     13  O   UNL     1     111.574 124.412 136.263  0.00  0.00    +0.000 OA
ATOM     14  O   UNL     1     112.905 123.464 136.489  0.00  0.00    +0.000 OA
ATOM     15  C   UNL     1     113.038 125.902 136.898  0.00  0.00    +0.000 A 
ATOM     16  C   UNL     1     112.328 125.563 136.648  0.00  0.00    +0.000 A 
ATOM     17  C   UNL     1     113.703 125.428 137.011  0.00  0.00    +0.000 A 
ATOM     18  C   UNL     1     112.284 124.751 136.512  0.00  0.00    +0.000 A 
ATOM     19  C   UNL     1     113.660 124.615 136.875  0.00  0.00    +0.000 A 
ATOM     20  C   UNL     1     112.950 124.277 136.626  0.00  0.00    +0.000 A 
ENDBRANCH   5  15
BRANCH  11  21
ATOM     21  O   UNL     1     113.375 130.541 136.949  0.00  0.00    +0.000 OA
ATOM     22  C   UNL     1     114.110 130.911 137.007  0.00  0.00    +0.000 C 
ENDBRANCH  11  21
BRANCH   4  23
ATOM     23  O   UNL     1     112.895 126.489 138.433  0.00  0.00    +0.000 OA
BRANCH  23  30
ATOM     24  O   UNL     1     111.645 126.983 138.919  0.00  0.00    +0.000 OA
ATOM     25  O   UNL     1     112.483 126.813 141.242  0.00  0.00    +0.000 OA
ATOM     26  O   UNL     1     113.453 126.375 139.981  0.00  0.00    +0.000 OA
ATOM     27  C   UNL     1     111.440 127.145 140.325  0.00  0.00    +0.000 C 
ATOM     28  C   UNL     1     112.204 126.870 140.468  0.00  0.00    +0.000 C 
ATOM     29  C   UNL     1     112.689 126.651 139.837  0.00  0.00    +0.000 C 
ATOM     30  C   UNL     1     112.410 126.708 139.063  0.00  0.00    +0.000 C 
ATOM     31  C   UNL     1     111.160 127.202 139.550  0.00  0.00    +0.000 C 
BRANCH  27  32
ATOM     32  O   UNL     1     110.955 127.364 140.955  0.00  0.00    +0.000 OA
BRANCH  32  37
ATOM     33  O   UNL     1     109.949 126.354 140.853  0.00  0.00    +0.000 OA
ATOM     34  O   UNL     1     109.786 128.507 141.174  0.00  0.00    +0.000 OA
ATOM     35  O   UNL     1     108.195 128.069 141.182  0.00  0.00    +0.000 OA
ATOM     36  O   UNL     1     107.774 126.489 140.971  0.00  0.00    +0.000 OA
ATOM     37  C   UNL     1     110.160 127.145 140.959  0.00  0.00    +0.000 C 
ATOM     38  C   UNL     1     109.576 127.717 141.069  0.00  0.00    +0.000 C 
ATOM     39  C   UNL     1     108.779 127.498 141.073  0.00  0.00    +0.000 C 
ATOM     40  C   UNL     1     108.569 126.707 140.967  0.00  0.00    +0.000 C 
ATOM     41  C   UNL     1     109.154 126.135 140.857  0.00  0.00    +0.000 C 
BRANCH  41  43
ATOM     42  O   UNL     1     109.346 124.752 141.160  0.00  0.00    +0.000 OA
ATOM     43  C   UNL     1     108.943 125.346 140.752  0.00  0.00    +0.000 C 
ENDBRANCH  41  43
ENDBRANCH  32  37
ENDBRANCH  27  32
ENDBRANCH  23  30
ENDBRANCH   4  23
TORSDOF 7
ENDMDL
