MODEL 1
REMARK VINA RESULT:     -10.1      0.000      0.000
REMARK  Name = 14238622
REMARK  7 active torsions:
REMARK  status: ('A' for Active; 'I' for Inactive)
REMARK    1  A    between atoms: O_1  and  C_17
REMARK    2  A    between atoms: O_1  and  C_19
REMARK    3  A    between atoms: O_4  and  C_23
REMARK    4  A    between atoms: O_4  and  C_29
REMARK    5  A    between atoms: O_15  and  C_41
REMARK    6  A    between atoms: C_26  and  C_27
REMARK    7  A    between atoms: C_30  and  C_33
REMARK                            x       y       z     vdW  Elec       q    Type
REMARK                         _______ _______ _______ _____ _____    ______ ____
ROOT
ATOM      1  O   UNL     1     112.080 127.111 137.569  0.00  0.00    +0.000 OA
ENDROOT
BRANCH   1   6
ATOM      2  O   UNL     1     113.393 126.173 139.038  0.00  0.00    +0.000 OA
ATOM      3  O   UNL     1     112.474 128.408 138.509  0.00  0.00    +0.000 OA
ATOM      4  O   UNL     1     113.171 128.992 139.630  0.00  0.00    +0.000 OA
ATOM      5  O   UNL     1     114.829 127.280 141.317  0.00  0.00    +0.000 OA
ATOM      6  C   UNL     1     112.583 127.014 138.215  0.00  0.00    +0.000 A 
ATOM      7  C   UNL     1     112.889 126.269 138.391  0.00  0.00    +0.000 A 
ATOM      8  C   UNL     1     112.780 127.664 138.685  0.00  0.00    +0.000 A 
ATOM      9  C   UNL     1     113.284 127.567 139.331  0.00  0.00    +0.000 A 
ATOM     10  C   UNL     1     113.591 126.821 139.508  0.00  0.00    +0.000 A 
ATOM     11  C   UNL     1     113.483 128.249 139.814  0.00  0.00    +0.000 A 
ATOM     12  C   UNL     1     114.116 126.707 140.178  0.00  0.00    +0.000 A 
ATOM     13  C   UNL     1     114.006 128.156 140.488  0.00  0.00    +0.000 A 
ATOM     14  C   UNL     1     114.325 127.379 140.671  0.00  0.00    +0.000 A 
BRANCH   7  16
ATOM     15  O   UNL     1     112.099 123.672 136.515  0.00  0.00    +0.000 OA
ATOM     16  C   UNL     1     112.692 125.620 137.922  0.00  0.00    +0.000 A 
ATOM     17  C   UNL     1     113.217 125.354 137.344  0.00  0.00    +0.000 A 
ATOM     18  C   UNL     1     111.970 125.237 138.031  0.00  0.00    +0.000 A 
ATOM     19  C   UNL     1     113.020 124.704 136.875  0.00  0.00    +0.000 A 
ATOM     20  C   UNL     1     111.772 124.588 137.562  0.00  0.00    +0.000 A 
ATOM     21  C   UNL     1     112.297 124.322 136.983  0.00  0.00    +0.000 A 
BRANCH  19  22
ATOM     22  O   UNL     1     113.545 124.438 136.297  0.00  0.00    +0.000 OA
ATOM     23  C   UNL     1     114.343 124.641 136.341  0.00  0.00    +0.000 C 
ENDBRANCH  19  22
ENDBRANCH   7  16
ENDBRANCH   1   6
BRANCH   1  30
ATOM     24  O   UNL     1     113.037 127.749 136.722  0.00  0.00    +0.000 OA
ATOM     25  O   UNL     1     111.245 129.158 135.758  0.00  0.00    +0.000 OA
ATOM     26  O   UNL     1     112.800 129.327 135.233  0.00  0.00    +0.000 OA
ATOM     27  C   UNL     1     111.662 128.135 136.663  0.00  0.00    +0.000 C 
ATOM     28  C   UNL     1     111.843 128.689 136.080  0.00  0.00    +0.000 C 
ATOM     29  C   UNL     1     112.619 128.773 135.817  0.00  0.00    +0.000 C 
ATOM     30  C   UNL     1     112.260 127.665 136.985  0.00  0.00    +0.000 C 
ATOM     31  C   UNL     1     113.217 128.303 136.138  0.00  0.00    +0.000 C 
ATOM     32  C   UNL     1     113.995 128.388 135.875  0.00  0.00    +0.000 C 
BRANCH  27  33
ATOM     33  O   UNL     1     110.885 128.050 136.927  0.00  0.00    +0.000 OA
BRANCH  33  38
ATOM     34  O   UNL     1     110.580 127.259 135.776  0.00  0.00    +0.000 OA
ATOM     35  O   UNL     1     109.303 127.985 137.391  0.00  0.00    +0.000 OA
ATOM     36  O   UNL     1     108.207 127.161 136.473  0.00  0.00    +0.000 OA
ATOM     37  O   UNL     1     108.693 126.403 135.090  0.00  0.00    +0.000 OA
ATOM     38  C   UNL     1     110.337 127.638 136.468  0.00  0.00    +0.000 C 
ATOM     39  C   UNL     1     109.546 127.606 136.699  0.00  0.00    +0.000 C 
ATOM     40  C   UNL     1     108.998 127.194 136.240  0.00  0.00    +0.000 C 
ATOM     41  C   UNL     1     109.241 126.815 135.550  0.00  0.00    +0.000 C 
ATOM     42  C   UNL     1     110.032 126.847 135.317  0.00  0.00    +0.000 C 
BRANCH  42  44
ATOM     43  O   UNL     1     110.551 125.691 134.657  0.00  0.00    +0.000 OA
ATOM     44  C   UNL     1     110.276 126.468 134.626  0.00  0.00    +0.000 C 
ENDBRANCH  42  44
ENDBRANCH  33  38
ENDBRANCH  27  33
ENDBRANCH   1  30
TORSDOF 7
ENDMDL
MODEL 2
REMARK VINA RESULT:     -10.0      1.581      4.953
REMARK  Name = 14238622
REMARK  7 active torsions:
REMARK  status: ('A' for Active; 'I' for Inactive)
REMARK    1  A    between atoms: O_1  and  C_17
REMARK    2  A    between atoms: O_1  and  C_19
REMARK    3  A    between atoms: O_4  and  C_23
REMARK    4  A    between atoms: O_4  and  C_29
REMARK    5  A    between atoms: O_15  and  C_41
REMARK    6  A    between atoms: C_26  and  C_27
REMARK    7  A    between atoms: C_30  and  C_33
REMARK                            x       y       z     vdW  Elec       q    Type
REMARK                         _______ _______ _______ _____ _____    ______ ____
ROOT
ATOM      1  O   UNL     1     111.287 128.065 136.601  0.00  0.00    +0.000 OA
ENDROOT
BRANCH   1   6
ATOM      2  O   UNL     1     110.891 129.933 135.544  0.00  0.00    +0.000 OA
ATOM      3  O   UNL     1     109.643 128.143 136.710  0.00  0.00    +0.000 OA
ATOM      4  O   UNL     1     108.388 128.803 136.442  0.00  0.00    +0.000 OA
ATOM      5  O   UNL     1     108.398 131.322 134.965  0.00  0.00    +0.000 OA
ATOM      6  C   UNL     1     110.881 128.701 136.267  0.00  0.00    +0.000 A 
ATOM      7  C   UNL     1     111.297 129.297 135.878  0.00  0.00    +0.000 A 
ATOM      8  C   UNL     1     110.059 128.739 136.322  0.00  0.00    +0.000 A 
ATOM      9  C   UNL     1     109.653 129.375 135.988  0.00  0.00    +0.000 A 
ATOM     10  C   UNL     1     110.069 129.972 135.598  0.00  0.00    +0.000 A 
ATOM     11  C   UNL     1     108.796 129.405 136.051  0.00  0.00    +0.000 A 
ATOM     12  C   UNL     1     109.658 130.639 135.246  0.00  0.00    +0.000 A 
ATOM     13  C   UNL     1     108.368 130.064 135.705  0.00  0.00    +0.000 A 
ATOM     14  C   UNL     1     108.801 130.685 135.300  0.00  0.00    +0.000 A 
BRANCH   7  16
ATOM     15  O   UNL     1     114.586 129.143 135.655  0.00  0.00    +0.000 OA
ATOM     16  C   UNL     1     112.120 129.259 135.823  0.00  0.00    +0.000 A 
ATOM     17  C   UNL     1     112.588 129.501 136.457  0.00  0.00    +0.000 A 
ATOM     18  C   UNL     1     112.474 128.979 135.133  0.00  0.00    +0.000 A 
ATOM     19  C   UNL     1     113.410 129.462 136.402  0.00  0.00    +0.000 A 
ATOM     20  C   UNL     1     113.296 128.940 135.076  0.00  0.00    +0.000 A 
ATOM     21  C   UNL     1     113.764 129.182 135.712  0.00  0.00    +0.000 A 
BRANCH  19  22
ATOM     22  O   UNL     1     113.878 129.704 137.036  0.00  0.00    +0.000 OA
ATOM     23  C   UNL     1     113.633 130.330 137.515  0.00  0.00    +0.000 C 
ENDBRANCH  19  22
ENDBRANCH   7  16
ENDBRANCH   1   6
BRANCH   1  30
ATOM     24  O   UNL     1     110.903 127.114 135.606  0.00  0.00    +0.000 OA
ATOM     25  O   UNL     1     110.870 125.332 137.324  0.00  0.00    +0.000 OA
ATOM     26  O   UNL     1     110.496 124.975 135.757  0.00  0.00    +0.000 OA
ATOM     27  C   UNL     1     111.079 126.698 136.962  0.00  0.00    +0.000 C 
ATOM     28  C   UNL     1     110.881 125.926 136.751  0.00  0.00    +0.000 C 
ATOM     29  C   UNL     1     110.694 125.747 135.969  0.00  0.00    +0.000 C 
ATOM     30  C   UNL     1     111.089 127.292 136.390  0.00  0.00    +0.000 C 
ATOM     31  C   UNL     1     110.705 126.341 135.396  0.00  0.00    +0.000 C 
ATOM     32  C   UNL     1     110.518 126.162 134.612  0.00  0.00    +0.000 C 
BRANCH  27  33
ATOM     33  O   UNL     1     111.266 126.877 137.746  0.00  0.00    +0.000 OA
BRANCH  33  38
ATOM     34  O   UNL     1     112.556 126.286 137.572  0.00  0.00    +0.000 OA
ATOM     35  O   UNL     1     111.664 127.292 139.292  0.00  0.00    +0.000 OA
ATOM     36  O   UNL     1     113.152 126.909 139.892  0.00  0.00    +0.000 OA
ATOM     37  O   UNL     1     114.243 126.110 138.946  0.00  0.00    +0.000 OA
ATOM     38  C   UNL     1     112.010 126.686 138.046  0.00  0.00    +0.000 C 
ATOM     39  C   UNL     1     112.210 126.893 138.819  0.00  0.00    +0.000 C 
ATOM     40  C   UNL     1     112.954 126.701 139.119  0.00  0.00    +0.000 C 
ATOM     41  C   UNL     1     113.498 126.302 138.646  0.00  0.00    +0.000 C 
ATOM     42  C   UNL     1     113.300 126.094 137.872  0.00  0.00    +0.000 C 
BRANCH  42  44
ATOM     43  O   UNL     1     114.206 126.084 136.768  0.00  0.00    +0.000 OA
ATOM     44  C   UNL     1     113.845 125.696 137.399  0.00  0.00    +0.000 C 
ENDBRANCH  42  44
ENDBRANCH  33  38
ENDBRANCH  27  33
ENDBRANCH   1  30
TORSDOF 7
ENDMDL
MODEL 3
REMARK VINA RESULT:      -9.8      2.297      4.307
REMARK  Name = 14238622
REMARK  7 active torsions:
REMARK  status: ('A' for Active; 'I' for Inactive)
REMARK    1  A    between atoms: O_1  and  C_17
REMARK    2  A    between atoms: O_1  and  C_19
REMARK    3  A    between atoms: O_4  and  C_23
REMARK    4  A    between atoms: O_4  and  C_29
REMARK    5  A    between atoms: O_15  and  C_41
REMARK    6  A    between atoms: C_26  and  C_27
REMARK    7  A    between atoms: C_30  and  C_33
REMARK                            x       y       z     vdW  Elec       q    Type
REMARK                         _______ _______ _______ _____ _____    ______ ____
ROOT
ATOM      1  O   UNL     1     111.522 126.368 138.966  0.00  0.00    +0.000 OA
ENDROOT
BRANCH   1   6
ATOM      2  O   UNL     1     113.673 126.211 138.633  0.00  0.00    +0.000 OA
ATOM      3  O   UNL     1     111.573 125.210 137.791  0.00  0.00    +0.000 OA
ATOM      4  O   UNL     1     112.307 124.367 136.879  0.00  0.00    +0.000 OA
ATOM      5  O   UNL     1     115.221 124.540 136.818  0.00  0.00    +0.000 OA
ATOM      6  C   UNL     1     112.248 126.123 138.659  0.00  0.00    +0.000 A 
ATOM      7  C   UNL     1     112.948 126.456 138.940  0.00  0.00    +0.000 A 
ATOM      8  C   UNL     1     112.273 125.544 138.072  0.00  0.00    +0.000 A 
ATOM      9  C   UNL     1     112.998 125.299 137.765  0.00  0.00    +0.000 A 
ATOM     10  C   UNL     1     113.699 125.633 138.046  0.00  0.00    +0.000 A 
ATOM     11  C   UNL     1     113.013 124.695 137.154  0.00  0.00    +0.000 A 
ATOM     12  C   UNL     1     114.461 125.386 137.735  0.00  0.00    +0.000 A 
ATOM     13  C   UNL     1     113.765 124.436 136.830  0.00  0.00    +0.000 A 
ATOM     14  C   UNL     1     114.494 124.783 137.123  0.00  0.00    +0.000 A 
BRANCH   7  16
ATOM     15  O   UNL     1     112.849 128.770 141.291  0.00  0.00    +0.000 OA
ATOM     16  C   UNL     1     112.923 127.035 139.527  0.00  0.00    +0.000 A 
ATOM     17  C   UNL     1     112.940 127.833 139.322  0.00  0.00    +0.000 A 
ATOM     18  C   UNL     1     112.881 126.815 140.321  0.00  0.00    +0.000 A 
ATOM     19  C   UNL     1     112.916 128.412 139.909  0.00  0.00    +0.000 A 
ATOM     20  C   UNL     1     112.856 127.393 140.909  0.00  0.00    +0.000 A 
ATOM     21  C   UNL     1     112.873 128.192 140.703  0.00  0.00    +0.000 A 
BRANCH  19  22
ATOM     22  O   UNL     1     112.933 129.210 139.703  0.00  0.00    +0.000 OA
ATOM     23  C   UNL     1     113.417 129.466 139.086  0.00  0.00    +0.000 C 
ENDBRANCH  19  22
ENDBRANCH   7  16
ENDBRANCH   1   6
BRANCH   1  30
ATOM     24  O   UNL     1     111.127 127.119 137.816  0.00  0.00    +0.000 OA
ATOM     25  O   UNL     1     108.766 126.499 138.223  0.00  0.00    +0.000 OA
ATOM     26  O   UNL     1     109.157 127.457 136.938  0.00  0.00    +0.000 OA
ATOM     27  C   UNL     1     110.143 126.433 138.594  0.00  0.00    +0.000 C 
ATOM     28  C   UNL     1     109.553 126.706 138.087  0.00  0.00    +0.000 C 
ATOM     29  C   UNL     1     109.748 127.184 137.445  0.00  0.00    +0.000 C 
ATOM     30  C   UNL     1     110.930 126.640 138.458  0.00  0.00    +0.000 C 
ATOM     31  C   UNL     1     110.535 127.391 137.310  0.00  0.00    +0.000 C 
ATOM     32  C   UNL     1     110.732 127.870 136.666  0.00  0.00    +0.000 C 
BRANCH  27  33
ATOM     33  O   UNL     1     109.948 125.954 139.237  0.00  0.00    +0.000 OA
BRANCH  33  38
ATOM     34  O   UNL     1     109.600 127.112 140.001  0.00  0.00    +0.000 OA
ATOM     35  O   UNL     1     109.363 124.986 140.438  0.00  0.00    +0.000 OA
ATOM     36  O   UNL     1     108.723 125.659 141.802  0.00  0.00    +0.000 OA
ATOM     37  O   UNL     1     108.667 127.300 141.965  0.00  0.00    +0.000 OA
ATOM     38  C   UNL     1     109.628 126.291 139.919  0.00  0.00    +0.000 C 
ATOM     39  C   UNL     1     109.335 125.807 140.520  0.00  0.00    +0.000 C 
ATOM     40  C   UNL     1     109.015 126.143 141.202  0.00  0.00    +0.000 C 
ATOM     41  C   UNL     1     108.987 126.963 141.283  0.00  0.00    +0.000 C 
ATOM     42  C   UNL     1     109.280 127.448 140.682  0.00  0.00    +0.000 C 
BRANCH  42  44
ATOM     43  O   UNL     1     108.669 128.702 140.374  0.00  0.00    +0.000 OA
ATOM     44  C   UNL     1     109.252 128.268 140.764  0.00  0.00    +0.000 C 
ENDBRANCH  42  44
ENDBRANCH  33  38
ENDBRANCH  27  33
ENDBRANCH   1  30
TORSDOF 7
ENDMDL
MODEL 4
REMARK VINA RESULT:      -9.8      1.825      4.580
REMARK  Name = 14238622
REMARK  7 active torsions:
REMARK  status: ('A' for Active; 'I' for Inactive)
REMARK    1  A    between atoms: O_1  and  C_17
REMARK    2  A    between atoms: O_1  and  C_19
REMARK    3  A    between atoms: O_4  and  C_23
REMARK    4  A    between atoms: O_4  and  C_29
REMARK    5  A    between atoms: O_15  and  C_41
REMARK    6  A    between atoms: C_26  and  C_27
REMARK    7  A    between atoms: C_30  and  C_33
REMARK                            x       y       z     vdW  Elec       q    Type
REMARK                         _______ _______ _______ _____ _____    ______ ____
ROOT
ATOM      1  O   UNL     1     111.730 127.580 137.653  0.00  0.00    +0.000 OA
ENDROOT
BRANCH   1   6
ATOM      2  O   UNL     1     112.107 129.326 136.400  0.00  0.00    +0.000 OA
ATOM      3  O   UNL     1     113.182 127.175 136.983  0.00  0.00    +0.000 OA
ATOM      4  O   UNL     1     114.298 127.465 136.117  0.00  0.00    +0.000 OA
ATOM      5  O   UNL     1     114.328 129.979 134.632  0.00  0.00    +0.000 OA
ATOM      6  C   UNL     1     112.097 128.095 137.124  0.00  0.00    +0.000 A 
ATOM      7  C   UNL     1     111.739 128.811 136.929  0.00  0.00    +0.000 A 
ATOM      8  C   UNL     1     112.824 127.891 136.789  0.00  0.00    +0.000 A 
ATOM      9  C   UNL     1     113.191 128.406 136.259  0.00  0.00    +0.000 A 
ATOM     10  C   UNL     1     112.833 129.124 136.064  0.00  0.00    +0.000 A 
ATOM     11  C   UNL     1     113.947 128.185 135.916  0.00  0.00    +0.000 A 
ATOM     12  C   UNL     1     113.206 129.668 135.514  0.00  0.00    +0.000 A 
ATOM     13  C   UNL     1     114.335 128.716 135.364  0.00  0.00    +0.000 A 
ATOM     14  C   UNL     1     113.962 129.462 135.162  0.00  0.00    +0.000 A 
BRANCH   7  16
ATOM     15  O   UNL     1     108.836 129.625 138.271  0.00  0.00    +0.000 OA
ATOM     16  C   UNL     1     111.013 129.015 137.264  0.00  0.00    +0.000 A 
ATOM     17  C   UNL     1     110.313 128.872 136.852  0.00  0.00    +0.000 A 
ATOM     18  C   UNL     1     110.987 129.361 138.012  0.00  0.00    +0.000 A 
ATOM     19  C   UNL     1     109.587 129.075 137.187  0.00  0.00    +0.000 A 
ATOM     20  C   UNL     1     110.261 129.565 138.348  0.00  0.00    +0.000 A 
ATOM     21  C   UNL     1     109.561 129.421 137.935  0.00  0.00    +0.000 A 
BRANCH  19  22
ATOM     22  O   UNL     1     108.888 128.932 136.774  0.00  0.00    +0.000 OA
ATOM     23  C   UNL     1     108.853 129.068 135.961  0.00  0.00    +0.000 C 
ENDBRANCH  19  22
ENDBRANCH   7  16
ENDBRANCH   1   6
BRANCH   1  30
ATOM     24  O   UNL     1     111.319 126.628 136.670  0.00  0.00    +0.000 OA
ATOM     25  O   UNL     1     111.658 124.798 138.301  0.00  0.00    +0.000 OA
ATOM     26  O   UNL     1     111.135 124.455 136.775  0.00  0.00    +0.000 OA
ATOM     27  C   UNL     1     111.694 126.188 137.977  0.00  0.00    +0.000 C 
ATOM     28  C   UNL     1     111.545 125.408 137.758  0.00  0.00    +0.000 C 
ATOM     29  C   UNL     1     111.284 125.236 136.995  0.00  0.00    +0.000 C 
ATOM     30  C   UNL     1     111.581 126.798 137.434  0.00  0.00    +0.000 C 
ATOM     31  C   UNL     1     111.171 125.846 136.451  0.00  0.00    +0.000 C 
ATOM     32  C   UNL     1     110.909 125.675 135.687  0.00  0.00    +0.000 C 
BRANCH  27  33
ATOM     33  O   UNL     1     111.956 126.360 138.741  0.00  0.00    +0.000 OA
BRANCH  33  38
ATOM     34  O   UNL     1     110.625 126.187 139.235  0.00  0.00    +0.000 OA
ATOM     35  O   UNL     1     112.466 126.770 140.256  0.00  0.00    +0.000 OA
ATOM     36  O   UNL     1     111.391 126.802 141.507  0.00  0.00    +0.000 OA
ATOM     37  O   UNL     1     109.807 126.424 141.244  0.00  0.00    +0.000 OA
ATOM     38  C   UNL     1     111.418 126.376 139.367  0.00  0.00    +0.000 C 
ATOM     39  C   UNL     1     111.673 126.581 140.124  0.00  0.00    +0.000 C 
ATOM     40  C   UNL     1     111.135 126.597 140.750  0.00  0.00    +0.000 C 
ATOM     41  C   UNL     1     110.344 126.408 140.618  0.00  0.00    +0.000 C 
ATOM     42  C   UNL     1     110.088 126.203 139.861  0.00  0.00    +0.000 C 
BRANCH  42  44
ATOM     43  O   UNL     1     108.824 126.512 139.272  0.00  0.00    +0.000 OA
ATOM     44  C   UNL     1     109.296 126.015 139.729  0.00  0.00    +0.000 C 
ENDBRANCH  42  44
ENDBRANCH  33  38
ENDBRANCH  27  33
ENDBRANCH   1  30
TORSDOF 7
ENDMDL
MODEL 5
REMARK VINA RESULT:      -9.8      1.512      4.015
REMARK  Name = 14238622
REMARK  7 active torsions:
REMARK  status: ('A' for Active; 'I' for Inactive)
REMARK    1  A    between atoms: O_1  and  C_17
REMARK    2  A    between atoms: O_1  and  C_19
REMARK    3  A    between atoms: O_4  and  C_23
REMARK    4  A    between atoms: O_4  and  C_29
REMARK    5  A    between atoms: O_15  and  C_41
REMARK    6  A    between atoms: C_26  and  C_27
REMARK    7  A    between atoms: C_30  and  C_33
REMARK                            x       y       z     vdW  Elec       q    Type
REMARK                         _______ _______ _______ _____ _____    ______ ____
ROOT
ATOM      1  O   UNL     1     112.218 127.395 137.799  0.00  0.00    +0.000 OA
ENDROOT
BRANCH   1   6
ATOM      2  O   UNL     1     112.524 125.251 138.064  0.00  0.00    +0.000 OA
ATOM      3  O   UNL     1     111.542 126.810 136.413  0.00  0.00    +0.000 OA
ATOM      4  O   UNL     1     111.179 125.713 135.549  0.00  0.00    +0.000 OA
ATOM      5  O   UNL     1     111.822 122.987 136.372  0.00  0.00    +0.000 OA
ATOM      6  C   UNL     1     112.208 126.583 137.656  0.00  0.00    +0.000 A 
ATOM      7  C   UNL     1     112.535 126.064 138.206  0.00  0.00    +0.000 A 
ATOM      8  C   UNL     1     111.869 126.291 136.963  0.00  0.00    +0.000 A 
ATOM      9  C   UNL     1     111.859 125.479 136.820  0.00  0.00    +0.000 A 
ATOM     10  C   UNL     1     112.187 124.958 137.370  0.00  0.00    +0.000 A 
ATOM     11  C   UNL     1     111.504 125.185 136.094  0.00  0.00    +0.000 A 
ATOM     12  C   UNL     1     112.182 124.110 137.233  0.00  0.00    +0.000 A 
ATOM     13  C   UNL     1     111.490 124.340 135.939  0.00  0.00    +0.000 A 
ATOM     14  C   UNL     1     111.831 123.800 136.513  0.00  0.00    +0.000 A 
BRANCH   7  16
ATOM     15  O   UNL     1     113.890 127.231 140.980  0.00  0.00    +0.000 OA
ATOM     16  C   UNL     1     112.873 126.355 138.900  0.00  0.00    +0.000 A 
ATOM     17  C   UNL     1     112.397 126.529 139.551  0.00  0.00    +0.000 A 
ATOM     18  C   UNL     1     113.689 126.474 138.943  0.00  0.00    +0.000 A 
ATOM     19  C   UNL     1     112.736 126.821 140.244  0.00  0.00    +0.000 A 
ATOM     20  C   UNL     1     114.028 126.766 139.636  0.00  0.00    +0.000 A 
ATOM     21  C   UNL     1     113.551 126.939 140.287  0.00  0.00    +0.000 A 
BRANCH  19  22
ATOM     22  O   UNL     1     112.260 126.994 140.895  0.00  0.00    +0.000 OA
ATOM     23  C   UNL     1     111.487 126.708 140.928  0.00  0.00    +0.000 C 
ENDBRANCH  19  22
ENDBRANCH   7  16
ENDBRANCH   1   6
BRANCH   1  30
ATOM     24  O   UNL     1     113.226 127.698 136.833  0.00  0.00    +0.000 OA
ATOM     25  O   UNL     1     112.134 129.870 136.372  0.00  0.00    +0.000 OA
ATOM     26  O   UNL     1     113.506 129.448 135.560  0.00  0.00    +0.000 OA
ATOM     27  C   UNL     1     112.176 128.633 137.085  0.00  0.00    +0.000 C 
ATOM     28  C   UNL     1     112.498 129.146 136.526  0.00  0.00    +0.000 C 
ATOM     29  C   UNL     1     113.184 128.936 136.120  0.00  0.00    +0.000 C 
ATOM     30  C   UNL     1     112.540 127.909 137.239  0.00  0.00    +0.000 C 
ATOM     31  C   UNL     1     113.548 128.211 136.273  0.00  0.00    +0.000 C 
ATOM     32  C   UNL     1     114.235 128.000 135.867  0.00  0.00    +0.000 C 
BRANCH  27  33
ATOM     33  O   UNL     1     111.489 128.844 137.492  0.00  0.00    +0.000 OA
BRANCH  33  38
ATOM     34  O   UNL     1     112.257 129.698 138.344  0.00  0.00    +0.000 OA
ATOM     35  O   UNL     1     110.129 129.209 138.351  0.00  0.00    +0.000 OA
ATOM     36  O   UNL     1     110.215 130.246 139.631  0.00  0.00    +0.000 OA
ATOM     37  O   UNL     1     111.662 130.918 140.053  0.00  0.00    +0.000 OA
ATOM     38  C   UNL     1     111.533 129.362 138.132  0.00  0.00    +0.000 C 
ATOM     39  C   UNL     1     110.853 129.545 138.562  0.00  0.00    +0.000 C 
ATOM     40  C   UNL     1     110.896 130.064 139.202  0.00  0.00    +0.000 C 
ATOM     41  C   UNL     1     111.619 130.399 139.413  0.00  0.00    +0.000 C 
ATOM     42  C   UNL     1     112.300 130.217 138.984  0.00  0.00    +0.000 C 
BRANCH  42  44
ATOM     43  O   UNL     1     113.587 130.101 139.592  0.00  0.00    +0.000 OA
ATOM     44  C   UNL     1     113.023 130.552 139.195  0.00  0.00    +0.000 C 
ENDBRANCH  42  44
ENDBRANCH  33  38
ENDBRANCH  27  33
ENDBRANCH   1  30
TORSDOF 7
ENDMDL
MODEL 6
REMARK VINA RESULT:      -9.8      1.527      3.781
REMARK  Name = 14238622
REMARK  7 active torsions:
REMARK  status: ('A' for Active; 'I' for Inactive)
REMARK    1  A    between atoms: O_1  and  C_17
REMARK    2  A    between atoms: O_1  and  C_19
REMARK    3  A    between atoms: O_4  and  C_23
REMARK    4  A    between atoms: O_4  and  C_29
REMARK    5  A    between atoms: O_15  and  C_41
REMARK    6  A    between atoms: C_26  and  C_27
REMARK    7  A    between atoms: C_30  and  C_33
REMARK                            x       y       z     vdW  Elec       q    Type
REMARK                         _______ _______ _______ _____ _____    ______ ____
ROOT
ATOM      1  O   UNL     1     112.634 127.754 138.331  0.00  0.00    +0.000 OA
ENDROOT
BRANCH   1   6
ATOM      2  O   UNL     1     113.535 129.741 138.299  0.00  0.00    +0.000 OA
ATOM      3  O   UNL     1     113.174 127.877 139.885  0.00  0.00    +0.000 OA
ATOM      4  O   UNL     1     113.837 128.607 140.938  0.00  0.00    +0.000 OA
ATOM      5  O   UNL     1     114.884 131.273 140.376  0.00  0.00    +0.000 OA
ATOM      6  C   UNL     1     113.024 128.437 138.579  0.00  0.00    +0.000 A 
ATOM      7  C   UNL     1     113.144 129.058 138.050  0.00  0.00    +0.000 A 
ATOM      8  C   UNL     1     113.294 128.498 139.356  0.00  0.00    +0.000 A 
ATOM      9  C   UNL     1     113.685 129.181 139.605  0.00  0.00    +0.000 A 
ATOM     10  C   UNL     1     113.805 129.803 139.075  0.00  0.00    +0.000 A 
ATOM     11  C   UNL     1     113.962 129.234 140.416  0.00  0.00    +0.000 A 
ATOM     12  C   UNL     1     114.210 130.520 139.322  0.00  0.00    +0.000 A 
ATOM     13  C   UNL     1     114.369 129.942 140.681  0.00  0.00    +0.000 A 
ATOM     14  C   UNL     1     114.494 130.589 140.130  0.00  0.00    +0.000 A 
BRANCH   7  16
ATOM     15  O   UNL     1     112.067 128.814 134.941  0.00  0.00    +0.000 OA
ATOM     16  C   UNL     1     112.874 128.997 137.273  0.00  0.00    +0.000 A 
ATOM     17  C   UNL     1     112.154 129.336 137.058  0.00  0.00    +0.000 A 
ATOM     18  C   UNL     1     113.326 128.597 136.710  0.00  0.00    +0.000 A 
ATOM     19  C   UNL     1     111.884 129.275 136.281  0.00  0.00    +0.000 A 
ATOM     20  C   UNL     1     113.057 128.536 135.933  0.00  0.00    +0.000 A 
ATOM     21  C   UNL     1     112.335 128.875 135.718  0.00  0.00    +0.000 A 
BRANCH  19  22
ATOM     22  O   UNL     1     111.163 129.613 136.066  0.00  0.00    +0.000 OA
ATOM     23  C   UNL     1     110.922 130.323 136.412  0.00  0.00    +0.000 C 
ENDBRANCH  19  22
ENDBRANCH   7  16
ENDBRANCH   1   6
BRANCH   1  30
ATOM     24  O   UNL     1     111.416 128.031 139.025  0.00  0.00    +0.000 OA
ATOM     25  O   UNL     1     111.071 125.607 139.387  0.00  0.00    +0.000 OA
ATOM     26  O   UNL     1     109.968 126.692 139.961  0.00  0.00    +0.000 OA
ATOM     27  C   UNL     1     111.852 126.680 138.859  0.00  0.00    +0.000 C 
ATOM     28  C   UNL     1     111.186 126.415 139.266  0.00  0.00    +0.000 C 
ATOM     29  C   UNL     1     110.635 126.957 139.553  0.00  0.00    +0.000 C 
ATOM     30  C   UNL     1     111.967 127.488 138.738  0.00  0.00    +0.000 C 
ATOM     31  C   UNL     1     110.750 127.765 139.433  0.00  0.00    +0.000 C 
ATOM     32  C   UNL     1     110.198 128.308 139.720  0.00  0.00    +0.000 C 
BRANCH  27  33
ATOM     33  O   UNL     1     112.404 126.138 138.572  0.00  0.00    +0.000 OA
BRANCH  33  38
ATOM     34  O   UNL     1     111.519 125.807 137.499  0.00  0.00    +0.000 OA
ATOM     35  O   UNL     1     113.524 125.084 137.973  0.00  0.00    +0.000 OA
ATOM     36  O   UNL     1     113.199 124.226 136.601  0.00  0.00    +0.000 OA
ATOM     37  O   UNL     1     111.755 124.423 135.828  0.00  0.00    +0.000 OA
ATOM     38  C   UNL     1     112.242 125.709 137.886  0.00  0.00    +0.000 C 
ATOM     39  C   UNL     1     112.801 125.182 137.586  0.00  0.00    +0.000 C 
ATOM     40  C   UNL     1     112.638 124.753 136.900  0.00  0.00    +0.000 C 
ATOM     41  C   UNL     1     111.917 124.852 136.514  0.00  0.00    +0.000 C 
ATOM     42  C   UNL     1     111.357 125.379 136.813  0.00  0.00    +0.000 C 
BRANCH  42  44
ATOM     43  O   UNL     1     110.476 126.177 136.021  0.00  0.00    +0.000 OA
ATOM     44  C   UNL     1     110.635 125.477 136.426  0.00  0.00    +0.000 C 
ENDBRANCH  42  44
ENDBRANCH  33  38
ENDBRANCH  27  33
ENDBRANCH   1  30
TORSDOF 7
ENDMDL
MODEL 7
REMARK VINA RESULT:      -9.8      1.701      3.786
REMARK  Name = 14238622
REMARK  7 active torsions:
REMARK  status: ('A' for Active; 'I' for Inactive)
REMARK    1  A    between atoms: O_1  and  C_17
REMARK    2  A    between atoms: O_1  and  C_19
REMARK    3  A    between atoms: O_4  and  C_23
REMARK    4  A    between atoms: O_4  and  C_29
REMARK    5  A    between atoms: O_15  and  C_41
REMARK    6  A    between atoms: C_26  and  C_27
REMARK    7  A    between atoms: C_30  and  C_33
REMARK                            x       y       z     vdW  Elec       q    Type
REMARK                         _______ _______ _______ _____ _____    ______ ____
ROOT
ATOM      1  O   UNL     1     111.491 127.437 136.961  0.00  0.00    +0.000 OA
ENDROOT
BRANCH   1   6
ATOM      2  O   UNL     1     113.605 126.938 136.753  0.00  0.00    +0.000 OA
ATOM      3  O   UNL     1     111.475 125.838 137.369  0.00  0.00    +0.000 OA
ATOM      4  O   UNL     1     112.152 124.582 137.581  0.00  0.00    +0.000 OA
ATOM      5  O   UNL     1     115.037 124.435 137.162  0.00  0.00    +0.000 OA
ATOM      6  C   UNL     1     112.193 127.004 136.959  0.00  0.00    +0.000 A 
ATOM      7  C   UNL     1     112.902 127.371 136.754  0.00  0.00    +0.000 A 
ATOM      8  C   UNL     1     112.184 126.205 137.164  0.00  0.00    +0.000 A 
ATOM      9  C   UNL     1     112.887 125.772 137.163  0.00  0.00    +0.000 A 
ATOM     10  C   UNL     1     113.597 126.138 136.957  0.00  0.00    +0.000 A 
ATOM     11  C   UNL     1     112.867 124.940 137.377  0.00  0.00    +0.000 A 
ATOM     12  C   UNL     1     114.335 125.698 136.952  0.00  0.00    +0.000 A 
ATOM     13  C   UNL     1     113.594 124.484 137.378  0.00  0.00    +0.000 A 
ATOM     14  C   UNL     1     114.333 124.866 137.164  0.00  0.00    +0.000 A 
BRANCH   7  16
ATOM     15  O   UNL     1     112.936 130.567 135.934  0.00  0.00    +0.000 OA
ATOM     16  C   UNL     1     112.911 128.170 136.550  0.00  0.00    +0.000 A 
ATOM     17  C   UNL     1     112.931 128.747 137.139  0.00  0.00    +0.000 A 
ATOM     18  C   UNL     1     112.899 128.392 135.755  0.00  0.00    +0.000 A 
ATOM     19  C   UNL     1     112.939 129.546 136.934  0.00  0.00    +0.000 A 
ATOM     20  C   UNL     1     112.907 129.191 135.550  0.00  0.00    +0.000 A 
ATOM     21  C   UNL     1     112.927 129.768 136.140  0.00  0.00    +0.000 A 
BRANCH  19  22
ATOM     22  O   UNL     1     112.959 130.123 137.523  0.00  0.00    +0.000 OA
ATOM     23  C   UNL     1     113.429 130.012 138.192  0.00  0.00    +0.000 C 
ENDBRANCH  19  22
ENDBRANCH   7  16
ENDBRANCH   1   6
BRANCH   1  30
ATOM     24  O   UNL     1     110.952 126.826 135.786  0.00  0.00    +0.000 OA
ATOM     25  O   UNL     1     108.669 127.056 136.715  0.00  0.00    +0.000 OA
ATOM     26  O   UNL     1     108.891 126.369 135.231  0.00  0.00    +0.000 OA
ATOM     27  C   UNL     1     110.079 127.246 136.837  0.00  0.00    +0.000 C 
ATOM     28  C   UNL     1     109.430 126.980 136.405  0.00  0.00    +0.000 C 
ATOM     29  C   UNL     1     109.540 126.636 135.664  0.00  0.00    +0.000 C 
ATOM     30  C   UNL     1     110.840 127.170 136.528  0.00  0.00    +0.000 C 
ATOM     31  C   UNL     1     110.301 126.560 135.355  0.00  0.00    +0.000 C 
ATOM     32  C   UNL     1     110.413 126.216 134.612  0.00  0.00    +0.000 C 
BRANCH  27  33
ATOM     33  O   UNL     1     109.969 127.590 137.579  0.00  0.00    +0.000 OA
BRANCH  33  38
ATOM     34  O   UNL     1     109.530 128.800 136.957  0.00  0.00    +0.000 OA
ATOM     35  O   UNL     1     109.908 128.327 139.055  0.00  0.00    +0.000 OA
ATOM     36  O   UNL     1     109.439 129.905 139.170  0.00  0.00    +0.000 OA
ATOM     37  O   UNL     1     109.031 130.746 137.810  0.00  0.00    +0.000 OA
ATOM     38  C   UNL     1     109.734 128.379 137.637  0.00  0.00    +0.000 C 
ATOM     39  C   UNL     1     109.704 128.748 138.374  0.00  0.00    +0.000 C 
ATOM     40  C   UNL     1     109.469 129.537 138.432  0.00  0.00    +0.000 C 
ATOM     41  C   UNL     1     109.265 129.957 137.753  0.00  0.00    +0.000 C 
ATOM     42  C   UNL     1     109.295 129.589 137.015  0.00  0.00    +0.000 C 
BRANCH  42  44
ATOM     43  O   UNL     1     109.670 130.206 135.782  0.00  0.00    +0.000 OA
ATOM     44  C   UNL     1     109.091 130.009 136.335  0.00  0.00    +0.000 C 
ENDBRANCH  42  44
ENDBRANCH  33  38
ENDBRANCH  27  33
ENDBRANCH   1  30
TORSDOF 7
ENDMDL
MODEL 8
REMARK VINA RESULT:      -9.8      2.481      4.553
REMARK  Name = 14238622
REMARK  7 active torsions:
REMARK  status: ('A' for Active; 'I' for Inactive)
REMARK    1  A    between atoms: O_1  and  C_17
REMARK    2  A    between atoms: O_1  and  C_19
REMARK    3  A    between atoms: O_4  and  C_23
REMARK    4  A    between atoms: O_4  and  C_29
REMARK    5  A    between atoms: O_15  and  C_41
REMARK    6  A    between atoms: C_26  and  C_27
REMARK    7  A    between atoms: C_30  and  C_33
REMARK                            x       y       z     vdW  Elec       q    Type
REMARK                         _______ _______ _______ _____ _____    ______ ____
ROOT
ATOM      1  O   UNL     1     111.157 129.094 137.443  0.00  0.00    +0.000 OA
ENDROOT
BRANCH   1   6
ATOM      2  O   UNL     1     112.840 127.730 137.182  0.00  0.00    +0.000 OA
ATOM      3  O   UNL     1     110.430 127.641 137.734  0.00  0.00    +0.000 OA
ATOM      4  O   UNL     1     110.480 126.204 137.848  0.00  0.00    +0.000 OA
ATOM      5  O   UNL     1     113.017 124.831 137.396  0.00  0.00    +0.000 OA
ATOM      6  C   UNL     1     111.597 128.397 137.405  0.00  0.00    +0.000 A 
ATOM      7  C   UNL     1     112.400 128.427 137.221  0.00  0.00    +0.000 A 
ATOM      8  C   UNL     1     111.233 127.671 137.550  0.00  0.00    +0.000 A 
ATOM      9  C   UNL     1     111.673 126.974 137.512  0.00  0.00    +0.000 A 
ATOM     10  C   UNL     1     112.478 127.004 137.328  0.00  0.00    +0.000 A 
ATOM     11  C   UNL     1     111.284 126.224 137.665  0.00  0.00    +0.000 A 
ATOM     12  C   UNL     1     112.947 126.286 137.284  0.00  0.00    +0.000 A 
ATOM     13  C   UNL     1     111.737 125.495 137.626  0.00  0.00    +0.000 A 
ATOM     14  C   UNL     1     112.574 125.526 137.435  0.00  0.00    +0.000 A 
BRANCH   7  16
ATOM     15  O   UNL     1     113.856 131.331 136.636  0.00  0.00    +0.000 OA
ATOM     16  C   UNL     1     112.764 129.153 137.075  0.00  0.00    +0.000 A 
ATOM     17  C   UNL     1     113.019 129.621 137.705  0.00  0.00    +0.000 A 
ATOM     18  C   UNL     1     112.873 129.411 136.299  0.00  0.00    +0.000 A 
ATOM     19  C   UNL     1     113.383 130.347 137.559  0.00  0.00    +0.000 A 
ATOM     20  C   UNL     1     113.237 130.137 136.153  0.00  0.00    +0.000 A 
ATOM     21  C   UNL     1     113.492 130.605 136.783  0.00  0.00    +0.000 A 
BRANCH  19  22
ATOM     22  O   UNL     1     113.638 130.814 138.188  0.00  0.00    +0.000 OA
ATOM     23  C   UNL     1     113.844 130.463 138.906  0.00  0.00    +0.000 C 
ENDBRANCH  19  22
ENDBRANCH   7  16
ENDBRANCH   1   6
BRANCH   1  30
ATOM     24  O   UNL     1     110.462 128.896 136.210  0.00  0.00    +0.000 OA
ATOM     25  O   UNL     1     108.456 129.988 137.165  0.00  0.00    +0.000 OA
ATOM     26  O   UNL     1     108.430 129.426 135.614  0.00  0.00    +0.000 OA
ATOM     27  C   UNL     1     109.806 129.541 137.304  0.00  0.00    +0.000 C 
ATOM     28  C   UNL     1     109.125 129.624 136.847  0.00  0.00    +0.000 C 
ATOM     29  C   UNL     1     109.112 129.343 136.072  0.00  0.00    +0.000 C 
ATOM     30  C   UNL     1     110.474 129.177 136.986  0.00  0.00    +0.000 C 
ATOM     31  C   UNL     1     109.780 128.979 135.754  0.00  0.00    +0.000 C 
ATOM     32  C   UNL     1     109.767 128.698 134.978  0.00  0.00    +0.000 C 
BRANCH  27  33
ATOM     33  O   UNL     1     109.820 129.822 138.080  0.00  0.00    +0.000 OA
BRANCH  33  38
ATOM     34  O   UNL     1     109.980 131.156 137.593  0.00  0.00    +0.000 OA
ATOM     35  O   UNL     1     109.927 130.374 139.631  0.00  0.00    +0.000 OA
ATOM     36  O   UNL     1     110.140 131.985 139.920  0.00  0.00    +0.000 OA
ATOM     37  O   UNL     1     110.247 133.042 138.659  0.00  0.00    +0.000 OA
ATOM     38  C   UNL     1     109.926 130.627 138.224  0.00  0.00    +0.000 C 
ATOM     39  C   UNL     1     109.980 130.904 139.000  0.00  0.00    +0.000 C 
ATOM     40  C   UNL     1     110.087 131.709 139.144  0.00  0.00    +0.000 C 
ATOM     41  C   UNL     1     110.140 132.237 138.514  0.00  0.00    +0.000 C 
ATOM     42  C   UNL     1     110.087 131.962 137.738  0.00  0.00    +0.000 C 
BRANCH  42  44
ATOM     43  O   UNL     1     110.832 132.532 136.662  0.00  0.00    +0.000 OA
ATOM     44  C   UNL     1     110.140 132.490 137.107  0.00  0.00    +0.000 C 
ENDBRANCH  42  44
ENDBRANCH  33  38
ENDBRANCH  27  33
ENDBRANCH   1  30
TORSDOF 7
ENDMDL
MODEL 9
REMARK VINA RESULT:      -9.8      1.565      3.909
REMARK  Name = 14238622
REMARK  7 active torsions:
REMARK  status: ('A' for Active; 'I' for Inactive)
REMARK    1  A    between atoms: O_1  and  C_17
REMARK    2  A    between atoms: O_1  and  C_19
REMARK    3  A    between atoms: O_4  and  C_23
REMARK    4  A    between atoms: O_4  and  C_29
REMARK    5  A    between atoms: O_15  and  C_41
REMARK    6  A    between atoms: C_26  and  C_27
REMARK    7  A    between atoms: C_30  and  C_33
REMARK                            x       y       z     vdW  Elec       q    Type
REMARK                         _______ _______ _______ _____ _____    ______ ____
ROOT
ATOM      1  O   UNL     1     112.516 127.922 137.051  0.00  0.00    +0.000 OA
ENDROOT
BRANCH   1   6
ATOM      2  O   UNL     1     113.771 129.680 137.363  0.00  0.00    +0.000 OA
ATOM      3  O   UNL     1     113.155 128.121 135.543  0.00  0.00    +0.000 OA
ATOM      4  O   UNL     1     114.000 128.828 134.612  0.00  0.00    +0.000 OA
ATOM      5  O   UNL     1     115.496 131.157 135.541  0.00  0.00    +0.000 OA
ATOM      6  C   UNL     1     113.041 128.541 136.904  0.00  0.00    +0.000 A 
ATOM      7  C   UNL     1     113.246 129.060 137.511  0.00  0.00    +0.000 A 
ATOM      8  C   UNL     1     113.360 128.640 136.149  0.00  0.00    +0.000 A 
ATOM      9  C   UNL     1     113.885 129.259 136.002  0.00  0.00    +0.000 A 
ATOM     10  C   UNL     1     114.090 129.780 136.610  0.00  0.00    +0.000 A 
ATOM     11  C   UNL     1     114.211 129.353 135.213  0.00  0.00    +0.000 A 
ATOM     12  C   UNL     1     114.636 130.428 136.469  0.00  0.00    +0.000 A 
ATOM     13  C   UNL     1     114.758 129.996 135.053  0.00  0.00    +0.000 A 
ATOM     14  C   UNL     1     114.972 130.537 135.685  0.00  0.00    +0.000 A 
BRANCH   7  16
ATOM     15  O   UNL     1     111.972 128.663 140.529  0.00  0.00    +0.000 OA
ATOM     16  C   UNL     1     112.927 128.961 138.265  0.00  0.00    +0.000 A 
ATOM     17  C   UNL     1     112.177 129.257 138.438  0.00  0.00    +0.000 A 
ATOM     18  C   UNL     1     113.359 128.566 138.846  0.00  0.00    +0.000 A 
ATOM     19  C   UNL     1     111.858 129.158 139.193  0.00  0.00    +0.000 A 
ATOM     20  C   UNL     1     113.041 128.466 139.601  0.00  0.00    +0.000 A 
ATOM     21  C   UNL     1     112.290 128.763 139.774  0.00  0.00    +0.000 A 
BRANCH  19  22
ATOM     22  O   UNL     1     111.108 129.454 139.366  0.00  0.00    +0.000 OA
ATOM     23  C   UNL     1     110.815 130.103 138.951  0.00  0.00    +0.000 C 
ENDBRANCH  19  22
ENDBRANCH   7  16
ENDBRANCH   1   6
BRANCH   1  30
ATOM     24  O   UNL     1     113.499 126.885 137.032  0.00  0.00    +0.000 OA
ATOM     25  O   UNL     1     111.851 125.341 136.019  0.00  0.00    +0.000 OA
ATOM     26  O   UNL     1     113.383 124.819 136.338  0.00  0.00    +0.000 OA
ATOM     27  C   UNL     1     112.183 126.631 136.535  0.00  0.00    +0.000 C 
ATOM     28  C   UNL     1     112.400 125.856 136.357  0.00  0.00    +0.000 C 
ATOM     29  C   UNL     1     113.165 125.595 136.516  0.00  0.00    +0.000 C 
ATOM     30  C   UNL     1     112.733 127.145 136.873  0.00  0.00    +0.000 C 
ATOM     31  C   UNL     1     113.715 126.109 136.854  0.00  0.00    +0.000 C 
ATOM     32  C   UNL     1     114.482 125.848 137.013  0.00  0.00    +0.000 C 
BRANCH  27  33
ATOM     33  O   UNL     1     111.417 126.893 136.376  0.00  0.00    +0.000 OA
BRANCH  33  38
ATOM     34  O   UNL     1     110.944 126.225 137.548  0.00  0.00    +0.000 OA
ATOM     35  O   UNL     1     109.910 127.516 136.123  0.00  0.00    +0.000 OA
ATOM     36  O   UNL     1     108.684 127.160 137.168  0.00  0.00    +0.000 OA
ATOM     37  O   UNL     1     108.965 126.181 138.466  0.00  0.00    +0.000 OA
ATOM     38  C   UNL     1     110.804 126.715 136.898  0.00  0.00    +0.000 C 
ATOM     39  C   UNL     1     110.051 127.026 136.772  0.00  0.00    +0.000 C 
ATOM     40  C   UNL     1     109.437 126.848 137.295  0.00  0.00    +0.000 C 
ATOM     41  C   UNL     1     109.578 126.359 137.943  0.00  0.00    +0.000 C 
ATOM     42  C   UNL     1     110.331 126.047 138.071  0.00  0.00    +0.000 C 
BRANCH  42  44
ATOM     43  O   UNL     1     110.942 125.823 139.342  0.00  0.00    +0.000 OA
ATOM     44  C   UNL     1     110.471 125.558 138.719  0.00  0.00    +0.000 C 
ENDBRANCH  42  44
ENDBRANCH  33  38
ENDBRANCH  27  33
ENDBRANCH   1  30
TORSDOF 7
ENDMDL
MODEL 10
REMARK VINA RESULT:      -9.7      1.596      3.846
REMARK  Name = 14238622
REMARK  7 active torsions:
REMARK  status: ('A' for Active; 'I' for Inactive)
REMARK    1  A    between atoms: O_1  and  C_17
REMARK    2  A    between atoms: O_1  and  C_19
REMARK    3  A    between atoms: O_4  and  C_23
REMARK    4  A    between atoms: O_4  and  C_29
REMARK    5  A    between atoms: O_15  and  C_41
REMARK    6  A    between atoms: C_26  and  C_27
REMARK    7  A    between atoms: C_30  and  C_33
REMARK                            x       y       z     vdW  Elec       q    Type
REMARK                         _______ _______ _______ _____ _____    ______ ____
ROOT
ATOM      1  O   UNL     1     111.452 127.263 137.073  0.00  0.00    +0.000 OA
ENDROOT
BRANCH   1   6
ATOM      2  O   UNL     1     113.539 126.798 137.509  0.00  0.00    +0.000 OA
ATOM      3  O   UNL     1     111.506 125.664 136.668  0.00  0.00    +0.000 OA
ATOM      4  O   UNL     1     112.222 124.419 136.533  0.00  0.00    +0.000 OA
ATOM      5  O   UNL     1     115.047 124.318 137.262  0.00  0.00    +0.000 OA
ATOM      6  C   UNL     1     112.157 126.842 137.151  0.00  0.00    +0.000 A 
ATOM      7  C   UNL     1     112.834 127.219 137.431  0.00  0.00    +0.000 A 
ATOM      8  C   UNL     1     112.183 126.042 136.948  0.00  0.00    +0.000 A 
ATOM      9  C   UNL     1     112.888 125.620 137.026  0.00  0.00    +0.000 A 
ATOM     10  C   UNL     1     113.567 125.998 137.307  0.00  0.00    +0.000 A 
ATOM     11  C   UNL     1     112.905 124.788 136.813  0.00  0.00    +0.000 A 
ATOM     12  C   UNL     1     114.307 125.570 137.392  0.00  0.00    +0.000 A 
ATOM     13  C   UNL     1     113.635 124.344 136.892  0.00  0.00    +0.000 A 
ATOM     14  C   UNL     1     114.341 124.737 137.183  0.00  0.00    +0.000 A 
BRANCH   7  16
ATOM     15  O   UNL     1     112.728 130.416 138.243  0.00  0.00    +0.000 OA
ATOM     16  C   UNL     1     112.808 128.019 137.633  0.00  0.00    +0.000 A 
ATOM     17  C   UNL     1     112.888 128.595 137.050  0.00  0.00    +0.000 A 
ATOM     18  C   UNL     1     112.701 128.241 138.421  0.00  0.00    +0.000 A 
ATOM     19  C   UNL     1     112.862 129.395 137.252  0.00  0.00    +0.000 A 
ATOM     20  C   UNL     1     112.675 129.040 138.624  0.00  0.00    +0.000 A 
ATOM     21  C   UNL     1     112.755 129.617 138.039  0.00  0.00    +0.000 A 
BRANCH  19  22
ATOM     22  O   UNL     1     112.942 129.972 136.668  0.00  0.00    +0.000 OA
ATOM     23  C   UNL     1     113.283 129.779 135.942  0.00  0.00    +0.000 C 
ENDBRANCH  19  22
ENDBRANCH   7  16
ENDBRANCH   1   6
BRANCH   1  30
ATOM     24  O   UNL     1     110.808 126.661 138.197  0.00  0.00    +0.000 OA
ATOM     25  O   UNL     1     108.626 126.841 137.042  0.00  0.00    +0.000 OA
ATOM     26  O   UNL     1     108.709 126.179 138.552  0.00  0.00    +0.000 OA
ATOM     27  C   UNL     1     110.038 127.052 137.058  0.00  0.00    +0.000 C 
ATOM     28  C   UNL     1     109.353 126.781 137.427  0.00  0.00    +0.000 C 
ATOM     29  C   UNL     1     109.394 126.450 138.181  0.00  0.00    +0.000 C 
ATOM     30  C   UNL     1     110.766 126.992 137.443  0.00  0.00    +0.000 C 
ATOM     31  C   UNL     1     110.122 126.390 138.566  0.00  0.00    +0.000 C 
ATOM     32  C   UNL     1     110.163 126.059 139.321  0.00  0.00    +0.000 C 
BRANCH  27  33
ATOM     33  O   UNL     1     109.998 127.383 136.303  0.00  0.00    +0.000 OA
BRANCH  33  38
ATOM     34  O   UNL     1     109.509 128.603 136.866  0.00  0.00    +0.000 OA
ATOM     35  O   UNL     1     109.974 128.066 134.801  0.00  0.00    +0.000 OA
ATOM     36  O   UNL     1     109.473 129.627 134.612  0.00  0.00    +0.000 OA
ATOM     37  O   UNL     1     108.996 130.505 135.925  0.00  0.00    +0.000 OA
ATOM     38  C   UNL     1     109.747 128.164 136.209  0.00  0.00    +0.000 C 
ATOM     39  C   UNL     1     109.735 128.505 135.458  0.00  0.00    +0.000 C 
ATOM     40  C   UNL     1     109.485 129.286 135.363  0.00  0.00    +0.000 C 
ATOM     41  C   UNL     1     109.247 129.724 136.020  0.00  0.00    +0.000 C 
ATOM     42  C   UNL     1     109.258 129.384 136.771  0.00  0.00    +0.000 C 
BRANCH  42  44
ATOM     43  O   UNL     1     109.568 130.022 138.010  0.00  0.00    +0.000 OA
ATOM     44  C   UNL     1     109.020 129.822 137.427  0.00  0.00    +0.000 C 
ENDBRANCH  42  44
ENDBRANCH  33  38
ENDBRANCH  27  33
ENDBRANCH   1  30
TORSDOF 7
ENDMDL
