MODEL 1
REMARK VINA RESULT:      -8.6      0.000      0.000
REMARK  Name = 44259613
REMARK  8 active torsions:
REMARK  status: ('A' for Active; 'I' for Inactive)
REMARK    1  A    between atoms: O_2  and  C_18
REMARK    2  A    between atoms: O_2  and  C_20
REMARK    3  A    between atoms: O_6  and  C_19
REMARK    4  A    between atoms: O_6  and  C_24
REMARK    5  A    between atoms: O_11  and  C_33
REMARK    6  A    between atoms: O_12  and  C_34
REMARK    7  A    between atoms: C_16  and  C_19
REMARK    8  A    between atoms: C_21  and  C_26
REMARK                            x       y       z     vdW  Elec       q    Type
REMARK                         _______ _______ _______ _____ _____    ______ ____
ROOT
ATOM      1  O   UNL     1     112.928 127.649 135.764  0.00  0.00    +0.000 OA
ATOM      2  O   UNL     1     112.520 128.909 137.856  0.00  0.00    +0.000 OA
ATOM      3  O   UNL     1     113.232 130.053 137.339  0.00  0.00    +0.000 OA
ATOM      4  C   UNL     1     112.369 127.720 137.078  0.00  0.00    +0.000 A 
ATOM      5  C   UNL     1     112.505 127.299 136.381  0.00  0.00    +0.000 A 
ATOM      6  C   UNL     1     112.656 128.489 137.158  0.00  0.00    +0.000 A 
ATOM      7  C   UNL     1     113.079 128.838 136.542  0.00  0.00    +0.000 A 
ATOM      8  C   UNL     1     113.215 128.418 135.846  0.00  0.00    +0.000 A 
ATOM      9  C   UNL     1     113.373 129.640 136.638  0.00  0.00    +0.000 A 
ATOM     10  C   UNL     1     113.654 128.770 135.195  0.00  0.00    +0.000 A 
ATOM     11  C   UNL     1     113.814 130.009 136.000  0.00  0.00    +0.000 A 
ATOM     12  C   UNL     1     113.955 129.571 135.274  0.00  0.00    +0.000 A 
ENDROOT
BRANCH   5  14
ATOM     13  O   UNL     1     111.353 124.223 136.059  0.00  0.00    +0.000 OA
ATOM     14  C   UNL     1     112.218 126.530 136.301  0.00  0.00    +0.000 A 
ATOM     15  C   UNL     1     111.551 126.386 135.835  0.00  0.00    +0.000 A 
ATOM     16  C   UNL     1     112.596 125.906 136.685  0.00  0.00    +0.000 A 
ATOM     17  C   UNL     1     111.264 125.617 135.755  0.00  0.00    +0.000 A 
ATOM     18  C   UNL     1     112.307 125.137 136.605  0.00  0.00    +0.000 A 
ATOM     19  C   UNL     1     111.642 124.992 136.140  0.00  0.00    +0.000 A 
BRANCH  17  20
ATOM     20  O   UNL     1     110.597 125.472 135.290  0.00  0.00    +0.000 OA
ATOM     21  C   UNL     1     110.461 125.924 134.613  0.00  0.00    +0.000 C 
ENDBRANCH  17  20
ENDBRANCH   5  14
BRANCH  12  22
ATOM     22  O   UNL     1     114.378 129.918 134.656  0.00  0.00    +0.000 OA
ATOM     23  C   UNL     1     115.200 129.853 134.631  0.00  0.00    +0.000 C 
ENDBRANCH  12  22
BRANCH   4  24
ATOM     24  O   UNL     1     111.946 127.370 137.695  0.00  0.00    +0.000 OA
BRANCH  24  33
ATOM     25  O   UNL     1     110.748 128.113 137.461  0.00  0.00    +0.000 OA
ATOM     26  O   UNL     1     109.207 128.811 138.840  0.00  0.00    +0.000 OA
ATOM     27  O   UNL     1     110.234 128.045 139.881  0.00  0.00    +0.000 OA
ATOM     28  O   UNL     1     111.603 127.325 139.308  0.00  0.00    +0.000 OA
ATOM     29  C   UNL     1     109.892 128.450 138.554  0.00  0.00    +0.000 C 
ATOM     30  C   UNL     1     110.405 128.068 139.074  0.00  0.00    +0.000 C 
ATOM     31  C   UNL     1     110.064 128.473 137.747  0.00  0.00    +0.000 C 
ATOM     32  C   UNL     1     111.091 127.708 138.787  0.00  0.00    +0.000 C 
ATOM     33  C   UNL     1     111.262 127.730 137.981  0.00  0.00    +0.000 C 
BRANCH  31  34
ATOM     34  C   UNL     1     109.550 128.856 137.227  0.00  0.00    +0.000 C 
BRANCH  34  35
ATOM     35  O   UNL     1     109.345 128.500 136.512  0.00  0.00    +0.000 OA
BRANCH  35  37
ATOM     36  O   UNL     1     108.113 128.854 135.881  0.00  0.00    +0.000 OA
ATOM     37  C   UNL     1     108.932 128.929 135.941  0.00  0.00    +0.000 C 
ATOM     38  C   UNL     1     109.338 129.432 135.429  0.00  0.00    +0.000 C 
ENDBRANCH  35  37
ENDBRANCH  34  35
ENDBRANCH  31  34
ENDBRANCH  24  33
ENDBRANCH   4  24
TORSDOF 8
ENDMDL
MODEL 2
REMARK VINA RESULT:      -8.5      1.827      3.326
REMARK  Name = 44259613
REMARK  8 active torsions:
REMARK  status: ('A' for Active; 'I' for Inactive)
REMARK    1  A    between atoms: O_2  and  C_18
REMARK    2  A    between atoms: O_2  and  C_20
REMARK    3  A    between atoms: O_6  and  C_19
REMARK    4  A    between atoms: O_6  and  C_24
REMARK    5  A    between atoms: O_11  and  C_33
REMARK    6  A    between atoms: O_12  and  C_34
REMARK    7  A    between atoms: C_16  and  C_19
REMARK    8  A    between atoms: C_21  and  C_26
REMARK                            x       y       z     vdW  Elec       q    Type
REMARK                         _______ _______ _______ _____ _____    ______ ____
ROOT
ATOM      1  O   UNL     1     112.954 127.480 136.836  0.00  0.00    +0.000 OA
ATOM      2  O   UNL     1     111.237 128.147 138.490  0.00  0.00    +0.000 OA
ATOM      3  O   UNL     1     111.531 129.543 138.275  0.00  0.00    +0.000 OA
ATOM      4  C   UNL     1     111.940 127.126 137.779  0.00  0.00    +0.000 A 
ATOM      5  C   UNL     1     112.512 126.904 137.228  0.00  0.00    +0.000 A 
ATOM      6  C   UNL     1     111.810 127.925 137.938  0.00  0.00    +0.000 A 
ATOM      7  C   UNL     1     112.251 128.501 137.547  0.00  0.00    +0.000 A 
ATOM      8  C   UNL     1     112.823 128.279 136.996  0.00  0.00    +0.000 A 
ATOM      9  C   UNL     1     112.106 129.330 137.722  0.00  0.00    +0.000 A 
ATOM     10  C   UNL     1     113.290 128.870 136.581  0.00  0.00    +0.000 A 
ATOM     11  C   UNL     1     112.562 129.935 137.318  0.00  0.00    +0.000 A 
ATOM     12  C   UNL     1     113.159 129.703 136.743  0.00  0.00    +0.000 A 
ENDROOT
BRANCH   5  14
ATOM     13  O   UNL     1     113.035 123.708 136.593  0.00  0.00    +0.000 OA
ATOM     14  C   UNL     1     112.642 126.105 137.069  0.00  0.00    +0.000 A 
ATOM     15  C   UNL     1     113.315 125.729 137.367  0.00  0.00    +0.000 A 
ATOM     16  C   UNL     1     112.102 125.681 136.612  0.00  0.00    +0.000 A 
ATOM     17  C   UNL     1     113.445 124.930 137.208  0.00  0.00    +0.000 A 
ATOM     18  C   UNL     1     112.233 124.882 136.454  0.00  0.00    +0.000 A 
ATOM     19  C   UNL     1     112.904 124.507 136.751  0.00  0.00    +0.000 A 
BRANCH  17  20
ATOM     20  O   UNL     1     114.117 124.555 137.506  0.00  0.00    +0.000 OA
ATOM     21  C   UNL     1     114.818 124.979 137.603  0.00  0.00    +0.000 C 
ENDBRANCH  17  20
ENDBRANCH   5  14
BRANCH  12  22
ATOM     22  O   UNL     1     113.602 130.278 136.350  0.00  0.00    +0.000 OA
ATOM     23  C   UNL     1     114.277 130.592 136.705  0.00  0.00    +0.000 C 
ENDBRANCH  12  22
BRANCH   4  24
ATOM     24  O   UNL     1     111.498 126.550 138.171  0.00  0.00    +0.000 OA
BRANCH  24  33
ATOM     25  O   UNL     1     112.175 126.759 139.412  0.00  0.00    +0.000 OA
ATOM     26  O   UNL     1     111.534 126.400 141.467  0.00  0.00    +0.000 OA
ATOM     27  O   UNL     1     110.198 125.906 140.634  0.00  0.00    +0.000 OA
ATOM     28  O   UNL     1     110.180 125.981 138.985  0.00  0.00    +0.000 OA
ATOM     29  C   UNL     1     111.525 126.438 140.643  0.00  0.00    +0.000 C 
ATOM     30  C   UNL     1     110.857 126.191 140.226  0.00  0.00    +0.000 C 
ATOM     31  C   UNL     1     112.184 126.722 140.235  0.00  0.00    +0.000 C 
ATOM     32  C   UNL     1     110.848 126.228 139.402  0.00  0.00    +0.000 C 
ATOM     33  C   UNL     1     111.507 126.512 138.994  0.00  0.00    +0.000 C 
BRANCH  31  34
ATOM     34  C   UNL     1     112.851 126.969 140.653  0.00  0.00    +0.000 C 
BRANCH  34  35
ATOM     35  O   UNL     1     113.604 126.843 140.341  0.00  0.00    +0.000 OA
BRANCH  35  37
ATOM     36  O   UNL     1     114.802 126.718 141.109  0.00  0.00    +0.000 OA
ATOM     37  C   UNL     1     114.263 127.188 140.698  0.00  0.00    +0.000 C 
ATOM     38  C   UNL     1     114.382 128.002 140.645  0.00  0.00    +0.000 C 
ENDBRANCH  35  37
ENDBRANCH  34  35
ENDBRANCH  31  34
ENDBRANCH  24  33
ENDBRANCH   4  24
TORSDOF 8
ENDMDL
MODEL 3
REMARK VINA RESULT:      -8.5      1.816      3.802
REMARK  Name = 44259613
REMARK  8 active torsions:
REMARK  status: ('A' for Active; 'I' for Inactive)
REMARK    1  A    between atoms: O_2  and  C_18
REMARK    2  A    between atoms: O_2  and  C_20
REMARK    3  A    between atoms: O_6  and  C_19
REMARK    4  A    between atoms: O_6  and  C_24
REMARK    5  A    between atoms: O_11  and  C_33
REMARK    6  A    between atoms: O_12  and  C_34
REMARK    7  A    between atoms: C_16  and  C_19
REMARK    8  A    between atoms: C_21  and  C_26
REMARK                            x       y       z     vdW  Elec       q    Type
REMARK                         _______ _______ _______ _____ _____    ______ ____
ROOT
ATOM      1  O   UNL     1     112.015 128.398 138.456  0.00  0.00    +0.000 OA
ATOM      2  O   UNL     1     113.830 127.500 137.032  0.00  0.00    +0.000 OA
ATOM      3  O   UNL     1     113.697 128.607 136.115  0.00  0.00    +0.000 OA
ATOM      4  C   UNL     1     112.999 127.396 138.190  0.00  0.00    +0.000 A 
ATOM      5  C   UNL     1     112.394 127.695 138.665  0.00  0.00    +0.000 A 
ATOM      6  C   UNL     1     113.225 127.800 137.507  0.00  0.00    +0.000 A 
ATOM      7  C   UNL     1     112.846 128.502 137.298  0.00  0.00    +0.000 A 
ATOM      8  C   UNL     1     112.242 128.801 137.773  0.00  0.00    +0.000 A 
ATOM      9  C   UNL     1     113.091 128.913 136.584  0.00  0.00    +0.000 A 
ATOM     10  C   UNL     1     111.839 129.533 137.567  0.00  0.00    +0.000 A 
ATOM     11  C   UNL     1     112.701 129.645 136.362  0.00  0.00    +0.000 A 
ATOM     12  C   UNL     1     112.070 129.957 136.856  0.00  0.00    +0.000 A 
ENDROOT
BRANCH   5  14
ATOM     13  O   UNL     1     111.489 126.079 141.396  0.00  0.00    +0.000 OA
ATOM     14  C   UNL     1     112.168 127.292 139.348  0.00  0.00    +0.000 A 
ATOM     15  C   UNL     1     111.473 126.846 139.352  0.00  0.00    +0.000 A 
ATOM     16  C   UNL     1     112.636 127.333 140.026  0.00  0.00    +0.000 A 
ATOM     17  C   UNL     1     111.247 126.442 140.035  0.00  0.00    +0.000 A 
ATOM     18  C   UNL     1     112.409 126.928 140.708  0.00  0.00    +0.000 A 
ATOM     19  C   UNL     1     111.716 126.483 140.713  0.00  0.00    +0.000 A 
BRANCH  17  20
ATOM     20  O   UNL     1     110.552 125.996 140.040  0.00  0.00    +0.000 OA
ATOM     21  C   UNL     1     109.881 126.275 139.649  0.00  0.00    +0.000 C 
ENDBRANCH  17  20
ENDBRANCH   5  14
BRANCH  12  22
ATOM     22  O   UNL     1     111.689 130.660 136.650  0.00  0.00    +0.000 OA
ATOM     23  C   UNL     1     111.865 131.358 137.054  0.00  0.00    +0.000 C 
ENDBRANCH  12  22
BRANCH   4  24
ATOM     24  O   UNL     1     113.378 126.693 138.398  0.00  0.00    +0.000 OA
BRANCH  24  33
ATOM     25  O   UNL     1     112.760 125.944 137.350  0.00  0.00    +0.000 OA
ATOM     26  O   UNL     1     113.424 124.155 136.290  0.00  0.00    +0.000 OA
ATOM     27  O   UNL     1     114.682 124.384 137.333  0.00  0.00    +0.000 OA
ATOM     28  O   UNL     1     114.659 125.653 138.387  0.00  0.00    +0.000 OA
ATOM     29  C   UNL     1     113.412 124.790 136.817  0.00  0.00    +0.000 C 
ATOM     30  C   UNL     1     114.041 124.904 137.338  0.00  0.00    +0.000 C 
ATOM     31  C   UNL     1     112.771 125.310 136.823  0.00  0.00    +0.000 C 
ATOM     32  C   UNL     1     114.030 125.539 137.866  0.00  0.00    +0.000 C 
ATOM     33  C   UNL     1     113.389 126.059 137.872  0.00  0.00    +0.000 C 
BRANCH  31  34
ATOM     34  C   UNL     1     112.143 125.195 136.301  0.00  0.00    +0.000 C 
BRANCH  34  35
ATOM     35  O   UNL     1     111.372 125.366 136.539  0.00  0.00    +0.000 OA
BRANCH  35  37
ATOM     36  O   UNL     1     110.691 124.821 135.408  0.00  0.00    +0.000 OA
ATOM     37  C   UNL     1     110.767 125.411 135.980  0.00  0.00    +0.000 C 
ATOM     38  C   UNL     1     110.239 126.043 135.992  0.00  0.00    +0.000 C 
ENDBRANCH  35  37
ENDBRANCH  34  35
ENDBRANCH  31  34
ENDBRANCH  24  33
ENDBRANCH   4  24
TORSDOF 8
ENDMDL
MODEL 4
REMARK VINA RESULT:      -8.4      2.088      3.899
REMARK  Name = 44259613
REMARK  8 active torsions:
REMARK  status: ('A' for Active; 'I' for Inactive)
REMARK    1  A    between atoms: O_2  and  C_18
REMARK    2  A    between atoms: O_2  and  C_20
REMARK    3  A    between atoms: O_6  and  C_19
REMARK    4  A    between atoms: O_6  and  C_24
REMARK    5  A    between atoms: O_11  and  C_33
REMARK    6  A    between atoms: O_12  and  C_34
REMARK    7  A    between atoms: C_16  and  C_19
REMARK    8  A    between atoms: C_21  and  C_26
REMARK                            x       y       z     vdW  Elec       q    Type
REMARK                         _______ _______ _______ _____ _____    ______ ____
ROOT
ATOM      1  O   UNL     1     113.746 126.218 138.517  0.00  0.00    +0.000 OA
ATOM      2  O   UNL     1     111.674 124.986 137.951  0.00  0.00    +0.000 OA
ATOM      3  O   UNL     1     112.344 124.296 136.876  0.00  0.00    +0.000 OA
ATOM      4  C   UNL     1     112.366 125.937 138.764  0.00  0.00    +0.000 A 
ATOM      5  C   UNL     1     113.057 126.348 138.952  0.00  0.00    +0.000 A 
ATOM      6  C   UNL     1     112.365 125.397 138.140  0.00  0.00    +0.000 A 
ATOM      7  C   UNL     1     113.054 125.268 137.705  0.00  0.00    +0.000 A 
ATOM      8  C   UNL     1     113.744 125.678 137.893  0.00  0.00    +0.000 A 
ATOM      9  C   UNL     1     113.039 124.703 137.057  0.00  0.00    +0.000 A 
ATOM     10  C   UNL     1     114.469 125.552 137.447  0.00  0.00    +0.000 A 
ATOM     11  C   UNL     1     113.753 124.563 136.600  0.00  0.00    +0.000 A 
ATOM     12  C   UNL     1     114.473 124.991 136.797  0.00  0.00    +0.000 A 
ENDROOT
BRANCH   5  14
ATOM     13  O   UNL     1     113.061 128.509 141.446  0.00  0.00    +0.000 OA
ATOM     14  C   UNL     1     113.058 126.887 139.576  0.00  0.00    +0.000 A 
ATOM     15  C   UNL     1     113.057 127.698 139.419  0.00  0.00    +0.000 A 
ATOM     16  C   UNL     1     113.060 126.618 140.356  0.00  0.00    +0.000 A 
ATOM     17  C   UNL     1     113.058 128.238 140.043  0.00  0.00    +0.000 A 
ATOM     18  C   UNL     1     113.060 127.159 140.979  0.00  0.00    +0.000 A 
ATOM     19  C   UNL     1     113.060 127.968 140.823  0.00  0.00    +0.000 A 
BRANCH  17  20
ATOM     20  O   UNL     1     113.058 129.048 139.887  0.00  0.00    +0.000 OA
ATOM     21  C   UNL     1     113.461 129.342 139.230  0.00  0.00    +0.000 C 
ENDBRANCH  17  20
ENDBRANCH   5  14
BRANCH  12  22
ATOM     22  O   UNL     1     115.163 124.864 136.363  0.00  0.00    +0.000 OA
ATOM     23  C   UNL     1     115.360 125.370 135.742  0.00  0.00    +0.000 C 
ENDBRANCH  12  22
BRANCH   4  24
ATOM     24  O   UNL     1     111.677 126.066 139.199  0.00  0.00    +0.000 OA
BRANCH  24  33
ATOM     25  O   UNL     1     111.038 126.815 138.163  0.00  0.00    +0.000 OA
ATOM     26  O   UNL     1     108.925 127.062 137.674  0.00  0.00    +0.000 OA
ATOM     27  O   UNL     1     108.827 126.063 138.984  0.00  0.00    +0.000 OA
ATOM     28  O   UNL     1     110.204 125.565 139.746  0.00  0.00    +0.000 OA
ATOM     29  C   UNL     1     109.614 126.813 138.055  0.00  0.00    +0.000 C 
ATOM     30  C   UNL     1     109.564 126.314 138.710  0.00  0.00    +0.000 C 
ATOM     31  C   UNL     1     110.351 127.064 137.782  0.00  0.00    +0.000 C 
ATOM     32  C   UNL     1     110.253 126.065 139.091  0.00  0.00    +0.000 C 
ATOM     33  C   UNL     1     110.990 126.315 138.818  0.00  0.00    +0.000 C 
BRANCH  31  34
ATOM     34  C   UNL     1     110.399 127.563 137.127  0.00  0.00    +0.000 C 
BRANCH  34  35
ATOM     35  O   UNL     1     110.961 128.166 137.108  0.00  0.00    +0.000 OA
BRANCH  35  37
ATOM     36  O   UNL     1     110.599 129.236 136.233  0.00  0.00    +0.000 OA
ATOM     37  C   UNL     1     111.085 128.594 136.413  0.00  0.00    +0.000 C 
ATOM     38  C   UNL     1     111.692 128.380 135.899  0.00  0.00    +0.000 C 
ENDBRANCH  35  37
ENDBRANCH  34  35
ENDBRANCH  31  34
ENDBRANCH  24  33
ENDBRANCH   4  24
TORSDOF 8
ENDMDL
MODEL 5
REMARK VINA RESULT:      -8.4      1.307      3.094
REMARK  Name = 44259613
REMARK  8 active torsions:
REMARK  status: ('A' for Active; 'I' for Inactive)
REMARK    1  A    between atoms: O_2  and  C_18
REMARK    2  A    between atoms: O_2  and  C_20
REMARK    3  A    between atoms: O_6  and  C_19
REMARK    4  A    between atoms: O_6  and  C_24
REMARK    5  A    between atoms: O_11  and  C_33
REMARK    6  A    between atoms: O_12  and  C_34
REMARK    7  A    between atoms: C_16  and  C_19
REMARK    8  A    between atoms: C_21  and  C_26
REMARK                            x       y       z     vdW  Elec       q    Type
REMARK                         _______ _______ _______ _____ _____    ______ ____
ROOT
ATOM      1  O   UNL     1     111.779 128.847 135.612  0.00  0.00    +0.000 OA
ATOM      2  O   UNL     1     112.819 126.786 136.509  0.00  0.00    +0.000 OA
ATOM      3  O   UNL     1     114.140 127.306 136.250  0.00  0.00    +0.000 OA
ATOM      4  C   UNL     1     111.651 127.547 136.194  0.00  0.00    +0.000 A 
ATOM      5  C   UNL     1     111.304 128.234 135.895  0.00  0.00    +0.000 A 
ATOM      6  C   UNL     1     112.472 127.474 136.210  0.00  0.00    +0.000 A 
ATOM      7  C   UNL     1     112.947 128.086 135.927  0.00  0.00    +0.000 A 
ATOM      8  C   UNL     1     112.601 128.772 135.628  0.00  0.00    +0.000 A 
ATOM      9  C   UNL     1     113.802 127.996 135.949  0.00  0.00    +0.000 A 
ATOM     10  C   UNL     1     113.085 129.417 135.330  0.00  0.00    +0.000 A 
ATOM     11  C   UNL     1     114.302 128.630 135.656  0.00  0.00    +0.000 A 
ATOM     12  C   UNL     1     113.941 129.346 135.345  0.00  0.00    +0.000 A 
ENDROOT
BRANCH   5  14
ATOM     13  O   UNL     1     108.018 128.531 135.833  0.00  0.00    +0.000 OA
ATOM     14  C   UNL     1     110.483 128.308 135.879  0.00  0.00    +0.000 A 
ATOM     15  C   UNL     1     110.101 128.789 136.431  0.00  0.00    +0.000 A 
ATOM     16  C   UNL     1     110.043 127.902 135.312  0.00  0.00    +0.000 A 
ATOM     17  C   UNL     1     109.280 128.863 136.415  0.00  0.00    +0.000 A 
ATOM     18  C   UNL     1     109.221 127.976 135.297  0.00  0.00    +0.000 A 
ATOM     19  C   UNL     1     108.840 128.456 135.848  0.00  0.00    +0.000 A 
BRANCH  17  20
ATOM     20  O   UNL     1     108.899 129.344 136.967  0.00  0.00    +0.000 OA
ATOM     21  C   UNL     1     109.245 130.054 137.205  0.00  0.00    +0.000 C 
ENDBRANCH  17  20
ENDBRANCH   5  14
BRANCH  12  22
ATOM     22  O   UNL     1     114.414 129.960 135.061  0.00  0.00    +0.000 OA
ATOM     23  C   UNL     1     114.745 130.502 135.587  0.00  0.00    +0.000 C 
ENDBRANCH  12  22
BRANCH   4  24
ATOM     24  O   UNL     1     111.176 126.935 136.477  0.00  0.00    +0.000 OA
BRANCH  24  33
ATOM     25  O   UNL     1     111.466 127.202 137.850  0.00  0.00    +0.000 OA
ATOM     26  O   UNL     1     111.526 125.874 139.582  0.00  0.00    +0.000 OA
ATOM     27  O   UNL     1     111.122 124.810 138.387  0.00  0.00    +0.000 OA
ATOM     28  O   UNL     1     110.946 125.341 136.835  0.00  0.00    +0.000 OA
ATOM     29  C   UNL     1     111.439 126.140 138.805  0.00  0.00    +0.000 C 
ATOM     30  C   UNL     1     111.236 125.607 138.208  0.00  0.00    +0.000 C 
ATOM     31  C   UNL     1     111.553 126.937 138.626  0.00  0.00    +0.000 C 
ATOM     32  C   UNL     1     111.149 125.873 137.431  0.00  0.00    +0.000 C 
ATOM     33  C   UNL     1     111.263 126.670 137.252  0.00  0.00    +0.000 C 
BRANCH  31  34
ATOM     34  C   UNL     1     111.756 127.468 139.224  0.00  0.00    +0.000 C 
BRANCH  34  35
ATOM     35  O   UNL     1     111.445 128.232 139.220  0.00  0.00    +0.000 OA
BRANCH  35  37
ATOM     36  O   UNL     1     111.414 128.841 140.512  0.00  0.00    +0.000 OA
ATOM     37  C   UNL     1     111.729 128.796 139.751  0.00  0.00    +0.000 C 
ATOM     38  C   UNL     1     112.328 129.315 139.522  0.00  0.00    +0.000 C 
ENDBRANCH  35  37
ENDBRANCH  34  35
ENDBRANCH  31  34
ENDBRANCH  24  33
ENDBRANCH   4  24
TORSDOF 8
ENDMDL
MODEL 6
REMARK VINA RESULT:      -8.4      0.954      2.367
REMARK  Name = 44259613
REMARK  8 active torsions:
REMARK  status: ('A' for Active; 'I' for Inactive)
REMARK    1  A    between atoms: O_2  and  C_18
REMARK    2  A    between atoms: O_2  and  C_20
REMARK    3  A    between atoms: O_6  and  C_19
REMARK    4  A    between atoms: O_6  and  C_24
REMARK    5  A    between atoms: O_11  and  C_33
REMARK    6  A    between atoms: O_12  and  C_34
REMARK    7  A    between atoms: C_16  and  C_19
REMARK    8  A    between atoms: C_21  and  C_26
REMARK                            x       y       z     vdW  Elec       q    Type
REMARK                         _______ _______ _______ _____ _____    ______ ____
ROOT
ATOM      1  O   UNL     1     112.386 128.040 135.388  0.00  0.00    +0.000 OA
ATOM      2  O   UNL     1     111.550 129.715 137.009  0.00  0.00    +0.000 OA
ATOM      3  O   UNL     1     112.799 130.434 136.952  0.00  0.00    +0.000 OA
ATOM      4  C   UNL     1     111.344 128.530 136.236  0.00  0.00    +0.000 A 
ATOM      5  C   UNL     1     111.623 127.972 135.695  0.00  0.00    +0.000 A 
ATOM      6  C   UNL     1     111.829 129.156 136.468  0.00  0.00    +0.000 A 
ATOM      7  C   UNL     1     112.592 129.224 136.161  0.00  0.00    +0.000 A 
ATOM      8  C   UNL     1     112.870 128.666 135.621  0.00  0.00    +0.000 A 
ATOM      9  C   UNL     1     113.086 129.881 136.412  0.00  0.00    +0.000 A 
ATOM     10  C   UNL     1     113.663 128.725 135.294  0.00  0.00    +0.000 A 
ATOM     11  C   UNL     1     113.881 129.957 136.096  0.00  0.00    +0.000 A 
ATOM     12  C   UNL     1     114.172 129.375 135.533  0.00  0.00    +0.000 A 
ENDROOT
BRANCH   5  14
ATOM     13  O   UNL     1     109.685 125.467 134.766  0.00  0.00    +0.000 OA
ATOM     14  C   UNL     1     111.138 127.346 135.462  0.00  0.00    +0.000 A 
ATOM     15  C   UNL     1     111.265 126.590 135.769  0.00  0.00    +0.000 A 
ATOM     16  C   UNL     1     110.527 127.476 134.924  0.00  0.00    +0.000 A 
ATOM     17  C   UNL     1     110.781 125.965 135.537  0.00  0.00    +0.000 A 
ATOM     18  C   UNL     1     110.043 126.849 134.692  0.00  0.00    +0.000 A 
ATOM     19  C   UNL     1     110.169 126.094 134.998  0.00  0.00    +0.000 A 
BRANCH  17  20
ATOM     20  O   UNL     1     110.908 125.209 135.844  0.00  0.00    +0.000 OA
ATOM     21  C   UNL     1     111.665 124.980 136.076  0.00  0.00    +0.000 C 
ENDBRANCH  17  20
ENDBRANCH   5  14
BRANCH  12  22
ATOM     22  O   UNL     1     114.934 129.440 135.224  0.00  0.00    +0.000 OA
ATOM     23  C   UNL     1     115.087 129.972 134.612  0.00  0.00    +0.000 C 
ENDBRANCH  12  22
BRANCH   4  24
ATOM     24  O   UNL     1     110.582 128.463 136.543  0.00  0.00    +0.000 OA
BRANCH  24  33
ATOM     25  O   UNL     1     111.022 128.047 137.837  0.00  0.00    +0.000 OA
ATOM     26  O   UNL     1     110.124 128.321 139.808  0.00  0.00    +0.000 OA
ATOM     27  O   UNL     1     109.015 129.081 138.851  0.00  0.00    +0.000 OA
ATOM     28  O   UNL     1     109.243 129.152 137.219  0.00  0.00    +0.000 OA
ATOM     29  C   UNL     1     110.239 128.356 138.991  0.00  0.00    +0.000 C 
ATOM     30  C   UNL     1     109.684 128.736 138.513  0.00  0.00    +0.000 C 
ATOM     31  C   UNL     1     110.908 128.012 138.653  0.00  0.00    +0.000 C 
ATOM     32  C   UNL     1     109.798 128.772 137.696  0.00  0.00    +0.000 C 
ATOM     33  C   UNL     1     110.467 128.427 137.358  0.00  0.00    +0.000 C 
BRANCH  31  34
ATOM     34  C   UNL     1     111.462 127.632 139.132  0.00  0.00    +0.000 C 
BRANCH  34  35
ATOM     35  O   UNL     1     111.781 126.908 138.900  0.00  0.00    +0.000 OA
BRANCH  35  37
ATOM     36  O   UNL     1     112.250 126.101 139.981  0.00  0.00    +0.000 OA
ATOM     37  C   UNL     1     112.406 126.576 139.325  0.00  0.00    +0.000 C 
ATOM     38  C   UNL     1     113.184 126.720 139.096  0.00  0.00    +0.000 C 
ENDBRANCH  35  37
ENDBRANCH  34  35
ENDBRANCH  31  34
ENDBRANCH  24  33
ENDBRANCH   4  24
TORSDOF 8
ENDMDL
MODEL 7
REMARK VINA RESULT:      -8.4      1.923      2.554
REMARK  Name = 44259613
REMARK  8 active torsions:
REMARK  status: ('A' for Active; 'I' for Inactive)
REMARK    1  A    between atoms: O_2  and  C_18
REMARK    2  A    between atoms: O_2  and  C_20
REMARK    3  A    between atoms: O_6  and  C_19
REMARK    4  A    between atoms: O_6  and  C_24
REMARK    5  A    between atoms: O_11  and  C_33
REMARK    6  A    between atoms: O_12  and  C_34
REMARK    7  A    between atoms: C_16  and  C_19
REMARK    8  A    between atoms: C_21  and  C_26
REMARK                            x       y       z     vdW  Elec       q    Type
REMARK                         _______ _______ _______ _____ _____    ______ ____
ROOT
ATOM      1  O   UNL     1     112.969 127.098 136.470  0.00  0.00    +0.000 OA
ATOM      2  O   UNL     1     112.983 128.384 138.586  0.00  0.00    +0.000 OA
ATOM      3  O   UNL     1     112.550 129.576 137.898  0.00  0.00    +0.000 OA
ATOM      4  C   UNL     1     113.191 127.158 137.881  0.00  0.00    +0.000 A 
ATOM      5  C   UNL     1     113.186 126.730 137.175  0.00  0.00    +0.000 A 
ATOM      6  C   UNL     1     112.978 127.955 137.880  0.00  0.00    +0.000 A 
ATOM      7  C   UNL     1     112.761 128.324 137.175  0.00  0.00    +0.000 A 
ATOM      8  C   UNL     1     112.757 127.896 136.470  0.00  0.00    +0.000 A 
ATOM      9  C   UNL     1     112.542 129.155 137.188  0.00  0.00    +0.000 A 
ATOM     10  C   UNL     1     112.532 128.268 135.728  0.00  0.00    +0.000 A 
ATOM     11  C   UNL     1     112.315 129.545 136.457  0.00  0.00    +0.000 A 
ATOM     12  C   UNL     1     112.310 129.098 135.722  0.00  0.00    +0.000 A 
ENDROOT
BRANCH   5  14
ATOM     13  O   UNL     1     114.033 123.540 137.179  0.00  0.00    +0.000 OA
ATOM     14  C   UNL     1     113.398 125.933 137.176  0.00  0.00    +0.000 A 
ATOM     15  C   UNL     1     112.819 125.352 137.086  0.00  0.00    +0.000 A 
ATOM     16  C   UNL     1     114.189 125.716 137.267  0.00  0.00    +0.000 A 
ATOM     17  C   UNL     1     113.031 124.554 137.087  0.00  0.00    +0.000 A 
ATOM     18  C   UNL     1     114.400 124.918 137.268  0.00  0.00    +0.000 A 
ATOM     19  C   UNL     1     113.822 124.338 137.178  0.00  0.00    +0.000 A 
BRANCH  17  20
ATOM     20  O   UNL     1     112.451 123.973 136.996  0.00  0.00    +0.000 OA
ATOM     21  C   UNL     1     111.828 124.091 136.468  0.00  0.00    +0.000 C 
ENDBRANCH  17  20
ENDBRANCH   5  14
BRANCH  12  22
ATOM     22  O   UNL     1     112.094 129.465 135.015  0.00  0.00    +0.000 OA
ATOM     23  C   UNL     1     111.303 129.473 134.780  0.00  0.00    +0.000 C 
ENDBRANCH  12  22
BRANCH   4  24
ATOM     24  O   UNL     1     113.408 126.789 138.586  0.00  0.00    +0.000 OA
BRANCH  24  33
ATOM     25  O   UNL     1     112.071 126.741 139.089  0.00  0.00    +0.000 OA
ATOM     26  O   UNL     1     111.314 126.743 141.136  0.00  0.00    +0.000 OA
ATOM     27  O   UNL     1     112.940 126.817 141.406  0.00  0.00    +0.000 OA
ATOM     28  O   UNL     1     113.987 126.840 140.130  0.00  0.00    +0.000 OA
ATOM     29  C   UNL     1     111.838 126.754 140.498  0.00  0.00    +0.000 C 
ATOM     30  C   UNL     1     112.650 126.791 140.633  0.00  0.00    +0.000 C 
ATOM     31  C   UNL     1     111.548 126.729 139.726  0.00  0.00    +0.000 C 
ATOM     32  C   UNL     1     113.174 126.803 139.995  0.00  0.00    +0.000 C 
ATOM     33  C   UNL     1     112.885 126.778 139.223  0.00  0.00    +0.000 C 
BRANCH  31  34
ATOM     34  C   UNL     1     110.735 126.692 139.592  0.00  0.00    +0.000 C 
BRANCH  34  35
ATOM     35  O   UNL     1     110.433 126.184 139.017  0.00  0.00    +0.000 OA
BRANCH  35  37
ATOM     36  O   UNL     1     109.030 126.110 139.273  0.00  0.00    +0.000 OA
ATOM     37  C   UNL     1     109.655 126.269 138.758  0.00  0.00    +0.000 C 
ATOM     38  C   UNL     1     109.500 126.511 137.985  0.00  0.00    +0.000 C 
ENDBRANCH  35  37
ENDBRANCH  34  35
ENDBRANCH  31  34
ENDBRANCH  24  33
ENDBRANCH   4  24
TORSDOF 8
ENDMDL
MODEL 8
REMARK VINA RESULT:      -8.4      0.999      4.059
REMARK  Name = 44259613
REMARK  8 active torsions:
REMARK  status: ('A' for Active; 'I' for Inactive)
REMARK    1  A    between atoms: O_2  and  C_18
REMARK    2  A    between atoms: O_2  and  C_20
REMARK    3  A    between atoms: O_6  and  C_19
REMARK    4  A    between atoms: O_6  and  C_24
REMARK    5  A    between atoms: O_11  and  C_33
REMARK    6  A    between atoms: O_12  and  C_34
REMARK    7  A    between atoms: C_16  and  C_19
REMARK    8  A    between atoms: C_21  and  C_26
REMARK                            x       y       z     vdW  Elec       q    Type
REMARK                         _______ _______ _______ _____ _____    ______ ____
ROOT
ATOM      1  O   UNL     1     112.739 126.816 136.457  0.00  0.00    +0.000 OA
ATOM      2  O   UNL     1     110.540 126.958 135.329  0.00  0.00    +0.000 OA
ATOM      3  O   UNL     1     110.369 125.528 135.421  0.00  0.00    +0.000 OA
ATOM      4  C   UNL     1     111.712 127.596 135.841  0.00  0.00    +0.000 A 
ATOM      5  C   UNL     1     112.445 127.548 136.217  0.00  0.00    +0.000 A 
ATOM      6  C   UNL     1     111.274 126.910 135.705  0.00  0.00    +0.000 A 
ATOM      7  C   UNL     1     111.568 126.178 135.945  0.00  0.00    +0.000 A 
ATOM      8  C   UNL     1     112.300 126.131 136.321  0.00  0.00    +0.000 A 
ATOM      9  C   UNL     1     111.101 125.471 135.798  0.00  0.00    +0.000 A 
ATOM     10  C   UNL     1     112.618 125.373 136.576  0.00  0.00    +0.000 A 
ATOM     11  C   UNL     1     111.401 124.705 136.045  0.00  0.00    +0.000 A 
ATOM     12  C   UNL     1     112.165 124.656 136.437  0.00  0.00    +0.000 A 
ENDROOT
BRANCH   5  14
ATOM     13  O   UNL     1     114.198 130.291 136.762  0.00  0.00    +0.000 OA
ATOM     14  C   UNL     1     112.884 128.234 136.353  0.00  0.00    +0.000 A 
ATOM     15  C   UNL     1     112.909 128.563 137.109  0.00  0.00    +0.000 A 
ATOM     16  C   UNL     1     113.296 128.590 135.733  0.00  0.00    +0.000 A 
ATOM     17  C   UNL     1     113.348 129.249 137.245  0.00  0.00    +0.000 A 
ATOM     18  C   UNL     1     113.734 129.275 135.870  0.00  0.00    +0.000 A 
ATOM     19  C   UNL     1     113.760 129.605 136.625  0.00  0.00    +0.000 A 
BRANCH  17  20
ATOM     20  O   UNL     1     113.373 129.579 138.001  0.00  0.00    +0.000 OA
ATOM     21  C   UNL     1     113.390 129.088 138.665  0.00  0.00    +0.000 C 
ENDBRANCH  17  20
ENDBRANCH   5  14
BRANCH  12  22
ATOM     22  O   UNL     1     112.462 123.925 136.678  0.00  0.00    +0.000 OA
ATOM     23  C   UNL     1     112.034 123.462 137.210  0.00  0.00    +0.000 C 
ENDBRANCH  12  22
BRANCH   4  24
ATOM     24  O   UNL     1     111.418 128.328 135.601  0.00  0.00    +0.000 OA
BRANCH  24  33
ATOM     25  O   UNL     1     110.444 128.400 136.644  0.00  0.00    +0.000 OA
ATOM     26  O   UNL     1     108.493 129.377 136.713  0.00  0.00    +0.000 OA
ATOM     27  O   UNL     1     108.979 129.757 135.183  0.00  0.00    +0.000 OA
ATOM     28  O   UNL     1     110.441 129.233 134.627  0.00  0.00    +0.000 OA
ATOM     29  C   UNL     1     109.225 129.115 136.435  0.00  0.00    +0.000 C 
ATOM     30  C   UNL     1     109.467 129.305 135.670  0.00  0.00    +0.000 C 
ATOM     31  C   UNL     1     109.714 128.662 136.922  0.00  0.00    +0.000 C 
ATOM     32  C   UNL     1     110.199 129.043 135.392  0.00  0.00    +0.000 C 
ATOM     33  C   UNL     1     110.687 128.590 135.879  0.00  0.00    +0.000 C 
BRANCH  31  34
ATOM     34  C   UNL     1     109.470 128.472 137.688  0.00  0.00    +0.000 C 
BRANCH  34  35
ATOM     35  O   UNL     1     110.011 128.494 138.310  0.00  0.00    +0.000 OA
BRANCH  35  37
ATOM     36  O   UNL     1     109.300 128.615 139.544  0.00  0.00    +0.000 OA
ATOM     37  C   UNL     1     109.803 128.189 139.048  0.00  0.00    +0.000 C 
ATOM     38  C   UNL     1     110.099 127.458 139.291  0.00  0.00    +0.000 C 
ENDBRANCH  35  37
ENDBRANCH  34  35
ENDBRANCH  31  34
ENDBRANCH  24  33
ENDBRANCH   4  24
TORSDOF 8
ENDMDL
MODEL 9
REMARK VINA RESULT:      -8.4      1.595      3.945
REMARK  Name = 44259613
REMARK  8 active torsions:
REMARK  status: ('A' for Active; 'I' for Inactive)
REMARK    1  A    between atoms: O_2  and  C_18
REMARK    2  A    between atoms: O_2  and  C_20
REMARK    3  A    between atoms: O_6  and  C_19
REMARK    4  A    between atoms: O_6  and  C_24
REMARK    5  A    between atoms: O_11  and  C_33
REMARK    6  A    between atoms: O_12  and  C_34
REMARK    7  A    between atoms: C_16  and  C_19
REMARK    8  A    between atoms: C_21  and  C_26
REMARK                            x       y       z     vdW  Elec       q    Type
REMARK                         _______ _______ _______ _____ _____    ______ ____
ROOT
ATOM      1  O   UNL     1     112.259 126.138 139.056  0.00  0.00    +0.000 OA
ATOM      2  O   UNL     1     112.011 128.444 138.188  0.00  0.00    +0.000 OA
ATOM      3  O   UNL     1     111.000 128.737 139.175  0.00  0.00    +0.000 OA
ATOM      4  C   UNL     1     112.634 127.159 138.128  0.00  0.00    +0.000 A 
ATOM      5  C   UNL     1     112.717 126.390 138.418  0.00  0.00    +0.000 A 
ATOM      6  C   UNL     1     112.093 127.675 138.478  0.00  0.00    +0.000 A 
ATOM      7  C   UNL     1     111.635 127.423 139.116  0.00  0.00    +0.000 A 
ATOM      8  C   UNL     1     111.718 126.655 139.405  0.00  0.00    +0.000 A 
ATOM      9  C   UNL     1     111.076 127.970 139.471  0.00  0.00    +0.000 A 
ATOM     10  C   UNL     1     111.247 126.379 140.069  0.00  0.00    +0.000 A 
ATOM     11  C   UNL     1     110.596 127.714 140.136  0.00  0.00    +0.000 A 
ATOM     12  C   UNL     1     110.682 126.913 140.437  0.00  0.00    +0.000 A 
ENDROOT
BRANCH   5  14
ATOM     13  O   UNL     1     114.879 124.327 137.018  0.00  0.00    +0.000 OA
ATOM     14  C   UNL     1     113.258 125.875 138.068  0.00  0.00    +0.000 A 
ATOM     15  C   UNL     1     112.991 125.275 137.568  0.00  0.00    +0.000 A 
ATOM     16  C   UNL     1     114.065 125.959 138.219  0.00  0.00    +0.000 A 
ATOM     17  C   UNL     1     113.532 124.759 137.218  0.00  0.00    +0.000 A 
ATOM     18  C   UNL     1     114.605 125.442 137.868  0.00  0.00    +0.000 A 
ATOM     19  C   UNL     1     114.339 124.843 137.368  0.00  0.00    +0.000 A 
BRANCH  17  20
ATOM     20  O   UNL     1     113.265 124.159 136.718  0.00  0.00    +0.000 OA
ATOM     21  C   UNL     1     112.555 123.772 136.880  0.00  0.00    +0.000 C 
ENDBRANCH  17  20
ENDBRANCH   5  14
BRANCH  12  22
ATOM     22  O   UNL     1     110.225 126.658 141.075  0.00  0.00    +0.000 OA
ATOM     23  C   UNL     1     109.502 126.285 140.941  0.00  0.00    +0.000 C 
ENDBRANCH  12  22
BRANCH   4  24
ATOM     24  O   UNL     1     113.092 127.412 137.490  0.00  0.00    +0.000 OA
BRANCH  24  33
ATOM     25  O   UNL     1     112.015 127.370 136.552  0.00  0.00    +0.000 OA
ATOM     26  O   UNL     1     111.632 128.559 134.763  0.00  0.00    +0.000 OA
ATOM     27  O   UNL     1     113.055 129.217 135.275  0.00  0.00    +0.000 OA
ATOM     28  O   UNL     1     113.786 128.643 136.639  0.00  0.00    +0.000 OA
ATOM     29  C   UNL     1     111.997 128.272 135.445  0.00  0.00    +0.000 C 
ATOM     30  C   UNL     1     112.709 128.601 135.701  0.00  0.00    +0.000 C 
ATOM     31  C   UNL     1     111.650 127.656 135.871  0.00  0.00    +0.000 C 
ATOM     32  C   UNL     1     113.074 128.314 136.383  0.00  0.00    +0.000 C 
ATOM     33  C   UNL     1     112.727 127.698 136.809  0.00  0.00    +0.000 C 
BRANCH  31  34
ATOM     34  C   UNL     1     110.938 127.328 135.614  0.00  0.00    +0.000 C 
BRANCH  34  35
ATOM     35  O   UNL     1     110.856 126.509 135.563  0.00  0.00    +0.000 OA
BRANCH  35  37
ATOM     36  O   UNL     1     109.510 126.319 136.003  0.00  0.00    +0.000 OA
ATOM     37  C   UNL     1     110.109 126.175 135.455  0.00  0.00    +0.000 C 
ATOM     38  C   UNL     1     109.961 125.697 134.800  0.00  0.00    +0.000 C 
ENDBRANCH  35  37
ENDBRANCH  34  35
ENDBRANCH  31  34
ENDBRANCH  24  33
ENDBRANCH   4  24
TORSDOF 8
ENDMDL
MODEL 10
REMARK VINA RESULT:      -8.2      1.684      4.187
REMARK  Name = 44259613
REMARK  8 active torsions:
REMARK  status: ('A' for Active; 'I' for Inactive)
REMARK    1  A    between atoms: O_2  and  C_18
REMARK    2  A    between atoms: O_2  and  C_20
REMARK    3  A    between atoms: O_6  and  C_19
REMARK    4  A    between atoms: O_6  and  C_24
REMARK    5  A    between atoms: O_11  and  C_33
REMARK    6  A    between atoms: O_12  and  C_34
REMARK    7  A    between atoms: C_16  and  C_19
REMARK    8  A    between atoms: C_21  and  C_26
REMARK                            x       y       z     vdW  Elec       q    Type
REMARK                         _______ _______ _______ _____ _____    ______ ____
ROOT
ATOM      1  O   UNL     1     111.569 126.989 136.689  0.00  0.00    +0.000 OA
ATOM      2  O   UNL     1     112.229 128.884 135.239  0.00  0.00    +0.000 OA
ATOM      3  O   UNL     1     110.846 129.217 134.996  0.00  0.00    +0.000 OA
ATOM      4  C   UNL     1     112.587 127.782 136.076  0.00  0.00    +0.000 A 
ATOM      5  C   UNL     1     112.367 127.151 136.560  0.00  0.00    +0.000 A 
ATOM      6  C   UNL     1     112.008 128.252 135.723  0.00  0.00    +0.000 A 
ATOM      7  C   UNL     1     111.210 128.090 135.853  0.00  0.00    +0.000 A 
ATOM      8  C   UNL     1     110.990 127.459 136.335  0.00  0.00    +0.000 A 
ATOM      9  C   UNL     1     110.617 128.587 135.478  0.00  0.00    +0.000 A 
ATOM     10  C   UNL     1     110.161 127.280 136.479  0.00  0.00    +0.000 A 
ATOM     11  C   UNL     1     109.784 128.425 135.609  0.00  0.00    +0.000 A 
ATOM     12  C   UNL     1     109.554 127.766 136.113  0.00  0.00    +0.000 A 
ENDROOT
BRANCH   5  14
ATOM     13  O   UNL     1     114.683 125.274 137.975  0.00  0.00    +0.000 OA
ATOM     14  C   UNL     1     112.946 126.681 136.913  0.00  0.00    +0.000 A 
ATOM     15  C   UNL     1     113.096 126.751 137.722  0.00  0.00    +0.000 A 
ATOM     16  C   UNL     1     113.375 126.142 136.459  0.00  0.00    +0.000 A 
ATOM     17  C   UNL     1     113.675 126.281 138.075  0.00  0.00    +0.000 A 
ATOM     18  C   UNL     1     113.954 125.673 136.813  0.00  0.00    +0.000 A 
ATOM     19  C   UNL     1     114.104 125.743 137.621  0.00  0.00    +0.000 A 
BRANCH  17  20
ATOM     20  O   UNL     1     113.825 126.351 138.884  0.00  0.00    +0.000 OA
ATOM     21  C   UNL     1     113.217 126.562 139.400  0.00  0.00    +0.000 C 
ENDBRANCH  17  20
ENDBRANCH   5  14
BRANCH  12  22
ATOM     22  O   UNL     1     108.757 127.602 136.245  0.00  0.00    +0.000 OA
ATOM     23  C   UNL     1     108.377 127.018 135.803  0.00  0.00    +0.000 C 
ENDBRANCH  12  22
BRANCH   4  24
ATOM     24  O   UNL     1     113.386 127.944 135.946  0.00  0.00    +0.000 OA
BRANCH  24  33
ATOM     25  O   UNL     1     113.408 129.109 136.773  0.00  0.00    +0.000 OA
ATOM     26  O   UNL     1     114.599 130.934 136.640  0.00  0.00    +0.000 OA
ATOM     27  O   UNL     1     115.161 130.098 135.333  0.00  0.00    +0.000 OA
ATOM     28  O   UNL     1     114.555 128.603 134.986  0.00  0.00    +0.000 OA
ATOM     29  C   UNL     1     114.295 130.186 136.467  0.00  0.00    +0.000 C 
ATOM     30  C   UNL     1     114.577 129.769 135.813  0.00  0.00    +0.000 C 
ATOM     31  C   UNL     1     113.711 129.856 136.947  0.00  0.00    +0.000 C 
ATOM     32  C   UNL     1     114.273 129.021 135.640  0.00  0.00    +0.000 C 
ATOM     33  C   UNL     1     113.689 128.691 136.120  0.00  0.00    +0.000 C 
BRANCH  31  34
ATOM     34  C   UNL     1     113.430 130.274 137.600  0.00  0.00    +0.000 C 
BRANCH  34  35
ATOM     35  O   UNL     1     113.269 129.879 138.306  0.00  0.00    +0.000 OA
BRANCH  35  37
ATOM     36  O   UNL     1     113.314 130.694 139.479  0.00  0.00    +0.000 OA
ATOM     37  C   UNL     1     112.880 130.271 138.919  0.00  0.00    +0.000 C 
ATOM     38  C   UNL     1     112.058 130.239 138.974  0.00  0.00    +0.000 C 
ENDBRANCH  35  37
ENDBRANCH  34  35
ENDBRANCH  31  34
ENDBRANCH  24  33
ENDBRANCH   4  24
TORSDOF 8
ENDMDL
