MODEL 1
REMARK VINA RESULT:      -8.4      0.000      0.000
REMARK  Name = 189609
REMARK  2 active torsions:
REMARK  status: ('A' for Active; 'I' for Inactive)
REMARK    1  A    between atoms: O_4  and  C_9
REMARK    2  A    between atoms: C_13  and  C_16
REMARK                            x       y       z     vdW  Elec       q    Type
REMARK                         _______ _______ _______ _____ _____    ______ ____
ROOT
ATOM      1  O   UNL     1     105.304 124.180 147.020  0.00  0.00    +0.000 OA
ATOM      2  O   UNL     1     102.165 123.790 146.030  0.00  0.00    +0.000 OA
ATOM      3  O   UNL     1     103.088 123.046 145.432  0.00  0.00    +0.000 OA
ATOM      4  O   UNL     1     103.538 125.595 148.155  0.00  0.00    +0.000 OA
ATOM      5  C   UNL     1     103.902 124.579 147.171  0.00  0.00    +0.000 A 
ATOM      6  C   UNL     1     104.476 124.117 146.800  0.00  0.00    +0.000 A 
ATOM      7  C   UNL     1     102.891 123.978 146.360  0.00  0.00    +0.000 A 
ATOM      8  C   UNL     1     103.111 124.510 146.952  0.00  0.00    +0.000 A 
ATOM      9  C   UNL     1     103.465 123.515 145.989  0.00  0.00    +0.000 A 
ATOM     10  C   UNL     1     104.258 123.585 146.208  0.00  0.00    +0.000 A 
ATOM     11  C   UNL     1     104.118 125.137 147.789  0.00  0.00    +0.000 A 
ATOM     12  C   UNL     1     105.538 124.732 147.635  0.00  0.00    +0.000 A 
ATOM     13  C   UNL     1     104.941 125.214 148.022  0.00  0.00    +0.000 A 
ATOM     14  C   UNL     1     102.286 123.215 145.458  0.00  0.00    +0.000 C 
ENDROOT
BRANCH  12  15
ATOM     15  C   UNL     1     106.332 124.799 147.853  0.00  0.00    +0.000 A 
ATOM     16  C   UNL     1     106.595 124.464 148.559  0.00  0.00    +0.000 A 
ATOM     17  C   UNL     1     106.862 125.201 147.364  0.00  0.00    +0.000 A 
ATOM     18  C   UNL     1     107.388 124.530 148.777  0.00  0.00    +0.000 A 
ATOM     19  C   UNL     1     107.654 125.267 147.582  0.00  0.00    +0.000 A 
ATOM     20  C   UNL     1     107.918 124.932 148.289  0.00  0.00    +0.000 A 
ENDBRANCH  12  15
BRANCH   8  21
ATOM     21  O   UNL     1     102.538 124.972 147.323  0.00  0.00    +0.000 OA
ATOM     22  C   UNL     1     102.297 124.793 148.092  0.00  0.00    +0.000 C 
ENDBRANCH   8  21
TORSDOF 2
ENDMDL
MODEL 2
REMARK VINA RESULT:      -8.2      1.420      4.240
REMARK  Name = 189609
REMARK  2 active torsions:
REMARK  status: ('A' for Active; 'I' for Inactive)
REMARK    1  A    between atoms: O_4  and  C_9
REMARK    2  A    between atoms: C_13  and  C_16
REMARK                            x       y       z     vdW  Elec       q    Type
REMARK                         _______ _______ _______ _____ _____    ______ ____
ROOT
ATOM      1  O   UNL     1     104.640 124.363 147.205  0.00  0.00    +0.000 OA
ATOM      2  O   UNL     1     107.774 125.413 146.955  0.00  0.00    +0.000 OA
ATOM      3  O   UNL     1     107.379 124.954 148.137  0.00  0.00    +0.000 OA
ATOM      4  O   UNL     1     105.402 125.240 144.955  0.00  0.00    +0.000 OA
ATOM      5  C   UNL     1     105.688 124.932 146.354  0.00  0.00    +0.000 A 
ATOM      6  C   UNL     1     105.443 124.647 147.088  0.00  0.00    +0.000 A 
ATOM      7  C   UNL     1     106.989 125.187 146.888  0.00  0.00    +0.000 A 
ATOM      8  C   UNL     1     106.461 125.202 146.254  0.00  0.00    +0.000 A 
ATOM      9  C   UNL     1     106.744 124.902 147.622  0.00  0.00    +0.000 A 
ATOM     10  C   UNL     1     105.970 124.632 147.722  0.00  0.00    +0.000 A 
ATOM     11  C   UNL     1     105.147 124.953 145.686  0.00  0.00    +0.000 A 
ATOM     12  C   UNL     1     104.086 124.376 146.549  0.00  0.00    +0.000 A 
ATOM     13  C   UNL     1     104.341 124.673 145.784  0.00  0.00    +0.000 A 
ATOM     14  C   UNL     1     108.015 125.270 147.726  0.00  0.00    +0.000 C 
ENDROOT
BRANCH  12  15
ATOM     15  C   UNL     1     103.313 124.105 146.653  0.00  0.00    +0.000 A 
ATOM     16  C   UNL     1     103.105 123.347 146.400  0.00  0.00    +0.000 A 
ATOM     17  C   UNL     1     102.749 124.590 147.009  0.00  0.00    +0.000 A 
ATOM     18  C   UNL     1     102.333 123.076 146.504  0.00  0.00    +0.000 A 
ATOM     19  C   UNL     1     101.977 124.318 147.113  0.00  0.00    +0.000 A 
ATOM     20  C   UNL     1     101.769 123.561 146.860  0.00  0.00    +0.000 A 
ENDBRANCH  12  15
BRANCH   8  21
ATOM     21  O   UNL     1     106.706 125.487 145.520  0.00  0.00    +0.000 OA
ATOM     22  C   UNL     1     106.419 126.210 145.241  0.00  0.00    +0.000 C 
ENDBRANCH   8  21
TORSDOF 2
ENDMDL
MODEL 3
REMARK VINA RESULT:      -8.2     13.121     13.710
REMARK  Name = 189609
REMARK  2 active torsions:
REMARK  status: ('A' for Active; 'I' for Inactive)
REMARK    1  A    between atoms: O_4  and  C_9
REMARK    2  A    between atoms: C_13  and  C_16
REMARK                            x       y       z     vdW  Elec       q    Type
REMARK                         _______ _______ _______ _____ _____    ______ ____
ROOT
ATOM      1  O   UNL     1     112.565 126.705 136.227  0.00  0.00    +0.000 OA
ATOM      2  O   UNL     1     109.858 127.977 134.797  0.00  0.00    +0.000 OA
ATOM      3  O   UNL     1     110.866 128.808 135.037  0.00  0.00    +0.000 OA
ATOM      4  O   UNL     1     110.637 125.129 135.765  0.00  0.00    +0.000 OA
ATOM      5  C   UNL     1     111.214 126.469 135.709  0.00  0.00    +0.000 A 
ATOM      6  C   UNL     1     111.841 126.985 135.858  0.00  0.00    +0.000 A 
ATOM      7  C   UNL     1     110.460 127.546 135.148  0.00  0.00    +0.000 A 
ATOM      8  C   UNL     1     110.525 126.750 135.354  0.00  0.00    +0.000 A 
ATOM      9  C   UNL     1     111.087 128.062 135.297  0.00  0.00    +0.000 A 
ATOM     10  C   UNL     1     111.777 127.782 135.652  0.00  0.00    +0.000 A 
ATOM     11  C   UNL     1     111.269 125.637 135.918  0.00  0.00    +0.000 A 
ATOM     12  C   UNL     1     112.637 125.877 136.443  0.00  0.00    +0.000 A 
ATOM     13  C   UNL     1     111.985 125.340 136.288  0.00  0.00    +0.000 A 
ATOM     14  C   UNL     1     110.108 128.756 134.728  0.00  0.00    +0.000 C 
ENDROOT
BRANCH  12  15
ATOM     15  C   UNL     1     113.329 125.600 136.797  0.00  0.00    +0.000 A 
ATOM     16  C   UNL     1     113.446 125.703 137.608  0.00  0.00    +0.000 A 
ATOM     17  C   UNL     1     113.903 125.220 136.342  0.00  0.00    +0.000 A 
ATOM     18  C   UNL     1     114.138 125.426 137.963  0.00  0.00    +0.000 A 
ATOM     19  C   UNL     1     114.594 124.943 136.698  0.00  0.00    +0.000 A 
ATOM     20  C   UNL     1     114.712 125.046 137.508  0.00  0.00    +0.000 A 
ENDBRANCH  12  15
BRANCH   8  21
ATOM     21  O   UNL     1     109.899 126.234 135.205  0.00  0.00    +0.000 OA
ATOM     22  C   UNL     1     109.966 125.663 134.612  0.00  0.00    +0.000 C 
ENDBRANCH   8  21
TORSDOF 2
ENDMDL
MODEL 4
REMARK VINA RESULT:      -8.0     12.792     13.860
REMARK  Name = 189609
REMARK  2 active torsions:
REMARK  status: ('A' for Active; 'I' for Inactive)
REMARK    1  A    between atoms: O_4  and  C_9
REMARK    2  A    between atoms: C_13  and  C_16
REMARK                            x       y       z     vdW  Elec       q    Type
REMARK                         _______ _______ _______ _____ _____    ______ ____
ROOT
ATOM      1  O   UNL     1     112.009 126.557 136.160  0.00  0.00    +0.000 OA
ATOM      2  O   UNL     1     114.156 124.247 137.182  0.00  0.00    +0.000 OA
ATOM      3  O   UNL     1     114.557 125.512 137.226  0.00  0.00    +0.000 OA
ATOM      4  O   UNL     1     111.252 124.142 136.080  0.00  0.00    +0.000 OA
ATOM      5  C   UNL     1     112.278 125.134 136.387  0.00  0.00    +0.000 A 
ATOM      6  C   UNL     1     112.528 125.920 136.414  0.00  0.00    +0.000 A 
ATOM      7  C   UNL     1     113.542 124.715 136.906  0.00  0.00    +0.000 A 
ATOM      8  C   UNL     1     112.785 124.532 136.633  0.00  0.00    +0.000 A 
ATOM      9  C   UNL     1     113.791 125.501 136.934  0.00  0.00    +0.000 A 
ATOM     10  C   UNL     1     113.284 126.104 136.688  0.00  0.00    +0.000 A 
ATOM     11  C   UNL     1     111.493 124.931 136.104  0.00  0.00    +0.000 A 
ATOM     12  C   UNL     1     111.220 126.372 135.875  0.00  0.00    +0.000 A 
ATOM     13  C   UNL     1     110.960 125.554 135.846  0.00  0.00    +0.000 A 
ATOM     14  C   UNL     1     114.782 124.738 137.379  0.00  0.00    +0.000 C 
ENDROOT
BRANCH  12  15
ATOM     15  C   UNL     1     110.716 126.977 135.629  0.00  0.00    +0.000 A 
ATOM     16  C   UNL     1     110.765 127.267 134.858  0.00  0.00    +0.000 A 
ATOM     17  C   UNL     1     110.163 127.293 136.154  0.00  0.00    +0.000 A 
ATOM     18  C   UNL     1     110.261 127.872 134.612  0.00  0.00    +0.000 A 
ATOM     19  C   UNL     1     109.659 127.898 135.908  0.00  0.00    +0.000 A 
ATOM     20  C   UNL     1     109.708 128.188 135.137  0.00  0.00    +0.000 A 
ENDBRANCH  12  15
BRANCH   8  21
ATOM     21  O   UNL     1     112.536 123.746 136.605  0.00  0.00    +0.000 OA
ATOM     22  C   UNL     1     111.986 123.468 137.155  0.00  0.00    +0.000 C 
ENDBRANCH   8  21
TORSDOF 2
ENDMDL
MODEL 5
REMARK VINA RESULT:      -8.0      0.824      1.766
REMARK  Name = 189609
REMARK  2 active torsions:
REMARK  status: ('A' for Active; 'I' for Inactive)
REMARK    1  A    between atoms: O_4  and  C_9
REMARK    2  A    between atoms: C_13  and  C_16
REMARK                            x       y       z     vdW  Elec       q    Type
REMARK                         _______ _______ _______ _____ _____    ______ ____
ROOT
ATOM      1  O   UNL     1     104.518 124.734 147.622  0.00  0.00    +0.000 OA
ATOM      2  O   UNL     1     101.543 123.795 146.504  0.00  0.00    +0.000 OA
ATOM      3  O   UNL     1     101.588 124.374 147.698  0.00  0.00    +0.000 OA
ATOM      4  O   UNL     1     104.422 123.630 145.346  0.00  0.00    +0.000 OA
ATOM      5  C   UNL     1     103.743 124.113 146.545  0.00  0.00    +0.000 A 
ATOM      6  C   UNL     1     103.771 124.472 147.287  0.00  0.00    +0.000 A 
ATOM      7  C   UNL     1     102.325 123.978 146.664  0.00  0.00    +0.000 A 
ATOM      8  C   UNL     1     103.020 123.866 146.234  0.00  0.00    +0.000 A 
ATOM      9  C   UNL     1     102.353 124.338 147.406  0.00  0.00    +0.000 A 
ATOM     10  C   UNL     1     103.076 124.585 147.718  0.00  0.00    +0.000 A 
ATOM     11  C   UNL     1     104.460 123.990 146.087  0.00  0.00    +0.000 A 
ATOM     12  C   UNL     1     105.245 124.620 147.179  0.00  0.00    +0.000 A 
ATOM     13  C   UNL     1     105.215 124.245 146.406  0.00  0.00    +0.000 A 
ATOM     14  C   UNL     1     101.087 124.039 147.141  0.00  0.00    +0.000 C 
ENDROOT
BRANCH  12  15
ATOM     15  C   UNL     1     105.966 124.868 147.493  0.00  0.00    +0.000 A 
ATOM     16  C   UNL     1     106.277 124.492 148.159  0.00  0.00    +0.000 A 
ATOM     17  C   UNL     1     106.377 125.492 147.143  0.00  0.00    +0.000 A 
ATOM     18  C   UNL     1     106.998 124.740 148.474  0.00  0.00    +0.000 A 
ATOM     19  C   UNL     1     107.098 125.740 147.458  0.00  0.00    +0.000 A 
ATOM     20  C   UNL     1     107.408 125.364 148.124  0.00  0.00    +0.000 A 
ENDBRANCH  12  15
BRANCH   8  21
ATOM     21  O   UNL     1     102.992 123.506 145.492  0.00  0.00    +0.000 OA
ATOM     22  C   UNL     1     103.296 122.746 145.390  0.00  0.00    +0.000 C 
ENDBRANCH   8  21
TORSDOF 2
ENDMDL
MODEL 6
REMARK VINA RESULT:      -7.9      2.661      3.128
REMARK  Name = 189609
REMARK  2 active torsions:
REMARK  status: ('A' for Active; 'I' for Inactive)
REMARK    1  A    between atoms: O_4  and  C_9
REMARK    2  A    between atoms: C_13  and  C_16
REMARK                            x       y       z     vdW  Elec       q    Type
REMARK                         _______ _______ _______ _____ _____    ______ ____
ROOT
ATOM      1  O   UNL     1     106.561 124.851 146.783  0.00  0.00    +0.000 OA
ATOM      2  O   UNL     1     105.745 126.079 143.815  0.00  0.00    +0.000 OA
ATOM      3  O   UNL     1     105.610 124.770 143.989  0.00  0.00    +0.000 OA
ATOM      4  O   UNL     1     106.815 127.347 146.443  0.00  0.00    +0.000 OA
ATOM      5  C   UNL     1     106.447 126.032 145.924  0.00  0.00    +0.000 A 
ATOM      6  C   UNL     1     106.363 125.219 146.032  0.00  0.00    +0.000 A 
ATOM      7  C   UNL     1     105.977 125.903 144.581  0.00  0.00    +0.000 A 
ATOM      8  C   UNL     1     106.254 126.374 145.199  0.00  0.00    +0.000 A 
ATOM      9  C   UNL     1     105.893 125.089 144.689  0.00  0.00    +0.000 A 
ATOM     10  C   UNL     1     106.086 124.747 145.415  0.00  0.00    +0.000 A 
ATOM     11  C   UNL     1     106.735 126.534 146.560  0.00  0.00    +0.000 A 
ATOM     12  C   UNL     1     106.850 125.337 147.430  0.00  0.00    +0.000 A 
ATOM     13  C   UNL     1     106.938 126.184 147.318  0.00  0.00    +0.000 A 
ATOM     14  C   UNL     1     105.519 125.381 143.449  0.00  0.00    +0.000 C 
ENDROOT
BRANCH  12  15
ATOM     15  C   UNL     1     107.043 124.991 148.155  0.00  0.00    +0.000 A 
ATOM     16  C   UNL     1     106.446 124.805 148.693  0.00  0.00    +0.000 A 
ATOM     17  C   UNL     1     107.831 124.832 148.340  0.00  0.00    +0.000 A 
ATOM     18  C   UNL     1     106.638 124.459 149.418  0.00  0.00    +0.000 A 
ATOM     19  C   UNL     1     108.022 124.487 149.065  0.00  0.00    +0.000 A 
ATOM     20  C   UNL     1     107.426 124.300 149.603  0.00  0.00    +0.000 A 
ENDBRANCH  12  15
BRANCH   8  21
ATOM     21  O   UNL     1     106.338 127.187 145.091  0.00  0.00    +0.000 OA
ATOM     22  C   UNL     1     105.791 127.707 145.427  0.00  0.00    +0.000 C 
ENDBRANCH   8  21
TORSDOF 2
ENDMDL
MODEL 7
REMARK VINA RESULT:      -7.9     10.556     12.210
REMARK  Name = 189609
REMARK  2 active torsions:
REMARK  status: ('A' for Active; 'I' for Inactive)
REMARK    1  A    between atoms: O_4  and  C_9
REMARK    2  A    between atoms: C_13  and  C_16
REMARK                            x       y       z     vdW  Elec       q    Type
REMARK                         _______ _______ _______ _____ _____    ______ ____
ROOT
ATOM      1  O   UNL     1     113.705 126.413 138.832  0.00  0.00    +0.000 OA
ATOM      2  O   UNL     1     111.841 127.352 141.406  0.00  0.00    +0.000 OA
ATOM      3  O   UNL     1     113.098 127.779 141.378  0.00  0.00    +0.000 OA
ATOM      4  O   UNL     1     111.307 125.602 138.894  0.00  0.00    +0.000 OA
ATOM      5  C   UNL     1     112.399 126.362 139.495  0.00  0.00    +0.000 A 
ATOM      6  C   UNL     1     113.180 126.628 139.478  0.00  0.00    +0.000 A 
ATOM      7  C   UNL     1     112.192 127.055 140.728  0.00  0.00    +0.000 A 
ATOM      8  C   UNL     1     111.906 126.576 140.120  0.00  0.00    +0.000 A 
ATOM      9  C   UNL     1     112.973 127.320 140.710  0.00  0.00    +0.000 A 
ATOM     10  C   UNL     1     113.467 127.107 140.085  0.00  0.00    +0.000 A 
ATOM     11  C   UNL     1     112.089 125.863 138.868  0.00  0.00    +0.000 A 
ATOM     12  C   UNL     1     113.412 125.914 138.196  0.00  0.00    +0.000 A 
ATOM     13  C   UNL     1     112.599 125.638 138.214  0.00  0.00    +0.000 A 
ATOM     14  C   UNL     1     112.399 127.799 141.808  0.00  0.00    +0.000 C 
ENDROOT
BRANCH  12  15
ATOM     15  C   UNL     1     113.910 125.703 137.572  0.00  0.00    +0.000 A 
ATOM     16  C   UNL     1     113.934 126.166 136.890  0.00  0.00    +0.000 A 
ATOM     17  C   UNL     1     114.382 125.029 137.630  0.00  0.00    +0.000 A 
ATOM     18  C   UNL     1     114.431 125.956 136.266  0.00  0.00    +0.000 A 
ATOM     19  C   UNL     1     114.879 124.818 137.006  0.00  0.00    +0.000 A 
ATOM     20  C   UNL     1     114.903 125.282 136.324  0.00  0.00    +0.000 A 
ENDBRANCH  12  15
BRANCH   8  21
ATOM     21  O   UNL     1     111.125 126.310 140.137  0.00  0.00    +0.000 OA
ATOM     22  C   UNL     1     110.567 126.632 139.620  0.00  0.00    +0.000 C 
ENDBRANCH   8  21
TORSDOF 2
ENDMDL
MODEL 8
REMARK VINA RESULT:      -7.9     11.914     13.512
REMARK  Name = 189609
REMARK  2 active torsions:
REMARK  status: ('A' for Active; 'I' for Inactive)
REMARK    1  A    between atoms: O_4  and  C_9
REMARK    2  A    between atoms: C_13  and  C_16
REMARK                            x       y       z     vdW  Elec       q    Type
REMARK                         _______ _______ _______ _____ _____    ______ ____
ROOT
ATOM      1  O   UNL     1     111.664 126.378 137.090  0.00  0.00    +0.000 OA
ATOM      2  O   UNL     1     113.981 126.355 139.461  0.00  0.00    +0.000 OA
ATOM      3  O   UNL     1     112.798 126.873 139.772  0.00  0.00    +0.000 OA
ATOM      4  O   UNL     1     113.922 125.392 136.507  0.00  0.00    +0.000 OA
ATOM      5  C   UNL     1     113.034 126.027 137.477  0.00  0.00    +0.000 A 
ATOM      6  C   UNL     1     112.299 126.349 137.670  0.00  0.00    +0.000 A 
ATOM      7  C   UNL     1     113.502 126.302 138.798  0.00  0.00    +0.000 A 
ATOM      8  C   UNL     1     113.634 126.004 138.040  0.00  0.00    +0.000 A 
ATOM      9  C   UNL     1     112.767 126.624 138.991  0.00  0.00    +0.000 A 
ATOM     10  C   UNL     1     112.165 126.647 138.427  0.00  0.00    +0.000 A 
ATOM     11  C   UNL     1     113.184 125.712 136.691  0.00  0.00    +0.000 A 
ATOM     12  C   UNL     1     111.797 126.069 136.300  0.00  0.00    +0.000 A 
ATOM     13  C   UNL     1     112.562 125.734 136.099  0.00  0.00    +0.000 A 
ATOM     14  C   UNL     1     113.548 126.707 140.062  0.00  0.00    +0.000 C 
ENDROOT
BRANCH  12  15
ATOM     15  C   UNL     1     111.193 126.094 135.738  0.00  0.00    +0.000 A 
ATOM     16  C   UNL     1     111.079 126.775 135.286  0.00  0.00    +0.000 A 
ATOM     17  C   UNL     1     110.704 125.439 135.628  0.00  0.00    +0.000 A 
ATOM     18  C   UNL     1     110.475 126.800 134.724  0.00  0.00    +0.000 A 
ATOM     19  C   UNL     1     110.100 125.464 135.066  0.00  0.00    +0.000 A 
ATOM     20  C   UNL     1     109.986 126.145 134.614  0.00  0.00    +0.000 A 
ENDBRANCH  12  15
BRANCH   8  21
ATOM     21  O   UNL     1     114.369 125.682 137.847  0.00  0.00    +0.000 OA
ATOM     22  C   UNL     1     114.424 124.894 137.605  0.00  0.00    +0.000 C 
ENDBRANCH   8  21
TORSDOF 2
ENDMDL
MODEL 9
REMARK VINA RESULT:      -7.8     13.051     13.877
REMARK  Name = 189609
REMARK  2 active torsions:
REMARK  status: ('A' for Active; 'I' for Inactive)
REMARK    1  A    between atoms: O_4  and  C_9
REMARK    2  A    between atoms: C_13  and  C_16
REMARK                            x       y       z     vdW  Elec       q    Type
REMARK                         _______ _______ _______ _____ _____    ______ ____
ROOT
ATOM      1  O   UNL     1     113.288 126.865 136.443  0.00  0.00    +0.000 OA
ATOM      2  O   UNL     1     111.704 123.960 136.631  0.00  0.00    +0.000 OA
ATOM      3  O   UNL     1     113.000 123.966 136.923  0.00  0.00    +0.000 OA
ATOM      4  O   UNL     1     110.818 126.844 135.887  0.00  0.00    +0.000 OA
ATOM      5  C   UNL     1     112.027 126.134 136.295  0.00  0.00    +0.000 A 
ATOM      6  C   UNL     1     112.832 126.138 136.476  0.00  0.00    +0.000 A 
ATOM      7  C   UNL     1     111.977 124.728 136.548  0.00  0.00    +0.000 A 
ATOM      8  C   UNL     1     111.600 125.430 136.330  0.00  0.00    +0.000 A 
ATOM      9  C   UNL     1     112.782 124.732 136.729  0.00  0.00    +0.000 A 
ATOM     10  C   UNL     1     113.210 125.437 136.694  0.00  0.00    +0.000 A 
ATOM     11  C   UNL     1     111.623 126.858 136.067  0.00  0.00    +0.000 A 
ATOM     12  C   UNL     1     112.901 127.598 136.217  0.00  0.00    +0.000 A 
ATOM     13  C   UNL     1     112.063 127.594 136.028  0.00  0.00    +0.000 A 
ATOM     14  C   UNL     1     112.335 123.489 136.862  0.00  0.00    +0.000 C 
ENDROOT
BRANCH  12  15
ATOM     15  C   UNL     1     113.332 128.301 136.182  0.00  0.00    +0.000 A 
ATOM     16  C   UNL     1     113.779 128.478 135.511  0.00  0.00    +0.000 A 
ATOM     17  C   UNL     1     113.317 128.827 136.818  0.00  0.00    +0.000 A 
ATOM     18  C   UNL     1     114.210 129.180 135.476  0.00  0.00    +0.000 A 
ATOM     19  C   UNL     1     113.748 129.530 136.782  0.00  0.00    +0.000 A 
ATOM     20  C   UNL     1     114.194 129.706 136.111  0.00  0.00    +0.000 A 
ENDBRANCH  12  15
BRANCH   8  21
ATOM     21  O   UNL     1     110.795 125.426 136.149  0.00  0.00    +0.000 OA
ATOM     22  C   UNL     1     110.549 125.475 135.362  0.00  0.00    +0.000 C 
ENDBRANCH   8  21
TORSDOF 2
ENDMDL
MODEL 10
REMARK VINA RESULT:      -7.8     13.531     14.220
REMARK  Name = 189609
REMARK  2 active torsions:
REMARK  status: ('A' for Active; 'I' for Inactive)
REMARK    1  A    between atoms: O_4  and  C_9
REMARK    2  A    between atoms: C_13  and  C_16
REMARK                            x       y       z     vdW  Elec       q    Type
REMARK                         _______ _______ _______ _____ _____    ______ ____
ROOT
ATOM      1  O   UNL     1     112.551 126.642 136.192  0.00  0.00    +0.000 OA
ATOM      2  O   UNL     1     110.691 129.017 134.819  0.00  0.00    +0.000 OA
ATOM      3  O   UNL     1     110.168 127.798 134.885  0.00  0.00    +0.000 OA
ATOM      4  O   UNL     1     113.539 128.969 136.060  0.00  0.00    +0.000 OA
ATOM      5  C   UNL     1     112.434 128.050 135.804  0.00  0.00    +0.000 A 
ATOM      6  C   UNL     1     112.109 127.293 135.845  0.00  0.00    +0.000 A 
ATOM      7  C   UNL     1     111.243 128.526 135.175  0.00  0.00    +0.000 A 
ATOM      8  C   UNL     1     112.001 128.666 135.469  0.00  0.00    +0.000 A 
ATOM      9  C   UNL     1     110.918 127.769 135.216  0.00  0.00    +0.000 A 
ATOM     10  C   UNL     1     111.352 127.152 135.551  0.00  0.00    +0.000 A 
ATOM     11  C   UNL     1     113.223 128.209 136.106  0.00  0.00    +0.000 A 
ATOM     12  C   UNL     1     113.341 126.782 136.499  0.00  0.00    +0.000 A 
ATOM     13  C   UNL     1     113.679 127.571 136.456  0.00  0.00    +0.000 A 
ATOM     14  C   UNL     1     110.028 128.568 134.640  0.00  0.00    +0.000 C 
ENDROOT
BRANCH  12  15
ATOM     15  C   UNL     1     113.772 126.162 136.834  0.00  0.00    +0.000 A 
ATOM     16  C   UNL     1     114.223 125.668 136.352  0.00  0.00    +0.000 A 
ATOM     17  C   UNL     1     113.751 126.038 137.649  0.00  0.00    +0.000 A 
ATOM     18  C   UNL     1     114.654 125.048 136.686  0.00  0.00    +0.000 A 
ATOM     19  C   UNL     1     114.182 125.418 137.983  0.00  0.00    +0.000 A 
ATOM     20  C   UNL     1     114.633 124.924 137.501  0.00  0.00    +0.000 A 
ENDBRANCH  12  15
BRANCH   8  21
ATOM     21  O   UNL     1     112.326 129.424 135.427  0.00  0.00    +0.000 OA
ATOM     22  C   UNL     1     112.405 129.877 136.113  0.00  0.00    +0.000 C 
ENDBRANCH   8  21
TORSDOF 2
ENDMDL
