MODEL 1
REMARK VINA RESULT:     -10.2      0.000      0.000
REMARK  Name = 131752172
REMARK  8 active torsions:
REMARK  status: ('A' for Active; 'I' for Inactive)
REMARK    1  A    between atoms: O_4  and  C_17
REMARK    2  A    between atoms: O_4  and  C_19
REMARK    3  A    between atoms: O_6  and  C_18
REMARK    4  A    between atoms: O_6  and  C_23
REMARK    5  A    between atoms: C_15  and  C_18
REMARK    6  A    between atoms: C_23  and  C_27
REMARK    7  A    between atoms: C_28  and  C_30
REMARK    8  A    between atoms: C_31  and  C_34
REMARK                            x       y       z     vdW  Elec       q    Type
REMARK                         _______ _______ _______ _____ _____    ______ ____
ROOT
ATOM      1  O   UNL     1     110.241 127.997 135.453  0.00  0.00    +0.000 OA
ATOM      2  O   UNL     1     108.344 127.081 136.025  0.00  0.00    +0.000 OA
ATOM      3  O   UNL     1     107.882 128.651 135.814  0.00  0.00    +0.000 OA
ATOM      4  O   UNL     1     108.992 129.785 135.362  0.00  0.00    +0.000 OA
ATOM      5  C   UNL     1     108.900 127.648 135.799  0.00  0.00    +0.000 C 
ATOM      6  C   UNL     1     108.668 128.433 135.694  0.00  0.00    +0.000 C 
ATOM      7  C   UNL     1     109.686 127.430 135.679  0.00  0.00    +0.000 C 
ATOM      8  C   UNL     1     109.224 128.999 135.468  0.00  0.00    +0.000 C 
ATOM      9  C   UNL     1     110.010 128.781 135.347  0.00  0.00    +0.000 C 
ENDROOT
BRANCH   9  10
ATOM     10  O   UNL     1     110.565 129.349 135.121  0.00  0.00    +0.000 OA
BRANCH  10  14
ATOM     11  O   UNL     1     112.498 129.464 137.297  0.00  0.00    +0.000 OA
ATOM     12  O   UNL     1     113.407 128.904 134.612  0.00  0.00    +0.000 OA
ATOM     13  O   UNL     1     114.335 128.969 135.715  0.00  0.00    +0.000 OA
ATOM     14  C   UNL     1     111.343 129.295 135.391  0.00  0.00    +0.000 A 
ATOM     15  C   UNL     1     111.521 129.410 136.224  0.00  0.00    +0.000 A 
ATOM     16  C   UNL     1     111.981 129.123 134.842  0.00  0.00    +0.000 A 
ATOM     17  C   UNL     1     112.333 129.353 136.496  0.00  0.00    +0.000 A 
ATOM     18  C   UNL     1     112.946 129.187 135.968  0.00  0.00    +0.000 A 
ATOM     19  C   UNL     1     112.788 129.069 135.132  0.00  0.00    +0.000 A 
ATOM     20  C   UNL     1     113.722 129.134 136.242  0.00  0.00    +0.000 A 
ATOM     21  C   UNL     1     113.275 129.411 137.570  0.00  0.00    +0.000 A 
ATOM     22  C   UNL     1     113.886 129.246 137.043  0.00  0.00    +0.000 A 
BRANCH  21  24
ATOM     23  O   UNL     1     113.930 129.859 140.774  0.00  0.00    +0.000 OA
ATOM     24  C   UNL     1     113.439 129.523 138.372  0.00  0.00    +0.000 A 
ATOM     25  C   UNL     1     113.292 128.917 138.911  0.00  0.00    +0.000 A 
ATOM     26  C   UNL     1     113.748 130.242 138.632  0.00  0.00    +0.000 A 
ATOM     27  C   UNL     1     113.456 129.029 139.711  0.00  0.00    +0.000 A 
ATOM     28  C   UNL     1     113.912 130.354 139.433  0.00  0.00    +0.000 A 
ATOM     29  C   UNL     1     113.766 129.747 139.973  0.00  0.00    +0.000 A 
ENDBRANCH  21  24
ENDBRANCH  10  14
ENDBRANCH   9  10
BRANCH   7  30
ATOM     30  C   UNL     1     109.917 126.645 135.784  0.00  0.00    +0.000 C 
BRANCH  30  31
ATOM     31  O   UNL     1     110.675 126.405 135.565  0.00  0.00    +0.000 OA
BRANCH  31  33
ATOM     32  O   UNL     1     110.670 124.978 135.632  0.00  0.00    +0.000 OA
ATOM     33  C   UNL     1     110.988 125.703 135.864  0.00  0.00    +0.000 C 
BRANCH  33  34
ATOM     34  C   UNL     1     111.619 125.725 136.395  0.00  0.00    +0.000 C 
ATOM     35  C   UNL     1     112.361 125.445 136.167  0.00  0.00    +0.000 C 
BRANCH  35  37
ATOM     36  O   UNL     1     114.887 125.532 138.289  0.00  0.00    +0.000 OA
ATOM     37  C   UNL     1     112.992 125.467 136.698  0.00  0.00    +0.000 A 
ATOM     38  C   UNL     1     113.767 125.472 136.417  0.00  0.00    +0.000 A 
ATOM     39  C   UNL     1     112.848 125.484 137.510  0.00  0.00    +0.000 A 
ATOM     40  C   UNL     1     114.399 125.493 136.946  0.00  0.00    +0.000 A 
ATOM     41  C   UNL     1     113.479 125.506 138.040  0.00  0.00    +0.000 A 
ATOM     42  C   UNL     1     114.255 125.511 137.758  0.00  0.00    +0.000 A 
ENDBRANCH  35  37
ENDBRANCH  33  34
ENDBRANCH  31  33
ENDBRANCH  30  31
ENDBRANCH   7  30
TORSDOF 8
ENDMDL
MODEL 2
REMARK VINA RESULT:     -10.1      1.509      4.143
REMARK  Name = 131752172
REMARK  8 active torsions:
REMARK  status: ('A' for Active; 'I' for Inactive)
REMARK    1  A    between atoms: O_4  and  C_17
REMARK    2  A    between atoms: O_4  and  C_19
REMARK    3  A    between atoms: O_6  and  C_18
REMARK    4  A    between atoms: O_6  and  C_23
REMARK    5  A    between atoms: C_15  and  C_18
REMARK    6  A    between atoms: C_23  and  C_27
REMARK    7  A    between atoms: C_28  and  C_30
REMARK    8  A    between atoms: C_31  and  C_34
REMARK                            x       y       z     vdW  Elec       q    Type
REMARK                         _______ _______ _______ _____ _____    ______ ____
ROOT
ATOM      1  O   UNL     1     112.213 125.784 136.821  0.00  0.00    +0.000 OA
ATOM      2  O   UNL     1     111.718 123.770 136.139  0.00  0.00    +0.000 OA
ATOM      3  O   UNL     1     113.163 123.500 136.889  0.00  0.00    +0.000 OA
ATOM      4  O   UNL     1     113.975 124.752 137.593  0.00  0.00    +0.000 OA
ATOM      5  C   UNL     1     112.124 124.397 136.491  0.00  0.00    +0.000 C 
ATOM      6  C   UNL     1     112.847 124.261 136.866  0.00  0.00    +0.000 C 
ATOM      7  C   UNL     1     111.807 125.158 136.469  0.00  0.00    +0.000 C 
ATOM      8  C   UNL     1     113.252 124.887 137.218  0.00  0.00    +0.000 C 
ATOM      9  C   UNL     1     112.935 125.649 137.196  0.00  0.00    +0.000 C 
ENDROOT
BRANCH   9  10
ATOM     10  O   UNL     1     113.341 126.275 137.548  0.00  0.00    +0.000 OA
BRANCH  10  14
ATOM     11  O   UNL     1     112.448 129.044 137.416  0.00  0.00    +0.000 OA
ATOM     12  O   UNL     1     114.313 128.053 135.444  0.00  0.00    +0.000 OA
ATOM     13  O   UNL     1     113.849 129.418 135.410  0.00  0.00    +0.000 OA
ATOM     14  C   UNL     1     113.355 127.015 137.183  0.00  0.00    +0.000 A 
ATOM     15  C   UNL     1     112.883 127.660 137.497  0.00  0.00    +0.000 A 
ATOM     16  C   UNL     1     113.842 127.145 136.487  0.00  0.00    +0.000 A 
ATOM     17  C   UNL     1     112.903 128.427 137.110  0.00  0.00    +0.000 A 
ATOM     18  C   UNL     1     113.371 128.552 136.441  0.00  0.00    +0.000 A 
ATOM     19  C   UNL     1     113.849 127.919 136.113  0.00  0.00    +0.000 A 
ATOM     20  C   UNL     1     113.382 129.293 136.079  0.00  0.00    +0.000 A 
ATOM     21  C   UNL     1     112.460 129.784 137.053  0.00  0.00    +0.000 A 
ATOM     22  C   UNL     1     112.926 129.909 136.385  0.00  0.00    +0.000 A 
BRANCH  21  24
ATOM     23  O   UNL     1     110.637 132.249 138.277  0.00  0.00    +0.000 OA
ATOM     24  C   UNL     1     112.004 130.401 137.359  0.00  0.00    +0.000 A 
ATOM     25  C   UNL     1     112.014 131.142 136.996  0.00  0.00    +0.000 A 
ATOM     26  C   UNL     1     111.538 130.276 138.028  0.00  0.00    +0.000 A 
ATOM     27  C   UNL     1     111.559 131.757 137.302  0.00  0.00    +0.000 A 
ATOM     28  C   UNL     1     111.083 130.892 138.334  0.00  0.00    +0.000 A 
ATOM     29  C   UNL     1     111.093 131.633 137.971  0.00  0.00    +0.000 A 
ENDBRANCH  21  24
ENDBRANCH  10  14
ENDBRANCH   9  10
BRANCH   7  30
ATOM     30  C   UNL     1     111.085 125.293 136.094  0.00  0.00    +0.000 C 
BRANCH  30  31
ATOM     31  O   UNL     1     111.008 125.915 135.557  0.00  0.00    +0.000 OA
BRANCH  31  33
ATOM     32  O   UNL     1     109.808 125.610 134.845  0.00  0.00    +0.000 OA
ATOM     33  C   UNL     1     110.261 126.138 135.288  0.00  0.00    +0.000 C 
BRANCH  33  34
ATOM     34  C   UNL     1     109.967 126.889 135.462  0.00  0.00    +0.000 C 
ATOM     35  C   UNL     1     109.933 127.466 134.874  0.00  0.00    +0.000 C 
BRANCH  35  37
ATOM     36  O   UNL     1     108.757 130.470 135.566  0.00  0.00    +0.000 OA
ATOM     37  C   UNL     1     109.639 128.217 135.047  0.00  0.00    +0.000 A 
ATOM     38  C   UNL     1     109.893 128.870 134.612  0.00  0.00    +0.000 A 
ATOM     39  C   UNL     1     109.091 128.315 135.655  0.00  0.00    +0.000 A 
ATOM     40  C   UNL     1     109.600 129.621 134.785  0.00  0.00    +0.000 A 
ATOM     41  C   UNL     1     108.797 129.065 135.828  0.00  0.00    +0.000 A 
ATOM     42  C   UNL     1     109.051 129.718 135.393  0.00  0.00    +0.000 A 
ENDBRANCH  35  37
ENDBRANCH  33  34
ENDBRANCH  31  33
ENDBRANCH  30  31
ENDBRANCH   7  30
TORSDOF 8
ENDMDL
MODEL 3
REMARK VINA RESULT:     -10.1      1.748      3.718
REMARK  Name = 131752172
REMARK  8 active torsions:
REMARK  status: ('A' for Active; 'I' for Inactive)
REMARK    1  A    between atoms: O_4  and  C_17
REMARK    2  A    between atoms: O_4  and  C_19
REMARK    3  A    between atoms: O_6  and  C_18
REMARK    4  A    between atoms: O_6  and  C_23
REMARK    5  A    between atoms: C_15  and  C_18
REMARK    6  A    between atoms: C_23  and  C_27
REMARK    7  A    between atoms: C_28  and  C_30
REMARK    8  A    between atoms: C_31  and  C_34
REMARK                            x       y       z     vdW  Elec       q    Type
REMARK                         _______ _______ _______ _____ _____    ______ ____
ROOT
ATOM      1  O   UNL     1     110.017 128.982 136.534  0.00  0.00    +0.000 OA
ATOM      2  O   UNL     1     108.416 130.262 137.284  0.00  0.00    +0.000 OA
ATOM      3  O   UNL     1     108.210 130.427 135.656  0.00  0.00    +0.000 OA
ATOM      4  O   UNL     1     109.208 129.629 134.612  0.00  0.00    +0.000 OA
ATOM      5  C   UNL     1     108.916 129.863 136.763  0.00  0.00    +0.000 C 
ATOM      6  C   UNL     1     108.812 129.946 135.948  0.00  0.00    +0.000 C 
ATOM      7  C   UNL     1     109.518 129.381 137.056  0.00  0.00    +0.000 C 
ATOM      8  C   UNL     1     109.312 129.546 135.427  0.00  0.00    +0.000 C 
ATOM      9  C   UNL     1     109.914 129.065 135.720  0.00  0.00    +0.000 C 
ENDROOT
BRANCH   9  10
ATOM     10  O   UNL     1     110.413 128.666 135.197  0.00  0.00    +0.000 OA
BRANCH  10  14
ATOM     11  O   UNL     1     112.165 126.527 136.113  0.00  0.00    +0.000 OA
ATOM     12  O   UNL     1     109.603 125.870 134.950  0.00  0.00    +0.000 OA
ATOM     13  O   UNL     1     110.497 124.837 135.415  0.00  0.00    +0.000 OA
ATOM     14  C   UNL     1     110.566 127.862 135.306  0.00  0.00    +0.000 A 
ATOM     15  C   UNL     1     111.304 127.606 135.662  0.00  0.00    +0.000 A 
ATOM     16  C   UNL     1     109.986 127.275 135.063  0.00  0.00    +0.000 A 
ATOM     17  C   UNL     1     111.454 126.767 135.771  0.00  0.00    +0.000 A 
ATOM     18  C   UNL     1     110.898 126.204 135.538  0.00  0.00    +0.000 A 
ATOM     19  C   UNL     1     110.154 126.441 135.180  0.00  0.00    +0.000 A 
ATOM     20  C   UNL     1     111.053 125.401 135.648  0.00  0.00    +0.000 A 
ATOM     21  C   UNL     1     112.320 125.724 136.223  0.00  0.00    +0.000 A 
ATOM     22  C   UNL     1     111.765 125.161 135.990  0.00  0.00    +0.000 A 
BRANCH  21  24
ATOM     23  O   UNL     1     115.166 124.767 137.593  0.00  0.00    +0.000 OA
ATOM     24  C   UNL     1     113.032 125.484 136.566  0.00  0.00    +0.000 A 
ATOM     25  C   UNL     1     113.732 125.879 136.381  0.00  0.00    +0.000 A 
ATOM     26  C   UNL     1     113.042 124.851 137.093  0.00  0.00    +0.000 A 
ATOM     27  C   UNL     1     114.443 125.640 136.723  0.00  0.00    +0.000 A 
ATOM     28  C   UNL     1     113.754 124.612 137.436  0.00  0.00    +0.000 A 
ATOM     29  C   UNL     1     114.454 125.006 137.251  0.00  0.00    +0.000 A 
ENDBRANCH  21  24
ENDBRANCH  10  14
ENDBRANCH   9  10
BRANCH   7  30
ATOM     30  C   UNL     1     109.621 129.299 137.870  0.00  0.00    +0.000 C 
BRANCH  30  31
ATOM     31  O   UNL     1     110.070 128.674 138.168  0.00  0.00    +0.000 OA
BRANCH  31  33
ATOM     32  O   UNL     1     109.637 128.772 139.526  0.00  0.00    +0.000 OA
ATOM     33  C   UNL     1     110.235 128.633 138.975  0.00  0.00    +0.000 C 
BRANCH  33  34
ATOM     34  C   UNL     1     110.998 128.451 139.232  0.00  0.00    +0.000 C 
ATOM     35  C   UNL     1     111.225 127.665 139.329  0.00  0.00    +0.000 C 
BRANCH  35  37
ATOM     36  O   UNL     1     114.276 126.941 140.358  0.00  0.00    +0.000 OA
ATOM     37  C   UNL     1     111.987 127.483 139.587  0.00  0.00    +0.000 A 
ATOM     38  C   UNL     1     112.627 127.937 139.331  0.00  0.00    +0.000 A 
ATOM     39  C   UNL     1     112.110 126.850 140.099  0.00  0.00    +0.000 A 
ATOM     40  C   UNL     1     113.390 127.757 139.588  0.00  0.00    +0.000 A 
ATOM     41  C   UNL     1     112.872 126.669 140.356  0.00  0.00    +0.000 A 
ATOM     42  C   UNL     1     113.512 127.122 140.101  0.00  0.00    +0.000 A 
ENDBRANCH  35  37
ENDBRANCH  33  34
ENDBRANCH  31  33
ENDBRANCH  30  31
ENDBRANCH   7  30
TORSDOF 8
ENDMDL
MODEL 4
REMARK VINA RESULT:     -10.0      1.682      3.548
REMARK  Name = 131752172
REMARK  8 active torsions:
REMARK  status: ('A' for Active; 'I' for Inactive)
REMARK    1  A    between atoms: O_4  and  C_17
REMARK    2  A    between atoms: O_4  and  C_19
REMARK    3  A    between atoms: O_6  and  C_18
REMARK    4  A    between atoms: O_6  and  C_23
REMARK    5  A    between atoms: C_15  and  C_18
REMARK    6  A    between atoms: C_23  and  C_27
REMARK    7  A    between atoms: C_28  and  C_30
REMARK    8  A    between atoms: C_31  and  C_34
REMARK                            x       y       z     vdW  Elec       q    Type
REMARK                         _______ _______ _______ _____ _____    ______ ____
ROOT
ATOM      1  O   UNL     1     110.225 130.154 137.553  0.00  0.00    +0.000 OA
ATOM      2  O   UNL     1     108.317 131.215 137.516  0.00  0.00    +0.000 OA
ATOM      3  O   UNL     1     109.197 132.190 138.514  0.00  0.00    +0.000 OA
ATOM      4  O   UNL     1     110.762 131.809 138.871  0.00  0.00    +0.000 OA
ATOM      5  C   UNL     1     109.099 131.023 137.694  0.00  0.00    +0.000 C 
ATOM      6  C   UNL     1     109.540 131.512 138.194  0.00  0.00    +0.000 C 
ATOM      7  C   UNL     1     109.442 130.345 137.374  0.00  0.00    +0.000 C 
ATOM      8  C   UNL     1     110.322 131.320 138.372  0.00  0.00    +0.000 C 
ATOM      9  C   UNL     1     110.665 130.642 138.051  0.00  0.00    +0.000 C 
ENDROOT
BRANCH   9  10
ATOM     10  O   UNL     1     111.447 130.452 138.230  0.00  0.00    +0.000 OA
BRANCH  10  14
ATOM     11  O   UNL     1     112.879 128.044 137.432  0.00  0.00    +0.000 OA
ATOM     12  O   UNL     1     112.839 130.329 135.665  0.00  0.00    +0.000 OA
ATOM     13  O   UNL     1     113.538 129.119 135.303  0.00  0.00    +0.000 OA
ATOM     14  C   UNL     1     111.907 130.041 137.682  0.00  0.00    +0.000 A 
ATOM     15  C   UNL     1     112.160 129.236 137.846  0.00  0.00    +0.000 A 
ATOM     16  C   UNL     1     112.136 130.414 136.942  0.00  0.00    +0.000 A 
ATOM     17  C   UNL     1     112.639 128.816 137.269  0.00  0.00    +0.000 A 
ATOM     18  C   UNL     1     112.858 129.175 136.559  0.00  0.00    +0.000 A 
ATOM     19  C   UNL     1     112.615 129.978 136.377  0.00  0.00    +0.000 A 
ATOM     20  C   UNL     1     113.318 128.761 136.013  0.00  0.00    +0.000 A 
ATOM     21  C   UNL     1     113.338 127.630 136.886  0.00  0.00    +0.000 A 
ATOM     22  C   UNL     1     113.558 127.989 136.177  0.00  0.00    +0.000 A 
BRANCH  21  24
ATOM     23  O   UNL     1     114.298 124.541 137.540  0.00  0.00    +0.000 OA
ATOM     24  C   UNL     1     113.578 126.857 137.050  0.00  0.00    +0.000 A 
ATOM     25  C   UNL     1     113.993 126.425 136.482  0.00  0.00    +0.000 A 
ATOM     26  C   UNL     1     113.404 126.518 137.781  0.00  0.00    +0.000 A 
ATOM     27  C   UNL     1     114.232 125.654 136.646  0.00  0.00    +0.000 A 
ATOM     28  C   UNL     1     113.644 125.746 137.944  0.00  0.00    +0.000 A 
ATOM     29  C   UNL     1     114.058 125.313 137.377  0.00  0.00    +0.000 A 
ENDBRANCH  21  24
ENDBRANCH  10  14
ENDBRANCH   9  10
BRANCH   7  30
ATOM     30  C   UNL     1     109.002 129.857 136.875  0.00  0.00    +0.000 C 
BRANCH  30  31
ATOM     31  O   UNL     1     108.980 129.043 137.007  0.00  0.00    +0.000 OA
BRANCH  31  33
ATOM     32  O   UNL     1     108.263 128.747 135.808  0.00  0.00    +0.000 OA
ATOM     33  C   UNL     1     108.810 128.529 136.386  0.00  0.00    +0.000 C 
BRANCH  33  34
ATOM     34  C   UNL     1     109.186 127.796 136.341  0.00  0.00    +0.000 C 
ATOM     35  C   UNL     1     109.543 127.557 135.637  0.00  0.00    +0.000 C 
BRANCH  35  37
ATOM     36  O   UNL     1     111.047 124.625 135.461  0.00  0.00    +0.000 OA
ATOM     37  C   UNL     1     109.919 126.823 135.592  0.00  0.00    +0.000 A 
ATOM     38  C   UNL     1     109.930 126.325 136.250  0.00  0.00    +0.000 A 
ATOM     39  C   UNL     1     110.284 126.589 134.891  0.00  0.00    +0.000 A 
ATOM     40  C   UNL     1     110.306 125.592 136.206  0.00  0.00    +0.000 A 
ATOM     41  C   UNL     1     110.660 125.856 134.847  0.00  0.00    +0.000 A 
ATOM     42  C   UNL     1     110.671 125.358 135.505  0.00  0.00    +0.000 A 
ENDBRANCH  35  37
ENDBRANCH  33  34
ENDBRANCH  31  33
ENDBRANCH  30  31
ENDBRANCH   7  30
TORSDOF 8
ENDMDL
MODEL 5
REMARK VINA RESULT:      -9.9      2.061      5.749
REMARK  Name = 131752172
REMARK  8 active torsions:
REMARK  status: ('A' for Active; 'I' for Inactive)
REMARK    1  A    between atoms: O_4  and  C_17
REMARK    2  A    between atoms: O_4  and  C_19
REMARK    3  A    between atoms: O_6  and  C_18
REMARK    4  A    between atoms: O_6  and  C_23
REMARK    5  A    between atoms: C_15  and  C_18
REMARK    6  A    between atoms: C_23  and  C_27
REMARK    7  A    between atoms: C_28  and  C_30
REMARK    8  A    between atoms: C_31  and  C_34
REMARK                            x       y       z     vdW  Elec       q    Type
REMARK                         _______ _______ _______ _____ _____    ______ ____
ROOT
ATOM      1  O   UNL     1     113.054 128.906 140.763  0.00  0.00    +0.000 OA
ATOM      2  O   UNL     1     112.552 130.889 141.524  0.00  0.00    +0.000 OA
ATOM      3  O   UNL     1     112.029 129.937 142.766  0.00  0.00    +0.000 OA
ATOM      4  O   UNL     1     112.189 128.297 142.672  0.00  0.00    +0.000 OA
ATOM      5  C   UNL     1     112.632 130.070 141.477  0.00  0.00    +0.000 C 
ATOM      6  C   UNL     1     112.370 129.593 142.098  0.00  0.00    +0.000 C 
ATOM      7  C   UNL     1     112.974 129.726 140.809  0.00  0.00    +0.000 C 
ATOM      8  C   UNL     1     112.451 128.774 142.051  0.00  0.00    +0.000 C 
ATOM      9  C   UNL     1     112.792 128.430 141.383  0.00  0.00    +0.000 C 
ENDROOT
BRANCH   9  10
ATOM     10  O   UNL     1     112.872 127.610 141.337  0.00  0.00    +0.000 OA
BRANCH  10  14
ATOM     11  O   UNL     1     113.492 126.313 138.804  0.00  0.00    +0.000 OA
ATOM     12  O   UNL     1     110.749 126.448 139.701  0.00  0.00    +0.000 OA
ATOM     13  O   UNL     1     111.094 125.814 138.452  0.00  0.00    +0.000 OA
ATOM     14  C   UNL     1     112.626 127.210 140.658  0.00  0.00    +0.000 A 
ATOM     15  C   UNL     1     113.201 126.963 140.069  0.00  0.00    +0.000 A 
ATOM     16  C   UNL     1     111.793 127.036 140.536  0.00  0.00    +0.000 A 
ATOM     17  C   UNL     1     112.935 126.547 139.366  0.00  0.00    +0.000 A 
ATOM     18  C   UNL     1     112.136 126.381 139.249  0.00  0.00    +0.000 A 
ATOM     19  C   UNL     1     111.547 126.619 139.827  0.00  0.00    +0.000 A 
ATOM     20  C   UNL     1     111.894 125.980 138.570  0.00  0.00    +0.000 A 
ATOM     21  C   UNL     1     113.249 125.913 138.124  0.00  0.00    +0.000 A 
ATOM     22  C   UNL     1     112.450 125.746 138.007  0.00  0.00    +0.000 A 
BRANCH  21  24
ATOM     23  O   UNL     1     115.476 124.978 135.875  0.00  0.00    +0.000 OA
ATOM     24  C   UNL     1     113.806 125.679 137.562  0.00  0.00    +0.000 A 
ATOM     25  C   UNL     1     113.882 126.100 136.856  0.00  0.00    +0.000 A 
ATOM     26  C   UNL     1     114.287 125.024 137.706  0.00  0.00    +0.000 A 
ATOM     27  C   UNL     1     114.438 125.866 136.295  0.00  0.00    +0.000 A 
ATOM     28  C   UNL     1     114.844 124.791 137.144  0.00  0.00    +0.000 A 
ATOM     29  C   UNL     1     114.920 125.211 136.438  0.00  0.00    +0.000 A 
ENDBRANCH  21  24
ENDBRANCH  10  14
ENDBRANCH   9  10
BRANCH   7  30
ATOM     30  C   UNL     1     113.235 130.202 140.189  0.00  0.00    +0.000 C 
BRANCH  30  31
ATOM     31  O   UNL     1     113.486 129.859 139.481  0.00  0.00    +0.000 OA
BRANCH  31  33
ATOM     32  O   UNL     1     114.139 130.978 138.881  0.00  0.00    +0.000 OA
ATOM     33  C   UNL     1     113.630 130.331 138.821  0.00  0.00    +0.000 C 
BRANCH  33  34
ATOM     34  C   UNL     1     113.267 130.157 138.101  0.00  0.00    +0.000 C 
ATOM     35  C   UNL     1     113.686 129.762 137.512  0.00  0.00    +0.000 C 
BRANCH  35  37
ATOM     36  O   UNL     1     112.231 129.068 134.633  0.00  0.00    +0.000 OA
ATOM     37  C   UNL     1     113.323 129.589 136.791  0.00  0.00    +0.000 A 
ATOM     38  C   UNL     1     112.537 129.338 136.776  0.00  0.00    +0.000 A 
ATOM     39  C   UNL     1     113.744 129.665 136.087  0.00  0.00    +0.000 A 
ATOM     40  C   UNL     1     112.172 129.165 136.057  0.00  0.00    +0.000 A 
ATOM     41  C   UNL     1     113.381 129.492 135.368  0.00  0.00    +0.000 A 
ATOM     42  C   UNL     1     112.595 129.241 135.353  0.00  0.00    +0.000 A 
ENDBRANCH  35  37
ENDBRANCH  33  34
ENDBRANCH  31  33
ENDBRANCH  30  31
ENDBRANCH   7  30
TORSDOF 8
ENDMDL
MODEL 6
REMARK VINA RESULT:      -9.8      1.259      1.626
REMARK  Name = 131752172
REMARK  8 active torsions:
REMARK  status: ('A' for Active; 'I' for Inactive)
REMARK    1  A    between atoms: O_4  and  C_17
REMARK    2  A    between atoms: O_4  and  C_19
REMARK    3  A    between atoms: O_6  and  C_18
REMARK    4  A    between atoms: O_6  and  C_23
REMARK    5  A    between atoms: C_15  and  C_18
REMARK    6  A    between atoms: C_23  and  C_27
REMARK    7  A    between atoms: C_28  and  C_30
REMARK    8  A    between atoms: C_31  and  C_34
REMARK                            x       y       z     vdW  Elec       q    Type
REMARK                         _______ _______ _______ _____ _____    ______ ____
ROOT
ATOM      1  O   UNL     1     110.041 128.579 135.629  0.00  0.00    +0.000 OA
ATOM      2  O   UNL     1     107.916 128.079 135.648  0.00  0.00    +0.000 OA
ATOM      3  O   UNL     1     107.871 129.651 136.148  0.00  0.00    +0.000 OA
ATOM      4  O   UNL     1     109.272 130.508 136.302  0.00  0.00    +0.000 OA
ATOM      5  C   UNL     1     108.617 128.507 135.725  0.00  0.00    +0.000 C 
ATOM      6  C   UNL     1     108.594 129.293 135.975  0.00  0.00    +0.000 C 
ATOM      7  C   UNL     1     109.340 128.150 135.552  0.00  0.00    +0.000 C 
ATOM      8  C   UNL     1     109.295 129.722 136.051  0.00  0.00    +0.000 C 
ATOM      9  C   UNL     1     110.018 129.364 135.878  0.00  0.00    +0.000 C 
ENDROOT
BRANCH   9  10
ATOM     10  O   UNL     1     110.719 129.794 135.956  0.00  0.00    +0.000 OA
BRANCH  10  14
ATOM     11  O   UNL     1     112.362 128.462 137.958  0.00  0.00    +0.000 OA
ATOM     12  O   UNL     1     113.361 128.758 135.263  0.00  0.00    +0.000 OA
ATOM     13  O   UNL     1     114.147 128.104 136.281  0.00  0.00    +0.000 OA
ATOM     14  C   UNL     1     111.417 129.409 136.168  0.00  0.00    +0.000 A 
ATOM     15  C   UNL     1     111.530 129.129 136.972  0.00  0.00    +0.000 A 
ATOM     16  C   UNL     1     112.037 129.284 135.585  0.00  0.00    +0.000 A 
ATOM     17  C   UNL     1     112.260 128.729 137.184  0.00  0.00    +0.000 A 
ATOM     18  C   UNL     1     112.855 128.610 136.624  0.00  0.00    +0.000 A 
ATOM     19  C   UNL     1     112.760 128.882 135.815  0.00  0.00    +0.000 A 
ATOM     20  C   UNL     1     113.551 128.224 136.840  0.00  0.00    +0.000 A 
ATOM     21  C   UNL     1     113.059 128.077 138.173  0.00  0.00    +0.000 A 
ATOM     22  C   UNL     1     113.654 127.958 137.614  0.00  0.00    +0.000 A 
BRANCH  21  24
ATOM     23  O   UNL     1     113.467 127.012 141.270  0.00  0.00    +0.000 OA
ATOM     24  C   UNL     1     113.161 127.810 138.948  0.00  0.00    +0.000 A 
ATOM     25  C   UNL     1     113.400 128.337 139.537  0.00  0.00    +0.000 A 
ATOM     26  C   UNL     1     113.025 127.018 139.132  0.00  0.00    +0.000 A 
ATOM     27  C   UNL     1     113.501 128.070 140.310  0.00  0.00    +0.000 A 
ATOM     28  C   UNL     1     113.127 126.752 139.906  0.00  0.00    +0.000 A 
ATOM     29  C   UNL     1     113.365 127.278 140.496  0.00  0.00    +0.000 A 
ENDBRANCH  21  24
ENDBRANCH  10  14
ENDBRANCH   9  10
BRANCH   7  30
ATOM     30  C   UNL     1     109.363 127.364 135.302  0.00  0.00    +0.000 C 
BRANCH  30  31
ATOM     31  O   UNL     1     109.811 126.811 135.718  0.00  0.00    +0.000 OA
BRANCH  31  33
ATOM     32  O   UNL     1     109.511 125.749 134.812  0.00  0.00    +0.000 OA
ATOM     33  C   UNL     1     110.016 126.095 135.364  0.00  0.00    +0.000 C 
BRANCH  33  34
ATOM     34  C   UNL     1     110.727 125.725 135.562  0.00  0.00    +0.000 C 
ATOM     35  C   UNL     1     110.781 125.279 136.254  0.00  0.00    +0.000 C 
BRANCH  35  37
ATOM     36  O   UNL     1     113.620 123.796 137.048  0.00  0.00    +0.000 OA
ATOM     37  C   UNL     1     111.491 124.909 136.452  0.00  0.00    +0.000 A 
ATOM     38  C   UNL     1     111.516 124.375 137.080  0.00  0.00    +0.000 A 
ATOM     39  C   UNL     1     112.176 125.072 136.022  0.00  0.00    +0.000 A 
ATOM     40  C   UNL     1     112.226 124.004 137.279  0.00  0.00    +0.000 A 
ATOM     41  C   UNL     1     112.885 124.701 136.220  0.00  0.00    +0.000 A 
ATOM     42  C   UNL     1     112.910 124.167 136.849  0.00  0.00    +0.000 A 
ENDBRANCH  35  37
ENDBRANCH  33  34
ENDBRANCH  31  33
ENDBRANCH  30  31
ENDBRANCH   7  30
TORSDOF 8
ENDMDL
MODEL 7
REMARK VINA RESULT:      -9.8      1.736      3.244
REMARK  Name = 131752172
REMARK  8 active torsions:
REMARK  status: ('A' for Active; 'I' for Inactive)
REMARK    1  A    between atoms: O_4  and  C_17
REMARK    2  A    between atoms: O_4  and  C_19
REMARK    3  A    between atoms: O_6  and  C_18
REMARK    4  A    between atoms: O_6  and  C_23
REMARK    5  A    between atoms: C_15  and  C_18
REMARK    6  A    between atoms: C_23  and  C_27
REMARK    7  A    between atoms: C_28  and  C_30
REMARK    8  A    between atoms: C_31  and  C_34
REMARK                            x       y       z     vdW  Elec       q    Type
REMARK                         _______ _______ _______ _____ _____    ______ ____
ROOT
ATOM      1  O   UNL     1     109.866 128.981 136.528  0.00  0.00    +0.000 OA
ATOM      2  O   UNL     1     108.327 130.330 137.289  0.00  0.00    +0.000 OA
ATOM      3  O   UNL     1     108.195 130.590 135.665  0.00  0.00    +0.000 OA
ATOM      4  O   UNL     1     109.177 129.778 134.616  0.00  0.00    +0.000 OA
ATOM      5  C   UNL     1     108.818 129.923 136.765  0.00  0.00    +0.000 C 
ATOM      6  C   UNL     1     108.752 130.054 135.952  0.00  0.00    +0.000 C 
ATOM      7  C   UNL     1     109.375 129.387 137.053  0.00  0.00    +0.000 C 
ATOM      8  C   UNL     1     109.243 129.648 135.429  0.00  0.00    +0.000 C 
ATOM      9  C   UNL     1     109.800 129.111 135.716  0.00  0.00    +0.000 C 
ENDROOT
BRANCH   9  10
ATOM     10  O   UNL     1     110.290 128.705 135.191  0.00  0.00    +0.000 OA
BRANCH  10  14
ATOM     11  O   UNL     1     112.434 126.978 136.141  0.00  0.00    +0.000 OA
ATOM     12  O   UNL     1     113.029 129.704 135.389  0.00  0.00    +0.000 OA
ATOM     13  O   UNL     1     114.065 128.819 135.864  0.00  0.00    +0.000 OA
ATOM     14  C   UNL     1     111.085 128.588 135.378  0.00  0.00    +0.000 A 
ATOM     15  C   UNL     1     111.353 127.826 135.670  0.00  0.00    +0.000 A 
ATOM     16  C   UNL     1     111.652 129.227 135.281  0.00  0.00    +0.000 A 
ATOM     17  C   UNL     1     112.183 127.713 135.861  0.00  0.00    +0.000 A 
ATOM     18  C   UNL     1     112.726 128.327 135.769  0.00  0.00    +0.000 A 
ATOM     19  C   UNL     1     112.478 129.096 135.478  0.00  0.00    +0.000 A 
ATOM     20  C   UNL     1     113.521 128.205 135.956  0.00  0.00    +0.000 A 
ATOM     21  C   UNL     1     113.229 126.858 136.329  0.00  0.00    +0.000 A 
ATOM     22  C   UNL     1     113.772 127.471 136.236  0.00  0.00    +0.000 A 
BRANCH  21  24
ATOM     23  O   UNL     1     114.231 123.919 137.449  0.00  0.00    +0.000 OA
ATOM     24  C   UNL     1     113.480 126.123 136.609  0.00  0.00    +0.000 A 
ATOM     25  C   UNL     1     112.947 125.494 136.653  0.00  0.00    +0.000 A 
ATOM     26  C   UNL     1     114.263 126.017 136.845  0.00  0.00    +0.000 A 
ATOM     27  C   UNL     1     113.198 124.760 136.932  0.00  0.00    +0.000 A 
ATOM     28  C   UNL     1     114.513 125.283 137.125  0.00  0.00    +0.000 A 
ATOM     29  C   UNL     1     113.981 124.654 137.169  0.00  0.00    +0.000 A 
ENDBRANCH  21  24
ENDBRANCH  10  14
ENDBRANCH   9  10
BRANCH   7  30
ATOM     30  C   UNL     1     109.441 129.257 137.864  0.00  0.00    +0.000 C 
BRANCH  30  31
ATOM     31  O   UNL     1     109.886 128.622 138.146  0.00  0.00    +0.000 OA
BRANCH  31  33
ATOM     32  O   UNL     1     109.408 128.606 139.492  0.00  0.00    +0.000 OA
ATOM     33  C   UNL     1     110.030 128.545 138.954  0.00  0.00    +0.000 C 
BRANCH  33  34
ATOM     34  C   UNL     1     110.797 128.407 139.225  0.00  0.00    +0.000 C 
ATOM     35  C   UNL     1     111.045 127.639 139.390  0.00  0.00    +0.000 C 
BRANCH  35  37
ATOM     36  O   UNL     1     114.113 127.091 140.475  0.00  0.00    +0.000 OA
ATOM     37  C   UNL     1     111.812 127.501 139.662  0.00  0.00    +0.000 A 
ATOM     38  C   UNL     1     112.383 128.094 139.602  0.00  0.00    +0.000 A 
ATOM     39  C   UNL     1     112.009 126.772 139.992  0.00  0.00    +0.000 A 
ATOM     40  C   UNL     1     113.150 127.958 139.873  0.00  0.00    +0.000 A 
ATOM     41  C   UNL     1     112.775 126.635 140.263  0.00  0.00    +0.000 A 
ATOM     42  C   UNL     1     113.346 127.228 140.204  0.00  0.00    +0.000 A 
ENDBRANCH  35  37
ENDBRANCH  33  34
ENDBRANCH  31  33
ENDBRANCH  30  31
ENDBRANCH   7  30
TORSDOF 8
ENDMDL
MODEL 8
REMARK VINA RESULT:      -9.7      1.129      4.687
REMARK  Name = 131752172
REMARK  8 active torsions:
REMARK  status: ('A' for Active; 'I' for Inactive)
REMARK    1  A    between atoms: O_4  and  C_17
REMARK    2  A    between atoms: O_4  and  C_19
REMARK    3  A    between atoms: O_6  and  C_18
REMARK    4  A    between atoms: O_6  and  C_23
REMARK    5  A    between atoms: C_15  and  C_18
REMARK    6  A    between atoms: C_23  and  C_27
REMARK    7  A    between atoms: C_28  and  C_30
REMARK    8  A    between atoms: C_31  and  C_34
REMARK                            x       y       z     vdW  Elec       q    Type
REMARK                         _______ _______ _______ _____ _____    ______ ____
ROOT
ATOM      1  O   UNL     1     113.448 129.432 139.292  0.00  0.00    +0.000 OA
ATOM      2  O   UNL     1     114.546 128.766 141.057  0.00  0.00    +0.000 OA
ATOM      3  O   UNL     1     115.147 130.292 140.873  0.00  0.00    +0.000 OA
ATOM      4  O   UNL     1     114.615 131.244 139.634  0.00  0.00    +0.000 OA
ATOM      5  C   UNL     1     114.280 129.242 140.438  0.00  0.00    +0.000 C 
ATOM      6  C   UNL     1     114.581 130.005 140.346  0.00  0.00    +0.000 C 
ATOM      7  C   UNL     1     113.713 128.955 139.911  0.00  0.00    +0.000 C 
ATOM      8  C   UNL     1     114.314 130.481 139.727  0.00  0.00    +0.000 C 
ATOM      9  C   UNL     1     113.748 130.194 139.200  0.00  0.00    +0.000 C 
ENDROOT
BRANCH   9  10
ATOM     10  O   UNL     1     113.482 130.671 138.581  0.00  0.00    +0.000 OA
BRANCH  10  14
ATOM     11  O   UNL     1     111.354 129.649 136.875  0.00  0.00    +0.000 OA
ATOM     12  O   UNL     1     114.087 129.579 135.939  0.00  0.00    +0.000 OA
ATOM     13  O   UNL     1     113.006 129.082 135.122  0.00  0.00    +0.000 OA
ATOM     14  C   UNL     1     113.235 130.327 137.873  0.00  0.00    +0.000 A 
ATOM     15  C   UNL     1     112.403 130.162 137.738  0.00  0.00    +0.000 A 
ATOM     16  C   UNL     1     113.810 130.130 137.264  0.00  0.00    +0.000 A 
ATOM     17  C   UNL     1     112.155 129.804 136.998  0.00  0.00    +0.000 A 
ATOM     18  C   UNL     1     112.706 129.615 136.414  0.00  0.00    +0.000 A 
ATOM     19  C   UNL     1     113.543 129.772 136.530  0.00  0.00    +0.000 A 
ATOM     20  C   UNL     1     112.456 129.271 135.707  0.00  0.00    +0.000 A 
ATOM     21  C   UNL     1     111.104 129.305 136.168  0.00  0.00    +0.000 A 
ATOM     22  C   UNL     1     111.655 129.116 135.584  0.00  0.00    +0.000 A 
BRANCH  21  24
ATOM     23  O   UNL     1     107.900 128.685 135.678  0.00  0.00    +0.000 OA
ATOM     24  C   UNL     1     110.302 129.150 136.045  0.00  0.00    +0.000 A 
ATOM     25  C   UNL     1     109.986 128.419 136.261  0.00  0.00    +0.000 A 
ATOM     26  C   UNL     1     109.819 129.726 135.707  0.00  0.00    +0.000 A 
ATOM     27  C   UNL     1     109.185 128.265 136.139  0.00  0.00    +0.000 A 
ATOM     28  C   UNL     1     109.018 129.571 135.584  0.00  0.00    +0.000 A 
ATOM     29  C   UNL     1     108.701 128.840 135.800  0.00  0.00    +0.000 A 
ENDBRANCH  21  24
ENDBRANCH  10  14
ENDBRANCH   9  10
BRANCH   7  30
ATOM     30  C   UNL     1     113.413 128.193 140.004  0.00  0.00    +0.000 C 
BRANCH  30  31
ATOM     31  O   UNL     1     113.431 127.662 139.372  0.00  0.00    +0.000 OA
BRANCH  31  33
ATOM     32  O   UNL     1     113.050 126.502 140.113  0.00  0.00    +0.000 OA
ATOM     33  C   UNL     1     113.020 126.949 139.420  0.00  0.00    +0.000 C 
BRANCH  33  34
ATOM     34  C   UNL     1     112.579 126.682 138.776  0.00  0.00    +0.000 C 
ATOM     35  C   UNL     1     112.853 126.050 138.322  0.00  0.00    +0.000 C 
BRANCH  35  37
ATOM     36  O   UNL     1     111.091 124.981 135.744  0.00  0.00    +0.000 OA
ATOM     37  C   UNL     1     112.412 125.783 137.678  0.00  0.00    +0.000 A 
ATOM     38  C   UNL     1     112.728 125.822 136.917  0.00  0.00    +0.000 A 
ATOM     39  C   UNL     1     111.655 125.477 137.794  0.00  0.00    +0.000 A 
ATOM     40  C   UNL     1     112.289 125.555 136.272  0.00  0.00    +0.000 A 
ATOM     41  C   UNL     1     111.215 125.210 137.150  0.00  0.00    +0.000 A 
ATOM     42  C   UNL     1     111.532 125.249 136.389  0.00  0.00    +0.000 A 
ENDBRANCH  35  37
ENDBRANCH  33  34
ENDBRANCH  31  33
ENDBRANCH  30  31
ENDBRANCH   7  30
TORSDOF 8
ENDMDL
MODEL 9
REMARK VINA RESULT:      -9.7      1.823      4.233
REMARK  Name = 131752172
REMARK  8 active torsions:
REMARK  status: ('A' for Active; 'I' for Inactive)
REMARK    1  A    between atoms: O_4  and  C_17
REMARK    2  A    between atoms: O_4  and  C_19
REMARK    3  A    between atoms: O_6  and  C_18
REMARK    4  A    between atoms: O_6  and  C_23
REMARK    5  A    between atoms: C_15  and  C_18
REMARK    6  A    between atoms: C_23  and  C_27
REMARK    7  A    between atoms: C_28  and  C_30
REMARK    8  A    between atoms: C_31  and  C_34
REMARK                            x       y       z     vdW  Elec       q    Type
REMARK                         _______ _______ _______ _____ _____    ______ ____
ROOT
ATOM      1  O   UNL     1     109.983 128.783 136.691  0.00  0.00    +0.000 OA
ATOM      2  O   UNL     1     109.140 130.796 136.722  0.00  0.00    +0.000 OA
ATOM      3  O   UNL     1     107.939 129.966 135.951  0.00  0.00    +0.000 OA
ATOM      4  O   UNL     1     108.101 128.348 135.674  0.00  0.00    +0.000 OA
ATOM      5  C   UNL     1     109.221 129.987 136.583  0.00  0.00    +0.000 C 
ATOM      6  C   UNL     1     108.620 129.572 136.198  0.00  0.00    +0.000 C 
ATOM      7  C   UNL     1     109.903 129.592 136.830  0.00  0.00    +0.000 C 
ATOM      8  C   UNL     1     108.702 128.763 136.060  0.00  0.00    +0.000 C 
ATOM      9  C   UNL     1     109.384 128.368 136.306  0.00  0.00    +0.000 C 
ENDROOT
BRANCH   9  10
ATOM     10  O   UNL     1     109.464 127.559 136.167  0.00  0.00    +0.000 OA
BRANCH  10  14
ATOM     11  O   UNL     1     111.789 126.073 137.101  0.00  0.00    +0.000 OA
ATOM     12  O   UNL     1     109.378 126.093 138.692  0.00  0.00    +0.000 OA
ATOM     13  O   UNL     1     110.549 125.368 139.123  0.00  0.00    +0.000 OA
ATOM     14  C   UNL     1     109.827 127.078 136.731  0.00  0.00    +0.000 A 
ATOM     15  C   UNL     1     110.639 126.819 136.620  0.00  0.00    +0.000 A 
ATOM     16  C   UNL     1     109.396 126.833 137.434  0.00  0.00    +0.000 A 
ATOM     17  C   UNL     1     111.009 126.319 137.213  0.00  0.00    +0.000 A 
ATOM     18  C   UNL     1     110.595 126.084 137.887  0.00  0.00    +0.000 A 
ATOM     19  C   UNL     1     109.783 126.333 138.015  0.00  0.00    +0.000 A 
ATOM     20  C   UNL     1     110.962 125.603 138.448  0.00  0.00    +0.000 A 
ATOM     21  C   UNL     1     112.154 125.592 137.663  0.00  0.00    +0.000 A 
ATOM     22  C   UNL     1     111.741 125.358 138.336  0.00  0.00    +0.000 A 
BRANCH  21  24
ATOM     23  O   UNL     1     115.273 124.610 137.213  0.00  0.00    +0.000 OA
ATOM     24  C   UNL     1     112.935 125.347 137.550  0.00  0.00    +0.000 A 
ATOM     25  C   UNL     1     113.094 124.673 137.102  0.00  0.00    +0.000 A 
ATOM     26  C   UNL     1     113.554 125.775 137.886  0.00  0.00    +0.000 A 
ATOM     27  C   UNL     1     113.873 124.428 136.990  0.00  0.00    +0.000 A 
ATOM     28  C   UNL     1     114.333 125.530 137.774  0.00  0.00    +0.000 A 
ATOM     29  C   UNL     1     114.494 124.856 137.325  0.00  0.00    +0.000 A 
ENDBRANCH  21  24
ENDBRANCH  10  14
ENDBRANCH   9  10
BRANCH   7  30
ATOM     30  C   UNL     1     110.502 130.007 137.215  0.00  0.00    +0.000 C 
BRANCH  30  31
ATOM     31  O   UNL     1     110.727 129.794 137.980  0.00  0.00    +0.000 OA
BRANCH  31  33
ATOM     32  O   UNL     1     111.731 130.793 138.162  0.00  0.00    +0.000 OA
ATOM     33  C   UNL     1     111.464 130.020 138.272  0.00  0.00    +0.000 C 
BRANCH  33  34
ATOM     34  C   UNL     1     111.935 129.475 138.674  0.00  0.00    +0.000 C 
ATOM     35  C   UNL     1     112.006 129.517 139.494  0.00  0.00    +0.000 C 
BRANCH  35  37
ATOM     36  O   UNL     1     113.886 127.335 141.105  0.00  0.00    +0.000 OA
ATOM     37  C   UNL     1     112.477 128.972 139.897  0.00  0.00    +0.000 A 
ATOM     38  C   UNL     1     112.129 128.427 140.409  0.00  0.00    +0.000 A 
ATOM     39  C   UNL     1     113.294 128.971 139.787  0.00  0.00    +0.000 A 
ATOM     40  C   UNL     1     112.598 127.881 140.812  0.00  0.00    +0.000 A 
ATOM     41  C   UNL     1     113.764 128.426 140.189  0.00  0.00    +0.000 A 
ATOM     42  C   UNL     1     113.416 127.881 140.702  0.00  0.00    +0.000 A 
ENDBRANCH  35  37
ENDBRANCH  33  34
ENDBRANCH  31  33
ENDBRANCH  30  31
ENDBRANCH   7  30
TORSDOF 8
ENDMDL
MODEL 10
REMARK VINA RESULT:      -9.6      1.938      3.802
REMARK  Name = 131752172
REMARK  8 active torsions:
REMARK  status: ('A' for Active; 'I' for Inactive)
REMARK    1  A    between atoms: O_4  and  C_17
REMARK    2  A    between atoms: O_4  and  C_19
REMARK    3  A    between atoms: O_6  and  C_18
REMARK    4  A    between atoms: O_6  and  C_23
REMARK    5  A    between atoms: C_15  and  C_18
REMARK    6  A    between atoms: C_23  and  C_27
REMARK    7  A    between atoms: C_28  and  C_30
REMARK    8  A    between atoms: C_31  and  C_34
REMARK                            x       y       z     vdW  Elec       q    Type
REMARK                         _______ _______ _______ _____ _____    ______ ____
ROOT
ATOM      1  O   UNL     1     111.442 126.508 137.372  0.00  0.00    +0.000 OA
ATOM      2  O   UNL     1     111.487 124.437 138.060  0.00  0.00    +0.000 OA
ATOM      3  O   UNL     1     111.390 124.221 136.427  0.00  0.00    +0.000 OA
ATOM      4  O   UNL     1     111.328 125.530 135.424  0.00  0.00    +0.000 OA
ATOM      5  C   UNL     1     111.456 125.092 137.559  0.00  0.00    +0.000 C 
ATOM      6  C   UNL     1     111.407 124.984 136.742  0.00  0.00    +0.000 C 
ATOM      7  C   UNL     1     111.473 125.854 137.874  0.00  0.00    +0.000 C 
ATOM      8  C   UNL     1     111.376 125.638 136.241  0.00  0.00    +0.000 C 
ATOM      9  C   UNL     1     111.393 126.400 136.556  0.00  0.00    +0.000 C 
ENDROOT
BRANCH   9  10
ATOM     10  O   UNL     1     111.362 127.054 136.054  0.00  0.00    +0.000 OA
BRANCH  10  14
ATOM     11  O   UNL     1     111.322 129.788 137.058  0.00  0.00    +0.000 OA
ATOM     12  O   UNL     1     113.837 128.588 136.294  0.00  0.00    +0.000 OA
ATOM     13  O   UNL     1     113.778 129.940 136.796  0.00  0.00    +0.000 OA
ATOM     14  C   UNL     1     111.759 127.749 136.256  0.00  0.00    +0.000 A 
ATOM     15  C   UNL     1     111.324 128.424 136.559  0.00  0.00    +0.000 A 
ATOM     16  C   UNL     1     112.613 127.801 136.165  0.00  0.00    +0.000 A 
ATOM     17  C   UNL     1     111.746 129.143 136.768  0.00  0.00    +0.000 A 
ATOM     18  C   UNL     1     112.565 129.193 136.680  0.00  0.00    +0.000 A 
ATOM     19  C   UNL     1     113.018 128.528 136.378  0.00  0.00    +0.000 A 
ATOM     20  C   UNL     1     112.959 129.889 136.883  0.00  0.00    +0.000 A 
ATOM     21  C   UNL     1     111.717 130.483 137.262  0.00  0.00    +0.000 A 
ATOM     22  C   UNL     1     112.535 130.534 137.174  0.00  0.00    +0.000 A 
BRANCH  21  24
ATOM     23  O   UNL     1     110.018 133.063 138.425  0.00  0.00    +0.000 OA
ATOM     24  C   UNL     1     111.292 131.129 137.553  0.00  0.00    +0.000 A 
ATOM     25  C   UNL     1     110.927 131.083 138.291  0.00  0.00    +0.000 A 
ATOM     26  C   UNL     1     111.233 131.819 137.104  0.00  0.00    +0.000 A 
ATOM     27  C   UNL     1     110.503 131.728 138.582  0.00  0.00    +0.000 A 
ATOM     28  C   UNL     1     110.808 132.463 137.396  0.00  0.00    +0.000 A 
ATOM     29  C   UNL     1     110.443 132.418 138.134  0.00  0.00    +0.000 A 
ENDBRANCH  21  24
ENDBRANCH  10  14
ENDBRANCH   9  10
BRANCH   7  30
ATOM     30  C   UNL     1     111.521 125.962 138.690  0.00  0.00    +0.000 C 
BRANCH  30  31
ATOM     31  O   UNL     1     112.161 126.368 139.016  0.00  0.00    +0.000 OA
BRANCH  31  33
ATOM     32  O   UNL     1     111.876 126.190 140.404  0.00  0.00    +0.000 OA
ATOM     33  C   UNL     1     112.110 126.675 139.779  0.00  0.00    +0.000 C 
BRANCH  33  34
ATOM     34  C   UNL     1     112.291 127.468 139.919  0.00  0.00    +0.000 C 
ATOM     35  C   UNL     1     113.006 127.672 140.276  0.00  0.00    +0.000 C 
BRANCH  35  37
ATOM     36  O   UNL     1     113.734 130.842 140.832  0.00  0.00    +0.000 OA
ATOM     37  C   UNL     1     113.187 128.465 140.415  0.00  0.00    +0.000 A 
ATOM     38  C   UNL     1     113.933 128.757 140.219  0.00  0.00    +0.000 A 
ATOM     39  C   UNL     1     112.623 128.965 140.750  0.00  0.00    +0.000 A 
ATOM     40  C   UNL     1     114.116 129.549 140.358  0.00  0.00    +0.000 A 
ATOM     41  C   UNL     1     112.805 129.757 140.889  0.00  0.00    +0.000 A 
ATOM     42  C   UNL     1     113.551 130.049 140.693  0.00  0.00    +0.000 A 
ENDBRANCH  35  37
ENDBRANCH  33  34
ENDBRANCH  31  33
ENDBRANCH  30  31
ENDBRANCH   7  30
TORSDOF 8
ENDMDL
