MODEL 1
REMARK VINA RESULT:      -9.0      0.000      0.000
REMARK  Name = 
REMARK  5 active torsions:
REMARK  status: ('A' for Active; 'I' for Inactive)
REMARK    1  A    between atoms: C_7  and  C_12
REMARK    2  A    between atoms: C_9  and  O_13
REMARK    3  A    between atoms: C_14  and  O_18
REMARK    4  A    between atoms: O_18  and  C_21
REMARK    5  A    between atoms: C_26  and  C_29
REMARK                            x       y       z     vdW  Elec       q    Type
REMARK                         _______ _______ _______ _____ _____    ______ ____
ROOT
ATOM      1  O   UNL     1     113.591 126.780 136.514  0.00  0.00    +0.000 OA
ATOM      2  C   UNL     1     113.318 127.488 136.233  0.00  0.00    +0.000 A 
ATOM      3  C   UNL     1     112.487 127.604 136.119  0.00  0.00    +0.000 A 
ATOM      4  C   UNL     1     113.869 128.115 136.053  0.00  0.00    +0.000 A 
ATOM      5  C   UNL     1     111.970 126.985 136.299  0.00  0.00    +0.000 A 
ATOM      6  C   UNL     1     112.206 128.313 135.836  0.00  0.00    +0.000 A 
ATOM      7  C   UNL     1     113.574 128.852 135.760  0.00  0.00    +0.000 A 
ATOM      8  O   UNL     1     112.261 126.262 136.587  0.00  0.00    +0.000 OA
ATOM      9  C   UNL     1     111.170 127.084 136.193  0.00  0.00    +0.000 A 
ATOM     10  O   UNL     1     112.745 128.948 135.653  0.00  0.00    +0.000 OA
ATOM     11  C   UNL     1     111.406 128.411 135.731  0.00  0.00    +0.000 A 
ATOM     12  C   UNL     1     110.890 127.793 135.911  0.00  0.00    +0.000 A 
ENDROOT
BRANCH   7  13
ATOM     13  C   UNL     1     114.101 129.456 135.586  0.00  0.00    +0.000 A 
ATOM     14  C   UNL     1     114.456 129.496 134.840  0.00  0.00    +0.000 A 
ATOM     15  C   UNL     1     114.269 130.011 136.149  0.00  0.00    +0.000 A 
ATOM     16  C   UNL     1     114.982 130.100 134.666  0.00  0.00    +0.000 A 
ATOM     17  C   UNL     1     114.796 130.615 135.976  0.00  0.00    +0.000 A 
ATOM     18  C   UNL     1     115.150 130.654 135.230  0.00  0.00    +0.000 A 
ATOM     19  O   UNL     1     115.677 131.258 135.056  0.00  0.00    +0.000 OA
ENDBRANCH   7  13
BRANCH   9  20
ATOM     20  O   UNL     1     110.654 126.465 136.373  0.00  0.00    +0.000 OA
ATOM     21  C   UNL     1     110.625 125.785 135.894  0.00  0.00    +0.000 C 
ENDBRANCH   9  20
BRANCH  12  22
ATOM     22  O   UNL     1     110.089 127.891 135.805  0.00  0.00    +0.000 OA
BRANCH  22  23
ATOM     23  C   UNL     1     109.707 128.536 136.150  0.00  0.00    +0.000 C 
ATOM     24  O   UNL     1     109.839 128.731 136.947  0.00  0.00    +0.000 OA
ATOM     25  C   UNL     1     109.195 128.986 135.705  0.00  0.00    +0.000 C 
ATOM     26  C   UNL     1     109.457 129.377 137.291  0.00  0.00    +0.000 C 
ATOM     27  O   UNL     1     109.068 128.792 134.925  0.00  0.00    +0.000 OA
ATOM     28  C   UNL     1     108.812 129.632 136.049  0.00  0.00    +0.000 C 
ATOM     29  C   UNL     1     108.944 129.827 136.847  0.00  0.00    +0.000 C 
ATOM     30  O   UNL     1     108.300 130.082 135.605  0.00  0.00    +0.000 OA
ATOM     31  O   UNL     1     108.563 130.471 137.191  0.00  0.00    +0.000 OA
BRANCH  26  32
ATOM     32  C   UNL     1     109.589 129.571 138.088  0.00  0.00    +0.000 C 
ATOM     33  O   UNL     1     109.177 129.183 138.691  0.00  0.00    +0.000 OA
ATOM     34  O   UNL     1     110.135 130.156 138.293  0.00  0.00    +0.000 OA
ENDBRANCH  26  32
ENDBRANCH  22  23
ENDBRANCH  12  22
TORSDOF 5
ENDMDL
MODEL 2
REMARK VINA RESULT:      -9.0      3.578      4.930
REMARK  Name = 
REMARK  5 active torsions:
REMARK  status: ('A' for Active; 'I' for Inactive)
REMARK    1  A    between atoms: C_7  and  C_12
REMARK    2  A    between atoms: C_9  and  O_13
REMARK    3  A    between atoms: C_14  and  O_18
REMARK    4  A    between atoms: O_18  and  C_21
REMARK    5  A    between atoms: C_26  and  C_29
REMARK                            x       y       z     vdW  Elec       q    Type
REMARK                         _______ _______ _______ _____ _____    ______ ____
ROOT
ATOM      1  O   UNL     1     111.403 125.317 138.632  0.00  0.00    +0.000 OA
ATOM      2  C   UNL     1     112.117 125.694 138.573  0.00  0.00    +0.000 A 
ATOM      3  C   UNL     1     112.303 126.329 139.102  0.00  0.00    +0.000 A 
ATOM      4  C   UNL     1     112.677 125.452 137.977  0.00  0.00    +0.000 A 
ATOM      5  C   UNL     1     111.748 126.548 139.672  0.00  0.00    +0.000 A 
ATOM      6  C   UNL     1     113.019 126.711 139.047  0.00  0.00    +0.000 A 
ATOM      7  C   UNL     1     113.421 125.852 137.922  0.00  0.00    +0.000 A 
ATOM      8  O   UNL     1     111.018 126.154 139.724  0.00  0.00    +0.000 OA
ATOM      9  C   UNL     1     111.915 127.155 140.186  0.00  0.00    +0.000 A 
ATOM     10  O   UNL     1     113.589 126.479 138.456  0.00  0.00    +0.000 OA
ATOM     11  C   UNL     1     113.186 127.318 139.562  0.00  0.00    +0.000 A 
ATOM     12  C   UNL     1     112.631 127.538 140.131  0.00  0.00    +0.000 A 
ENDROOT
BRANCH   7  13
ATOM     13  C   UNL     1     113.962 125.621 137.350  0.00  0.00    +0.000 A 
ATOM     14  C   UNL     1     114.034 126.052 136.648  0.00  0.00    +0.000 A 
ATOM     15  C   UNL     1     114.422 124.969 137.479  0.00  0.00    +0.000 A 
ATOM     16  C   UNL     1     114.575 125.821 136.077  0.00  0.00    +0.000 A 
ATOM     17  C   UNL     1     114.963 124.738 136.908  0.00  0.00    +0.000 A 
ATOM     18  C   UNL     1     115.034 125.170 136.206  0.00  0.00    +0.000 A 
ATOM     19  O   UNL     1     115.575 124.939 135.635  0.00  0.00    +0.000 OA
ENDBRANCH   7  13
BRANCH   9  20
ATOM     20  O   UNL     1     111.359 127.375 140.755  0.00  0.00    +0.000 OA
ATOM     21  C   UNL     1     111.203 126.883 141.407  0.00  0.00    +0.000 C 
ENDBRANCH   9  20
BRANCH  12  22
ATOM     22  O   UNL     1     112.798 128.146 140.646  0.00  0.00    +0.000 OA
BRANCH  22  23
ATOM     23  C   UNL     1     113.114 128.851 140.357  0.00  0.00    +0.000 C 
ATOM     24  O   UNL     1     112.728 129.274 139.755  0.00  0.00    +0.000 OA
ATOM     25  C   UNL     1     113.811 129.136 140.666  0.00  0.00    +0.000 C 
ATOM     26  C   UNL     1     113.045 129.980 139.467  0.00  0.00    +0.000 C 
ATOM     27  O   UNL     1     114.186 128.720 141.256  0.00  0.00    +0.000 OA
ATOM     28  C   UNL     1     114.128 129.842 140.378  0.00  0.00    +0.000 C 
ATOM     29  C   UNL     1     113.742 130.265 139.775  0.00  0.00    +0.000 C 
ATOM     30  O   UNL     1     114.825 130.128 140.686  0.00  0.00    +0.000 OA
ATOM     31  O   UNL     1     114.058 130.970 139.487  0.00  0.00    +0.000 OA
BRANCH  26  32
ATOM     32  C   UNL     1     112.658 130.402 138.864  0.00  0.00    +0.000 C 
ATOM     33  O   UNL     1     112.882 130.308 138.074  0.00  0.00    +0.000 OA
ATOM     34  O   UNL     1     112.044 130.924 139.043  0.00  0.00    +0.000 OA
ENDBRANCH  26  32
ENDBRANCH  22  23
ENDBRANCH  12  22
TORSDOF 5
ENDMDL
MODEL 3
REMARK VINA RESULT:      -8.9      9.752     12.800
REMARK  Name = 
REMARK  5 active torsions:
REMARK  status: ('A' for Active; 'I' for Inactive)
REMARK    1  A    between atoms: C_7  and  C_12
REMARK    2  A    between atoms: C_9  and  O_13
REMARK    3  A    between atoms: C_14  and  O_18
REMARK    4  A    between atoms: O_18  and  C_21
REMARK    5  A    between atoms: C_26  and  C_29
REMARK                            x       y       z     vdW  Elec       q    Type
REMARK                         _______ _______ _______ _____ _____    ______ ____
ROOT
ATOM      1  O   UNL     1     105.635 123.993 147.807  0.00  0.00    +0.000 OA
ATOM      2  C   UNL     1     105.127 124.307 147.260  0.00  0.00    +0.000 A 
ATOM      3  C   UNL     1     105.398 124.910 146.731  0.00  0.00    +0.000 A 
ATOM      4  C   UNL     1     104.322 124.028 147.219  0.00  0.00    +0.000 A 
ATOM      5  C   UNL     1     106.181 125.166 146.786  0.00  0.00    +0.000 A 
ATOM      6  C   UNL     1     104.893 125.229 146.179  0.00  0.00    +0.000 A 
ATOM      7  C   UNL     1     103.798 124.362 146.644  0.00  0.00    +0.000 A 
ATOM      8  O   UNL     1     106.695 124.837 147.351  0.00  0.00    +0.000 OA
ATOM      9  C   UNL     1     106.453 125.745 146.284  0.00  0.00    +0.000 A 
ATOM     10  O   UNL     1     104.085 124.960 146.127  0.00  0.00    +0.000 OA
ATOM     11  C   UNL     1     105.165 125.808 145.677  0.00  0.00    +0.000 A 
ATOM     12  C   UNL     1     105.947 126.064 145.733  0.00  0.00    +0.000 A 
ENDROOT
BRANCH   7  13
ATOM     13  C   UNL     1     103.023 124.096 146.602  0.00  0.00    +0.000 A 
ATOM     14  C   UNL     1     102.838 123.425 146.157  0.00  0.00    +0.000 A 
ATOM     15  C   UNL     1     102.444 124.496 147.000  0.00  0.00    +0.000 A 
ATOM     16  C   UNL     1     102.063 123.159 146.115  0.00  0.00    +0.000 A 
ATOM     17  C   UNL     1     101.670 124.231 146.958  0.00  0.00    +0.000 A 
ATOM     18  C   UNL     1     101.485 123.559 146.512  0.00  0.00    +0.000 A 
ATOM     19  O   UNL     1     100.711 123.293 146.471  0.00  0.00    +0.000 OA
ENDBRANCH   7  13
BRANCH   9  20
ATOM     20  O   UNL     1     107.236 126.001 146.340  0.00  0.00    +0.000 OA
ATOM     21  C   UNL     1     107.484 126.471 146.980  0.00  0.00    +0.000 C 
ENDBRANCH   9  20
BRANCH  12  22
ATOM     22  O   UNL     1     106.220 126.643 145.230  0.00  0.00    +0.000 OA
BRANCH  22  23
ATOM     23  C   UNL     1     106.058 126.595 144.423  0.00  0.00    +0.000 C 
ATOM     24  O   UNL     1     106.205 125.893 144.003  0.00  0.00    +0.000 OA
ATOM     25  C   UNL     1     105.751 127.240 144.034  0.00  0.00    +0.000 C 
ATOM     26  C   UNL     1     106.042 125.845 143.195  0.00  0.00    +0.000 C 
ATOM     27  O   UNL     1     105.608 127.925 144.449  0.00  0.00    +0.000 OA
ATOM     28  C   UNL     1     105.588 127.192 143.226  0.00  0.00    +0.000 C 
ATOM     29  C   UNL     1     105.735 126.490 142.805  0.00  0.00    +0.000 C 
ATOM     30  O   UNL     1     105.281 127.837 142.837  0.00  0.00    +0.000 OA
ATOM     31  O   UNL     1     105.572 126.442 141.998  0.00  0.00    +0.000 OA
BRANCH  26  32
ATOM     32  C   UNL     1     106.189 125.143 142.775  0.00  0.00    +0.000 C 
ATOM     33  O   UNL     1     106.944 124.979 142.480  0.00  0.00    +0.000 OA
ATOM     34  O   UNL     1     105.585 124.596 142.644  0.00  0.00    +0.000 OA
ENDBRANCH  26  32
ENDBRANCH  22  23
ENDBRANCH  12  22
TORSDOF 5
ENDMDL
MODEL 4
REMARK VINA RESULT:      -8.9      7.561     10.239
REMARK  Name = 
REMARK  5 active torsions:
REMARK  status: ('A' for Active; 'I' for Inactive)
REMARK    1  A    between atoms: C_7  and  C_12
REMARK    2  A    between atoms: C_9  and  O_13
REMARK    3  A    between atoms: C_14  and  O_18
REMARK    4  A    between atoms: O_18  and  C_21
REMARK    5  A    between atoms: C_26  and  C_29
REMARK                            x       y       z     vdW  Elec       q    Type
REMARK                         _______ _______ _______ _____ _____    ______ ____
ROOT
ATOM      1  O   UNL     1     106.996 128.573 141.391  0.00  0.00    +0.000 OA
ATOM      2  C   UNL     1     106.343 128.333 141.806  0.00  0.00    +0.000 A 
ATOM      3  C   UNL     1     106.307 127.545 142.115  0.00  0.00    +0.000 A 
ATOM      4  C   UNL     1     105.694 128.874 141.929  0.00  0.00    +0.000 A 
ATOM      5  C   UNL     1     106.945 127.037 141.986  0.00  0.00    +0.000 A 
ATOM      6  C   UNL     1     105.654 127.298 142.532  0.00  0.00    +0.000 A 
ATOM      7  C   UNL     1     105.016 128.613 142.363  0.00  0.00    +0.000 A 
ATOM      8  O   UNL     1     107.611 127.294 141.559  0.00  0.00    +0.000 OA
ATOM      9  C   UNL     1     106.923 126.279 142.278  0.00  0.00    +0.000 A 
ATOM     10  O   UNL     1     104.999 127.828 142.662  0.00  0.00    +0.000 OA
ATOM     11  C   UNL     1     105.632 126.539 142.824  0.00  0.00    +0.000 A 
ATOM     12  C   UNL     1     106.269 126.031 142.695  0.00  0.00    +0.000 A 
ENDROOT
BRANCH   7  13
ATOM     13  C   UNL     1     104.391 129.131 142.482  0.00  0.00    +0.000 A 
ATOM     14  C   UNL     1     104.319 129.536 143.200  0.00  0.00    +0.000 A 
ATOM     15  C   UNL     1     103.848 129.241 141.894  0.00  0.00    +0.000 A 
ATOM     16  C   UNL     1     103.694 130.053 143.319  0.00  0.00    +0.000 A 
ATOM     17  C   UNL     1     103.224 129.758 142.014  0.00  0.00    +0.000 A 
ATOM     18  C   UNL     1     103.152 130.163 142.731  0.00  0.00    +0.000 A 
ATOM     19  O   UNL     1     102.527 130.680 142.851  0.00  0.00    +0.000 OA
ENDBRANCH   7  13
BRANCH   9  20
ATOM     20  O   UNL     1     107.561 125.771 142.148  0.00  0.00    +0.000 OA
ATOM     21  C   UNL     1     107.717 125.473 141.387  0.00  0.00    +0.000 C 
ENDBRANCH   9  20
BRANCH  12  22
ATOM     22  O   UNL     1     106.248 125.272 142.987  0.00  0.00    +0.000 OA
BRANCH  22  23
ATOM     23  C   UNL     1     106.041 125.142 143.775  0.00  0.00    +0.000 C 
ATOM     24  O   UNL     1     106.390 125.588 144.383  0.00  0.00    +0.000 OA
ATOM     25  C   UNL     1     105.490 124.572 143.958  0.00  0.00    +0.000 C 
ATOM     26  C   UNL     1     106.182 125.458 145.172  0.00  0.00    +0.000 C 
ATOM     27  O   UNL     1     105.151 124.138 143.360  0.00  0.00    +0.000 OA
ATOM     28  C   UNL     1     105.282 124.442 144.747  0.00  0.00    +0.000 C 
ATOM     29  C   UNL     1     105.631 124.888 145.356  0.00  0.00    +0.000 C 
ATOM     30  O   UNL     1     104.732 123.873 144.931  0.00  0.00    +0.000 OA
ATOM     31  O   UNL     1     105.424 124.759 146.143  0.00  0.00    +0.000 OA
BRANCH  26  32
ATOM     32  C   UNL     1     106.531 125.904 145.780  0.00  0.00    +0.000 C 
ATOM     33  O   UNL     1     106.168 126.594 146.058  0.00  0.00    +0.000 OA
ATOM     34  O   UNL     1     107.246 125.668 146.119  0.00  0.00    +0.000 OA
ENDBRANCH  26  32
ENDBRANCH  22  23
ENDBRANCH  12  22
TORSDOF 5
ENDMDL
MODEL 5
REMARK VINA RESULT:      -8.8      1.738      2.264
REMARK  Name = 
REMARK  5 active torsions:
REMARK  status: ('A' for Active; 'I' for Inactive)
REMARK    1  A    between atoms: C_7  and  C_12
REMARK    2  A    between atoms: C_9  and  O_13
REMARK    3  A    between atoms: C_14  and  O_18
REMARK    4  A    between atoms: O_18  and  C_21
REMARK    5  A    between atoms: C_26  and  C_29
REMARK                            x       y       z     vdW  Elec       q    Type
REMARK                         _______ _______ _______ _____ _____    ______ ____
ROOT
ATOM      1  O   UNL     1     114.397 125.841 137.254  0.00  0.00    +0.000 OA
ATOM      2  C   UNL     1     113.915 126.344 136.841  0.00  0.00    +0.000 A 
ATOM      3  C   UNL     1     113.138 126.092 136.614  0.00  0.00    +0.000 A 
ATOM      4  C   UNL     1     114.192 127.124 136.635  0.00  0.00    +0.000 A 
ATOM      5  C   UNL     1     112.889 125.333 136.823  0.00  0.00    +0.000 A 
ATOM      6  C   UNL     1     112.650 126.593 136.199  0.00  0.00    +0.000 A 
ATOM      7  C   UNL     1     113.682 127.643 136.203  0.00  0.00    +0.000 A 
ATOM      8  O   UNL     1     113.391 124.825 137.247  0.00  0.00    +0.000 OA
ATOM      9  C   UNL     1     112.146 125.081 136.611  0.00  0.00    +0.000 A 
ATOM     10  O   UNL     1     112.914 127.376 135.987  0.00  0.00    +0.000 OA
ATOM     11  C   UNL     1     111.907 126.340 135.988  0.00  0.00    +0.000 A 
ATOM     12  C   UNL     1     111.658 125.582 136.196  0.00  0.00    +0.000 A 
ENDROOT
BRANCH   7  13
ATOM     13  C   UNL     1     113.945 128.394 136.004  0.00  0.00    +0.000 A 
ATOM     14  C   UNL     1     114.418 128.504 135.335  0.00  0.00    +0.000 A 
ATOM     15  C   UNL     1     113.739 129.023 136.467  0.00  0.00    +0.000 A 
ATOM     16  C   UNL     1     114.682 129.255 135.136  0.00  0.00    +0.000 A 
ATOM     17  C   UNL     1     114.002 129.774 136.268  0.00  0.00    +0.000 A 
ATOM     18  C   UNL     1     114.475 129.883 135.599  0.00  0.00    +0.000 A 
ATOM     19  O   UNL     1     114.738 130.634 135.400  0.00  0.00    +0.000 OA
ENDBRANCH   7  13
BRANCH   9  20
ATOM     20  O   UNL     1     111.897 124.322 136.820  0.00  0.00    +0.000 OA
ATOM     21  C   UNL     1     112.238 123.651 136.465  0.00  0.00    +0.000 C 
ENDBRANCH   9  20
BRANCH  12  22
ATOM     22  O   UNL     1     110.914 125.328 135.985  0.00  0.00    +0.000 OA
BRANCH  22  23
ATOM     23  C   UNL     1     110.263 125.819 136.111  0.00  0.00    +0.000 C 
ATOM     24  O   UNL     1     110.110 126.135 136.865  0.00  0.00    +0.000 OA
ATOM     25  C   UNL     1     109.765 125.995 135.492  0.00  0.00    +0.000 C 
ATOM     26  C   UNL     1     109.459 126.626 136.991  0.00  0.00    +0.000 C 
ATOM     27  O   UNL     1     109.917 125.684 134.756  0.00  0.00    +0.000 OA
ATOM     28  C   UNL     1     109.113 126.486 135.618  0.00  0.00    +0.000 C 
ATOM     29  C   UNL     1     108.960 126.803 136.372  0.00  0.00    +0.000 C 
ATOM     30  O   UNL     1     108.615 126.663 135.000  0.00  0.00    +0.000 OA
ATOM     31  O   UNL     1     108.310 127.293 136.498  0.00  0.00    +0.000 OA
BRANCH  26  32
ATOM     32  C   UNL     1     109.306 126.942 137.744  0.00  0.00    +0.000 C 
ATOM     33  O   UNL     1     108.944 126.482 138.328  0.00  0.00    +0.000 OA
ATOM     34  O   UNL     1     109.514 127.720 137.924  0.00  0.00    +0.000 OA
ENDBRANCH  26  32
ENDBRANCH  22  23
ENDBRANCH  12  22
TORSDOF 5
ENDMDL
MODEL 6
REMARK VINA RESULT:      -8.8      2.711      4.331
REMARK  Name = 
REMARK  5 active torsions:
REMARK  status: ('A' for Active; 'I' for Inactive)
REMARK    1  A    between atoms: C_7  and  C_12
REMARK    2  A    between atoms: C_9  and  O_13
REMARK    3  A    between atoms: C_14  and  O_18
REMARK    4  A    between atoms: O_18  and  C_21
REMARK    5  A    between atoms: C_26  and  C_29
REMARK                            x       y       z     vdW  Elec       q    Type
REMARK                         _______ _______ _______ _____ _____    ______ ____
ROOT
ATOM      1  O   UNL     1     110.286 125.299 134.946  0.00  0.00    +0.000 OA
ATOM      2  C   UNL     1     110.506 125.954 135.368  0.00  0.00    +0.000 A 
ATOM      3  C   UNL     1     110.994 125.868 136.055  0.00  0.00    +0.000 A 
ATOM      4  C   UNL     1     110.246 126.728 135.118  0.00  0.00    +0.000 A 
ATOM      5  C   UNL     1     111.235 125.111 136.280  0.00  0.00    +0.000 A 
ATOM      6  C   UNL     1     111.219 126.523 136.483  0.00  0.00    +0.000 A 
ATOM      7  C   UNL     1     110.482 127.407 135.565  0.00  0.00    +0.000 A 
ATOM      8  O   UNL     1     111.003 124.446 135.840  0.00  0.00    +0.000 OA
ATOM      9  C   UNL     1     111.703 125.016 136.938  0.00  0.00    +0.000 A 
ATOM     10  O   UNL     1     110.966 127.302 136.244  0.00  0.00    +0.000 OA
ATOM     11  C   UNL     1     111.687 126.427 137.140  0.00  0.00    +0.000 A 
ATOM     12  C   UNL     1     111.928 125.670 137.365  0.00  0.00    +0.000 A 
ENDROOT
BRANCH   7  13
ATOM     13  C   UNL     1     110.233 128.152 135.328  0.00  0.00    +0.000 A 
ATOM     14  C   UNL     1     110.721 128.620 134.852  0.00  0.00    +0.000 A 
ATOM     15  C   UNL     1     109.509 128.423 135.563  0.00  0.00    +0.000 A 
ATOM     16  C   UNL     1     110.473 129.365 134.614  0.00  0.00    +0.000 A 
ATOM     17  C   UNL     1     109.261 129.167 135.325  0.00  0.00    +0.000 A 
ATOM     18  C   UNL     1     109.750 129.635 134.849  0.00  0.00    +0.000 A 
ATOM     19  O   UNL     1     109.501 130.379 134.612  0.00  0.00    +0.000 OA
ENDBRANCH   7  13
BRANCH   9  20
ATOM     20  O   UNL     1     111.944 124.259 137.162  0.00  0.00    +0.000 OA
ATOM     21  C   UNL     1     112.518 123.849 136.722  0.00  0.00    +0.000 C 
ENDBRANCH   9  20
BRANCH  12  22
ATOM     22  O   UNL     1     112.397 125.574 138.024  0.00  0.00    +0.000 OA
BRANCH  22  23
ATOM     23  C   UNL     1     112.187 125.941 138.732  0.00  0.00    +0.000 C 
ATOM     24  O   UNL     1     111.411 125.884 139.026  0.00  0.00    +0.000 OA
ATOM     25  C   UNL     1     112.746 126.362 139.148  0.00  0.00    +0.000 C 
ATOM     26  C   UNL     1     111.203 126.252 139.735  0.00  0.00    +0.000 C 
ATOM     27  O   UNL     1     113.504 126.415 138.858  0.00  0.00    +0.000 OA
ATOM     28  C   UNL     1     112.537 126.730 139.858  0.00  0.00    +0.000 C 
ATOM     29  C   UNL     1     111.760 126.673 140.152  0.00  0.00    +0.000 C 
ATOM     30  O   UNL     1     113.094 127.151 140.274  0.00  0.00    +0.000 OA
ATOM     31  O   UNL     1     111.552 127.040 140.860  0.00  0.00    +0.000 OA
BRANCH  26  32
ATOM     32  C   UNL     1     110.427 126.195 140.028  0.00  0.00    +0.000 C 
ATOM     33  O   UNL     1     109.876 126.794 139.880  0.00  0.00    +0.000 OA
ATOM     34  O   UNL     1     110.192 125.540 140.472  0.00  0.00    +0.000 OA
ENDBRANCH  26  32
ENDBRANCH  22  23
ENDBRANCH  12  22
TORSDOF 5
ENDMDL
MODEL 7
REMARK VINA RESULT:      -8.8      1.382      3.343
REMARK  Name = 
REMARK  5 active torsions:
REMARK  status: ('A' for Active; 'I' for Inactive)
REMARK    1  A    between atoms: C_7  and  C_12
REMARK    2  A    between atoms: C_9  and  O_13
REMARK    3  A    between atoms: C_14  and  O_18
REMARK    4  A    between atoms: O_18  and  C_21
REMARK    5  A    between atoms: C_26  and  C_29
REMARK                            x       y       z     vdW  Elec       q    Type
REMARK                         _______ _______ _______ _____ _____    ______ ____
ROOT
ATOM      1  O   UNL     1     110.615 130.156 136.219  0.00  0.00    +0.000 OA
ATOM      2  C   UNL     1     111.174 129.596 136.048  0.00  0.00    +0.000 A 
ATOM      3  C   UNL     1     110.958 128.777 136.029  0.00  0.00    +0.000 A 
ATOM      4  C   UNL     1     111.978 129.834 135.887  0.00  0.00    +0.000 A 
ATOM      5  C   UNL     1     110.175 128.568 136.187  0.00  0.00    +0.000 A 
ATOM      6  C   UNL     1     111.516 128.210 135.858  0.00  0.00    +0.000 A 
ATOM      7  C   UNL     1     112.556 129.242 135.710  0.00  0.00    +0.000 A 
ATOM      8  O   UNL     1     109.609 129.151 136.361  0.00  0.00    +0.000 OA
ATOM      9  C   UNL     1     109.956 127.785 136.172  0.00  0.00    +0.000 A 
ATOM     10  O   UNL     1     112.323 128.433 135.696  0.00  0.00    +0.000 OA
ATOM     11  C   UNL     1     111.296 127.428 135.843  0.00  0.00    +0.000 A 
ATOM     12  C   UNL     1     110.514 127.218 136.001  0.00  0.00    +0.000 A 
ENDROOT
BRANCH   7  13
ATOM     13  C   UNL     1     113.329 129.467 135.555  0.00  0.00    +0.000 A 
ATOM     14  C   UNL     1     113.643 129.382 134.795  0.00  0.00    +0.000 A 
ATOM     15  C   UNL     1     113.781 129.772 136.152  0.00  0.00    +0.000 A 
ATOM     16  C   UNL     1     114.416 129.607 134.640  0.00  0.00    +0.000 A 
ATOM     17  C   UNL     1     114.554 129.997 135.998  0.00  0.00    +0.000 A 
ATOM     18  C   UNL     1     114.867 129.911 135.237  0.00  0.00    +0.000 A 
ATOM     19  O   UNL     1     115.640 130.137 135.082  0.00  0.00    +0.000 OA
ENDBRANCH   7  13
BRANCH   9  20
ATOM     20  O   UNL     1     109.173 127.576 136.330  0.00  0.00    +0.000 OA
ATOM     21  C   UNL     1     108.570 127.752 135.785  0.00  0.00    +0.000 C 
ENDBRANCH   9  20
BRANCH  12  22
ATOM     22  O   UNL     1     110.294 126.435 135.986  0.00  0.00    +0.000 OA
BRANCH  22  23
ATOM     23  C   UNL     1     110.705 125.885 136.445  0.00  0.00    +0.000 C 
ATOM     24  O   UNL     1     110.843 126.026 137.252  0.00  0.00    +0.000 OA
ATOM     25  C   UNL     1     110.977 125.199 136.103  0.00  0.00    +0.000 C 
ATOM     26  C   UNL     1     111.254 125.476 137.710  0.00  0.00    +0.000 C 
ATOM     27  O   UNL     1     110.840 125.065 135.312  0.00  0.00    +0.000 OA
ATOM     28  C   UNL     1     111.389 124.649 136.561  0.00  0.00    +0.000 C 
ATOM     29  C   UNL     1     111.527 124.789 137.369  0.00  0.00    +0.000 C 
ATOM     30  O   UNL     1     111.661 123.963 136.220  0.00  0.00    +0.000 OA
ATOM     31  O   UNL     1     111.938 124.240 137.827  0.00  0.00    +0.000 OA
BRANCH  26  32
ATOM     32  C   UNL     1     111.392 125.617 138.517  0.00  0.00    +0.000 C 
ATOM     33  O   UNL     1     112.094 125.977 138.768  0.00  0.00    +0.000 OA
ATOM     34  O   UNL     1     110.833 125.401 139.084  0.00  0.00    +0.000 OA
ENDBRANCH  26  32
ENDBRANCH  22  23
ENDBRANCH  12  22
TORSDOF 5
ENDMDL
MODEL 8
REMARK VINA RESULT:      -8.7      1.632      4.619
REMARK  Name = 
REMARK  5 active torsions:
REMARK  status: ('A' for Active; 'I' for Inactive)
REMARK    1  A    between atoms: C_7  and  C_12
REMARK    2  A    between atoms: C_9  and  O_13
REMARK    3  A    between atoms: C_14  and  O_18
REMARK    4  A    between atoms: O_18  and  C_21
REMARK    5  A    between atoms: C_26  and  C_29
REMARK                            x       y       z     vdW  Elec       q    Type
REMARK                         _______ _______ _______ _____ _____    ______ ____
ROOT
ATOM      1  O   UNL     1     110.093 126.563 134.622  0.00  0.00    +0.000 OA
ATOM      2  C   UNL     1     110.658 126.600 135.201  0.00  0.00    +0.000 A 
ATOM      3  C   UNL     1     110.899 127.352 135.508  0.00  0.00    +0.000 A 
ATOM      4  C   UNL     1     111.009 125.881 135.499  0.00  0.00    +0.000 A 
ATOM      5  C   UNL     1     110.547 128.036 135.206  0.00  0.00    +0.000 A 
ATOM      6  C   UNL     1     111.466 127.395 136.090  0.00  0.00    +0.000 A 
ATOM      7  C   UNL     1     111.598 125.929 136.104  0.00  0.00    +0.000 A 
ATOM      8  O   UNL     1     109.968 127.987 134.612  0.00  0.00    +0.000 OA
ATOM      9  C   UNL     1     110.770 128.763 135.493  0.00  0.00    +0.000 A 
ATOM     10  O   UNL     1     111.824 126.685 136.397  0.00  0.00    +0.000 OA
ATOM     11  C   UNL     1     111.687 128.123 136.376  0.00  0.00    +0.000 A 
ATOM     12  C   UNL     1     111.337 128.807 136.075  0.00  0.00    +0.000 A 
ENDROOT
BRANCH   7  13
ATOM     13  C   UNL     1     111.937 125.240 136.393  0.00  0.00    +0.000 A 
ATOM     14  C   UNL     1     112.742 125.092 136.275  0.00  0.00    +0.000 A 
ATOM     15  C   UNL     1     111.477 124.709 136.792  0.00  0.00    +0.000 A 
ATOM     16  C   UNL     1     113.080 124.403 136.563  0.00  0.00    +0.000 A 
ATOM     17  C   UNL     1     111.816 124.020 137.081  0.00  0.00    +0.000 A 
ATOM     18  C   UNL     1     112.621 123.873 136.962  0.00  0.00    +0.000 A 
ATOM     19  O   UNL     1     112.959 123.184 137.251  0.00  0.00    +0.000 OA
ENDBRANCH   7  13
BRANCH   9  20
ATOM     20  O   UNL     1     110.419 129.447 135.191  0.00  0.00    +0.000 OA
ATOM     21  C   UNL     1     109.632 129.639 135.382  0.00  0.00    +0.000 C 
ENDBRANCH   9  20
BRANCH  12  22
ATOM     22  O   UNL     1     111.559 129.535 136.361  0.00  0.00    +0.000 OA
BRANCH  22  23
ATOM     23  C   UNL     1     112.360 129.722 136.428  0.00  0.00    +0.000 C 
ATOM     24  O   UNL     1     112.887 129.558 135.807  0.00  0.00    +0.000 OA
ATOM     25  C   UNL     1     112.637 130.070 137.110  0.00  0.00    +0.000 C 
ATOM     26  C   UNL     1     113.688 129.745 135.875  0.00  0.00    +0.000 C 
ATOM     27  O   UNL     1     112.118 130.229 137.715  0.00  0.00    +0.000 OA
ATOM     28  C   UNL     1     113.438 130.257 137.178  0.00  0.00    +0.000 C 
ATOM     29  C   UNL     1     113.966 130.093 136.556  0.00  0.00    +0.000 C 
ATOM     30  O   UNL     1     113.715 130.605 137.858  0.00  0.00    +0.000 OA
ATOM     31  O   UNL     1     114.766 130.279 136.623  0.00  0.00    +0.000 OA
BRANCH  26  32
ATOM     32  C   UNL     1     114.215 129.580 135.253  0.00  0.00    +0.000 C 
ATOM     33  O   UNL     1     114.339 130.132 134.650  0.00  0.00    +0.000 OA
ATOM     34  O   UNL     1     114.624 128.864 135.227  0.00  0.00    +0.000 OA
ENDBRANCH  26  32
ENDBRANCH  22  23
ENDBRANCH  12  22
TORSDOF 5
ENDMDL
MODEL 9
REMARK VINA RESULT:      -8.7      2.928      4.070
REMARK  Name = 
REMARK  5 active torsions:
REMARK  status: ('A' for Active; 'I' for Inactive)
REMARK    1  A    between atoms: C_7  and  C_12
REMARK    2  A    between atoms: C_9  and  O_13
REMARK    3  A    between atoms: C_14  and  O_18
REMARK    4  A    between atoms: O_18  and  C_21
REMARK    5  A    between atoms: C_26  and  C_29
REMARK                            x       y       z     vdW  Elec       q    Type
REMARK                         _______ _______ _______ _____ _____    ______ ____
ROOT
ATOM      1  O   UNL     1     110.623 125.281 135.214  0.00  0.00    +0.000 OA
ATOM      2  C   UNL     1     111.025 125.544 135.866  0.00  0.00    +0.000 A 
ATOM      3  C   UNL     1     110.647 126.073 136.409  0.00  0.00    +0.000 A 
ATOM      4  C   UNL     1     111.827 125.286 136.003  0.00  0.00    +0.000 A 
ATOM      5  C   UNL     1     109.871 126.310 136.259  0.00  0.00    +0.000 A 
ATOM      6  C   UNL     1     111.046 126.340 137.066  0.00  0.00    +0.000 A 
ATOM      7  C   UNL     1     112.239 125.566 136.687  0.00  0.00    +0.000 A 
ATOM      8  O   UNL     1     109.467 126.035 135.586  0.00  0.00    +0.000 OA
ATOM      9  C   UNL     1     109.498 126.818 136.772  0.00  0.00    +0.000 A 
ATOM     10  O   UNL     1     111.848 126.090 137.215  0.00  0.00    +0.000 OA
ATOM     11  C   UNL     1     110.672 126.847 137.579  0.00  0.00    +0.000 A 
ATOM     12  C   UNL     1     109.897 127.085 137.429  0.00  0.00    +0.000 A 
ENDROOT
BRANCH   7  13
ATOM     13  C   UNL     1     113.010 125.320 136.821  0.00  0.00    +0.000 A 
ATOM     14  C   UNL     1     113.642 125.828 136.661  0.00  0.00    +0.000 A 
ATOM     15  C   UNL     1     113.146 124.578 137.112  0.00  0.00    +0.000 A 
ATOM     16  C   UNL     1     114.413 125.582 136.795  0.00  0.00    +0.000 A 
ATOM     17  C   UNL     1     113.916 124.332 137.246  0.00  0.00    +0.000 A 
ATOM     18  C   UNL     1     114.548 124.841 137.085  0.00  0.00    +0.000 A 
ATOM     19  O   UNL     1     115.318 124.595 137.219  0.00  0.00    +0.000 OA
ENDBRANCH   7  13
BRANCH   9  20
ATOM     20  O   UNL     1     108.722 127.055 136.622  0.00  0.00    +0.000 OA
ATOM     21  C   UNL     1     108.549 127.561 135.984  0.00  0.00    +0.000 C 
ENDBRANCH   9  20
BRANCH  12  22
ATOM     22  O   UNL     1     109.522 127.593 137.943  0.00  0.00    +0.000 OA
BRANCH  22  23
ATOM     23  C   UNL     1     109.553 127.450 138.755  0.00  0.00    +0.000 C 
ATOM     24  O   UNL     1     109.338 126.708 139.063  0.00  0.00    +0.000 OA
ATOM     25  C   UNL     1     109.796 128.040 139.260  0.00  0.00    +0.000 C 
ATOM     26  C   UNL     1     109.368 126.565 139.876  0.00  0.00    +0.000 C 
ATOM     27  O   UNL     1     110.006 128.764 138.954  0.00  0.00    +0.000 OA
ATOM     28  C   UNL     1     109.827 127.898 140.072  0.00  0.00    +0.000 C 
ATOM     29  C   UNL     1     109.611 127.155 140.381  0.00  0.00    +0.000 C 
ATOM     30  O   UNL     1     110.069 128.487 140.577  0.00  0.00    +0.000 OA
ATOM     31  O   UNL     1     109.642 127.013 141.192  0.00  0.00    +0.000 OA
BRANCH  26  32
ATOM     32  C   UNL     1     109.153 125.824 140.183  0.00  0.00    +0.000 C 
ATOM     33  O   UNL     1     108.358 125.633 140.305  0.00  0.00    +0.000 OA
ATOM     34  O   UNL     1     109.729 125.264 140.373  0.00  0.00    +0.000 OA
ENDBRANCH  26  32
ENDBRANCH  22  23
ENDBRANCH  12  22
TORSDOF 5
ENDMDL
MODEL 10
REMARK VINA RESULT:      -8.7     11.301     13.086
REMARK  Name = 
REMARK  5 active torsions:
REMARK  status: ('A' for Active; 'I' for Inactive)
REMARK    1  A    between atoms: C_7  and  C_12
REMARK    2  A    between atoms: C_9  and  O_13
REMARK    3  A    between atoms: C_14  and  O_18
REMARK    4  A    between atoms: O_18  and  C_21
REMARK    5  A    between atoms: C_26  and  C_29
REMARK                            x       y       z     vdW  Elec       q    Type
REMARK                         _______ _______ _______ _____ _____    ______ ____
ROOT
ATOM      1  O   UNL     1     108.014 126.636 146.988  0.00  0.00    +0.000 OA
ATOM      2  C   UNL     1     107.223 126.807 146.938  0.00  0.00    +0.000 A 
ATOM      3  C   UNL     1     106.653 126.244 147.213  0.00  0.00    +0.000 A 
ATOM      4  C   UNL     1     106.970 127.552 146.608  0.00  0.00    +0.000 A 
ATOM      5  C   UNL     1     106.919 125.529 147.529  0.00  0.00    +0.000 A 
ATOM      6  C   UNL     1     105.858 126.410 147.165  0.00  0.00    +0.000 A 
ATOM      7  C   UNL     1     106.142 127.721 146.559  0.00  0.00    +0.000 A 
ATOM      8  O   UNL     1     107.732 125.364 147.576  0.00  0.00    +0.000 OA
ATOM      9  C   UNL     1     106.380 124.982 147.796  0.00  0.00    +0.000 A 
ATOM     10  O   UNL     1     105.591 127.151 146.837  0.00  0.00    +0.000 OA
ATOM     11  C   UNL     1     105.320 125.862 147.432  0.00  0.00    +0.000 A 
ATOM     12  C   UNL     1     105.585 125.148 147.748  0.00  0.00    +0.000 A 
ENDROOT
BRANCH   7  13
ATOM     13  C   UNL     1     105.896 128.437 146.242  0.00  0.00    +0.000 A 
ATOM     14  C   UNL     1     105.832 129.105 146.725  0.00  0.00    +0.000 A 
ATOM     15  C   UNL     1     105.716 128.482 145.456  0.00  0.00    +0.000 A 
ATOM     16  C   UNL     1     105.586 129.820 146.409  0.00  0.00    +0.000 A 
ATOM     17  C   UNL     1     105.469 129.197 145.139  0.00  0.00    +0.000 A 
ATOM     18  C   UNL     1     105.406 129.865 145.623  0.00  0.00    +0.000 A 
ATOM     19  O   UNL     1     105.159 130.580 145.307  0.00  0.00    +0.000 OA
ENDBRANCH   7  13
BRANCH   9  20
ATOM     20  O   UNL     1     106.646 124.267 148.112  0.00  0.00    +0.000 OA
ATOM     21  C   UNL     1     107.001 124.242 148.864  0.00  0.00    +0.000 C 
ENDBRANCH   9  20
BRANCH  12  22
ATOM     22  O   UNL     1     105.047 124.599 148.015  0.00  0.00    +0.000 OA
BRANCH  22  23
ATOM     23  C   UNL     1     104.436 124.350 147.520  0.00  0.00    +0.000 C 
ATOM     24  O   UNL     1     104.598 124.066 146.756  0.00  0.00    +0.000 OA
ATOM     25  C   UNL     1     103.666 124.384 147.783  0.00  0.00    +0.000 C 
ATOM     26  C   UNL     1     103.986 123.817 146.262  0.00  0.00    +0.000 C 
ATOM     27  O   UNL     1     103.511 124.663 148.531  0.00  0.00    +0.000 OA
ATOM     28  C   UNL     1     103.054 124.135 147.288  0.00  0.00    +0.000 C 
ATOM     29  C   UNL     1     103.216 123.850 146.523  0.00  0.00    +0.000 C 
ATOM     30  O   UNL     1     102.284 124.168 147.549  0.00  0.00    +0.000 OA
ATOM     31  O   UNL     1     102.605 123.602 146.029  0.00  0.00    +0.000 OA
BRANCH  26  32
ATOM     32  C   UNL     1     104.148 123.532 145.498  0.00  0.00    +0.000 C 
ATOM     33  O   UNL     1     104.350 122.739 145.378  0.00  0.00    +0.000 OA
ATOM     34  O   UNL     1     104.112 124.035 144.845  0.00  0.00    +0.000 OA
ENDBRANCH  26  32
ENDBRANCH  22  23
ENDBRANCH  12  22
TORSDOF 5
ENDMDL
