MODEL 1
REMARK VINA RESULT:     -10.0      0.000      0.000
REMARK  Name = 44257576
REMARK  6 active torsions:
REMARK  status: ('A' for Active; 'I' for Inactive)
REMARK    1  A    between atoms: O_3  and  C_20
REMARK    2  A    between atoms: O_3  and  C_25
REMARK    3  A    between atoms: O_6  and  C_24
REMARK    4  A    between atoms: O_6  and  C_27
REMARK    5  A    between atoms: C_15  and  C_25
REMARK    6  A    between atoms: C_34  and  C_36
REMARK                            x       y       z     vdW  Elec       q    Type
REMARK                         _______ _______ _______ _____ _____    ______ ____
ROOT
ATOM      1  O   UNL     1     111.508 130.695 139.938  0.00  0.00    +0.000 OA
ATOM      2  O   UNL     1     109.590 131.118 141.710  0.00  0.00    +0.000 OA
ATOM      3  O   UNL     1     111.161 130.836 142.914  0.00  0.00    +0.000 OA
ATOM      4  O   UNL     1     112.964 130.460 142.134  0.00  0.00    +0.000 OA
ATOM      5  C   UNL     1     110.607 130.883 140.328  0.00  0.00    +0.000 C 
ATOM      6  C   UNL     1     110.491 130.930 141.320  0.00  0.00    +0.000 C 
ATOM      7  C   UNL     1     111.277 130.789 141.922  0.00  0.00    +0.000 C 
ATOM      8  C   UNL     1     112.178 130.601 141.532  0.00  0.00    +0.000 C 
ATOM      9  C   UNL     1     112.294 130.554 140.540  0.00  0.00    +0.000 C 
ENDROOT
BRANCH   9  10
ATOM     10  O   UNL     1     113.195 130.366 140.150  0.00  0.00    +0.000 OA
BRANCH  10  13
ATOM     11  O   UNL     1     112.897 127.648 137.917  0.00  0.00    +0.000 OA
ATOM     12  O   UNL     1     113.800 129.387 135.646  0.00  0.00    +0.000 OA
ATOM     13  C   UNL     1     113.272 129.989 139.227  0.00  0.00    +0.000 A 
ATOM     14  C   UNL     1     113.039 128.990 139.048  0.00  0.00    +0.000 A 
ATOM     15  C   UNL     1     113.586 130.593 138.438  0.00  0.00    +0.000 A 
ATOM     16  C   UNL     1     113.122 128.608 138.082  0.00  0.00    +0.000 A 
ATOM     17  C   UNL     1     113.424 129.188 137.325  0.00  0.00    +0.000 A 
ATOM     18  C   UNL     1     113.662 130.190 137.481  0.00  0.00    +0.000 A 
ATOM     19  C   UNL     1     113.499 128.807 136.404  0.00  0.00    +0.000 A 
ATOM     20  C   UNL     1     112.972 127.267 136.995  0.00  0.00    +0.000 A 
ATOM     21  C   UNL     1     113.273 127.847 136.239  0.00  0.00    +0.000 A 
BRANCH  20  24
ATOM     22  O   UNL     1     110.830 124.867 135.711  0.00  0.00    +0.000 OA
ATOM     23  O   UNL     1     112.067 123.427 136.338  0.00  0.00    +0.000 OA
ATOM     24  C   UNL     1     112.746 126.307 136.831  0.00  0.00    +0.000 A 
ATOM     25  C   UNL     1     111.901 126.067 136.353  0.00  0.00    +0.000 A 
ATOM     26  C   UNL     1     113.364 125.587 137.145  0.00  0.00    +0.000 A 
ATOM     27  C   UNL     1     111.675 125.107 136.189  0.00  0.00    +0.000 A 
ATOM     28  C   UNL     1     113.138 124.627 136.980  0.00  0.00    +0.000 A 
ATOM     29  C   UNL     1     112.294 124.387 136.503  0.00  0.00    +0.000 A 
ENDBRANCH  20  24
ENDBRANCH  10  13
ENDBRANCH   9  10
BRANCH   5  30
ATOM     30  C   UNL     1     109.821 131.024 139.725  0.00  0.00    +0.000 C 
BRANCH  30  31
ATOM     31  O   UNL     1     109.946 131.459 138.833  0.00  0.00    +0.000 OA
BRANCH  31  37
ATOM     32  O   UNL     1     109.819 130.223 137.627  0.00  0.00    +0.000 OA
ATOM     33  O   UNL     1     108.395 132.418 138.014  0.00  0.00    +0.000 OA
ATOM     34  O   UNL     1     107.492 131.662 136.398  0.00  0.00    +0.000 OA
ATOM     35  O   UNL     1     108.140 129.946 135.601  0.00  0.00    +0.000 OA
ATOM     36  C   UNL     1     108.719 131.560 137.616  0.00  0.00    +0.000 C 
ATOM     37  C   UNL     1     109.495 131.081 138.025  0.00  0.00    +0.000 C 
ATOM     38  C   UNL     1     108.267 131.182 136.808  0.00  0.00    +0.000 C 
ATOM     39  C   UNL     1     108.592 130.324 136.409  0.00  0.00    +0.000 C 
ATOM     40  C   UNL     1     109.368 129.844 136.819  0.00  0.00    +0.000 C 
ATOM     41  C   UNL     1     109.692 128.986 136.421  0.00  0.00    +0.000 C 
ENDBRANCH  31  37
ENDBRANCH  30  31
ENDBRANCH   5  30
TORSDOF 6
ENDMDL
MODEL 2
REMARK VINA RESULT:     -10.0      2.020      4.085
REMARK  Name = 44257576
REMARK  6 active torsions:
REMARK  status: ('A' for Active; 'I' for Inactive)
REMARK    1  A    between atoms: O_3  and  C_20
REMARK    2  A    between atoms: O_3  and  C_25
REMARK    3  A    between atoms: O_6  and  C_24
REMARK    4  A    between atoms: O_6  and  C_27
REMARK    5  A    between atoms: C_15  and  C_25
REMARK    6  A    between atoms: C_34  and  C_36
REMARK                            x       y       z     vdW  Elec       q    Type
REMARK                         _______ _______ _______ _____ _____    ______ ____
ROOT
ATOM      1  O   UNL     1     110.220 130.417 137.831  0.00  0.00    +0.000 OA
ATOM      2  O   UNL     1     110.129 132.086 139.882  0.00  0.00    +0.000 OA
ATOM      3  O   UNL     1     110.085 133.369 138.348  0.00  0.00    +0.000 OA
ATOM      4  O   UNL     1     110.131 132.683 136.470  0.00  0.00    +0.000 OA
ATOM      5  C   UNL     1     110.197 130.759 138.770  0.00  0.00    +0.000 C 
ATOM      6  C   UNL     1     110.152 131.743 138.943  0.00  0.00    +0.000 C 
ATOM      7  C   UNL     1     110.130 132.385 138.176  0.00  0.00    +0.000 C 
ATOM      8  C   UNL     1     110.153 132.042 137.237  0.00  0.00    +0.000 C 
ATOM      9  C   UNL     1     110.198 131.058 137.064  0.00  0.00    +0.000 C 
ENDROOT
BRANCH   9  10
ATOM     10  O   UNL     1     110.221 130.715 136.125  0.00  0.00    +0.000 OA
BRANCH  10  13
ATOM     11  O   UNL     1     111.777 127.552 136.319  0.00  0.00    +0.000 OA
ATOM     12  O   UNL     1     109.408 126.282 134.987  0.00  0.00    +0.000 OA
ATOM     13  C   UNL     1     110.209 129.731 135.952  0.00  0.00    +0.000 A 
ATOM     14  C   UNL     1     111.019 129.139 136.233  0.00  0.00    +0.000 A 
ATOM     15  C   UNL     1     109.387 129.290 135.489  0.00  0.00    +0.000 A 
ATOM     16  C   UNL     1     110.996 128.114 136.047  0.00  0.00    +0.000 A 
ATOM     17  C   UNL     1     110.206 127.691 135.603  0.00  0.00    +0.000 A 
ATOM     18  C   UNL     1     109.385 128.263 135.314  0.00  0.00    +0.000 A 
ATOM     19  C   UNL     1     110.198 126.706 135.431  0.00  0.00    +0.000 A 
ATOM     20  C   UNL     1     111.768 126.567 136.147  0.00  0.00    +0.000 A 
ATOM     21  C   UNL     1     110.979 126.144 135.703  0.00  0.00    +0.000 A 
BRANCH  20  24
ATOM     22  O   UNL     1     113.085 123.489 137.037  0.00  0.00    +0.000 OA
ATOM     23  O   UNL     1     114.893 124.320 137.237  0.00  0.00    +0.000 OA
ATOM     24  C   UNL     1     112.550 126.006 136.420  0.00  0.00    +0.000 A 
ATOM     25  C   UNL     1     112.427 125.028 136.592  0.00  0.00    +0.000 A 
ATOM     26  C   UNL     1     113.454 126.421 136.520  0.00  0.00    +0.000 A 
ATOM     27  C   UNL     1     113.208 124.466 136.865  0.00  0.00    +0.000 A 
ATOM     28  C   UNL     1     114.235 125.859 136.792  0.00  0.00    +0.000 A 
ATOM     29  C   UNL     1     114.112 124.882 136.965  0.00  0.00    +0.000 A 
ENDBRANCH  20  24
ENDBRANCH  10  13
ENDBRANCH   9  10
BRANCH   5  30
ATOM     30  C   UNL     1     110.219 130.118 139.537  0.00  0.00    +0.000 C 
BRANCH  30  31
ATOM     31  O   UNL     1     109.899 129.179 139.413  0.00  0.00    +0.000 OA
BRANCH  31  37
ATOM     32  O   UNL     1     111.444 128.585 139.922  0.00  0.00    +0.000 OA
ATOM     33  O   UNL     1     109.273 127.301 139.124  0.00  0.00    +0.000 OA
ATOM     34  O   UNL     1     110.505 125.769 139.489  0.00  0.00    +0.000 OA
ATOM     35  O   UNL     1     112.364 126.114 140.143  0.00  0.00    +0.000 OA
ATOM     36  C   UNL     1     110.202 127.474 139.451  0.00  0.00    +0.000 C 
ATOM     37  C   UNL     1     110.515 128.412 139.595  0.00  0.00    +0.000 C 
ATOM     38  C   UNL     1     110.818 126.708 139.633  0.00  0.00    +0.000 C 
ATOM     39  C   UNL     1     111.748 126.880 139.960  0.00  0.00    +0.000 C 
ATOM     40  C   UNL     1     112.061 127.819 140.105  0.00  0.00    +0.000 C 
ATOM     41  C   UNL     1     112.990 127.991 140.431  0.00  0.00    +0.000 C 
ENDBRANCH  31  37
ENDBRANCH  30  31
ENDBRANCH   5  30
TORSDOF 6
ENDMDL
MODEL 3
REMARK VINA RESULT:      -9.9      2.497      3.877
REMARK  Name = 44257576
REMARK  6 active torsions:
REMARK  status: ('A' for Active; 'I' for Inactive)
REMARK    1  A    between atoms: O_3  and  C_20
REMARK    2  A    between atoms: O_3  and  C_25
REMARK    3  A    between atoms: O_6  and  C_24
REMARK    4  A    between atoms: O_6  and  C_27
REMARK    5  A    between atoms: C_15  and  C_25
REMARK    6  A    between atoms: C_34  and  C_36
REMARK                            x       y       z     vdW  Elec       q    Type
REMARK                         _______ _______ _______ _____ _____    ______ ____
ROOT
ATOM      1  O   UNL     1     110.540 130.366 139.635  0.00  0.00    +0.000 OA
ATOM      2  O   UNL     1     108.080 131.233 139.193  0.00  0.00    +0.000 OA
ATOM      3  O   UNL     1     109.134 132.486 138.044  0.00  0.00    +0.000 OA
ATOM      4  O   UNL     1     111.126 132.325 137.955  0.00  0.00    +0.000 OA
ATOM      5  C   UNL     1     109.545 130.446 139.679  0.00  0.00    +0.000 C 
ATOM      6  C   UNL     1     109.076 131.153 139.149  0.00  0.00    +0.000 C 
ATOM      7  C   UNL     1     109.603 131.779 138.574  0.00  0.00    +0.000 C 
ATOM      8  C   UNL     1     110.599 131.699 138.530  0.00  0.00    +0.000 C 
ATOM      9  C   UNL     1     111.067 130.992 139.060  0.00  0.00    +0.000 C 
ENDROOT
BRANCH   9  10
ATOM     10  O   UNL     1     112.063 130.912 139.016  0.00  0.00    +0.000 OA
BRANCH  10  13
ATOM     11  O   UNL     1     112.867 127.536 138.365  0.00  0.00    +0.000 OA
ATOM     12  O   UNL     1     114.366 127.371 140.959  0.00  0.00    +0.000 OA
ATOM     13  C   UNL     1     112.508 130.058 139.287  0.00  0.00    +0.000 A 
ATOM     14  C   UNL     1     112.455 129.221 138.670  0.00  0.00    +0.000 A 
ATOM     15  C   UNL     1     113.029 130.001 140.187  0.00  0.00    +0.000 A 
ATOM     16  C   UNL     1     112.923 128.336 138.962  0.00  0.00    +0.000 A 
ATOM     17  C   UNL     1     113.422 128.282 139.827  0.00  0.00    +0.000 A 
ATOM     18  C   UNL     1     113.489 129.106 140.459  0.00  0.00    +0.000 A 
ATOM     19  C   UNL     1     113.866 127.426 140.094  0.00  0.00    +0.000 A 
ATOM     20  C   UNL     1     113.311 126.681 138.632  0.00  0.00    +0.000 A 
ATOM     21  C   UNL     1     113.810 126.626 139.497  0.00  0.00    +0.000 A 
BRANCH  20  24
ATOM     22  O   UNL     1     111.420 124.261 137.029  0.00  0.00    +0.000 OA
ATOM     23  O   UNL     1     113.086 123.481 136.243  0.00  0.00    +0.000 OA
ATOM     24  C   UNL     1     113.255 125.881 138.035  0.00  0.00    +0.000 A 
ATOM     25  C   UNL     1     112.366 125.471 137.831  0.00  0.00    +0.000 A 
ATOM     26  C   UNL     1     114.087 125.491 137.642  0.00  0.00    +0.000 A 
ATOM     27  C   UNL     1     112.309 124.671 137.233  0.00  0.00    +0.000 A 
ATOM     28  C   UNL     1     114.031 124.691 137.044  0.00  0.00    +0.000 A 
ATOM     29  C   UNL     1     113.143 124.281 136.840  0.00  0.00    +0.000 A 
ENDBRANCH  20  24
ENDBRANCH  10  13
ENDBRANCH   9  10
BRANCH   5  30
ATOM     30  C   UNL     1     109.017 129.820 140.254  0.00  0.00    +0.000 C 
BRANCH  30  31
ATOM     31  O   UNL     1     109.478 129.073 140.732  0.00  0.00    +0.000 OA
BRANCH  31  37
ATOM     32  O   UNL     1     108.111 128.554 141.660  0.00  0.00    +0.000 OA
ATOM     33  O   UNL     1     110.065 127.171 140.532  0.00  0.00    +0.000 OA
ATOM     34  O   UNL     1     108.991 125.701 141.360  0.00  0.00    +0.000 OA
ATOM     35  O   UNL     1     107.330 126.133 142.388  0.00  0.00    +0.000 OA
ATOM     36  C   UNL     1     109.234 127.387 141.046  0.00  0.00    +0.000 C 
ATOM     37  C   UNL     1     108.941 128.338 141.146  0.00  0.00    +0.000 C 
ATOM     38  C   UNL     1     108.697 126.652 141.460  0.00  0.00    +0.000 C 
ATOM     39  C   UNL     1     107.867 126.868 141.974  0.00  0.00    +0.000 C 
ATOM     40  C   UNL     1     107.574 127.819 142.074  0.00  0.00    +0.000 C 
ATOM     41  C   UNL     1     106.744 128.034 142.588  0.00  0.00    +0.000 C 
ENDBRANCH  31  37
ENDBRANCH  30  31
ENDBRANCH   5  30
TORSDOF 6
ENDMDL
MODEL 4
REMARK VINA RESULT:      -9.9      2.595      3.541
REMARK  Name = 44257576
REMARK  6 active torsions:
REMARK  status: ('A' for Active; 'I' for Inactive)
REMARK    1  A    between atoms: O_3  and  C_20
REMARK    2  A    between atoms: O_3  and  C_25
REMARK    3  A    between atoms: O_6  and  C_24
REMARK    4  A    between atoms: O_6  and  C_27
REMARK    5  A    between atoms: C_15  and  C_25
REMARK    6  A    between atoms: C_34  and  C_36
REMARK                            x       y       z     vdW  Elec       q    Type
REMARK                         _______ _______ _______ _____ _____    ______ ____
ROOT
ATOM      1  O   UNL     1     112.612 129.467 141.452  0.00  0.00    +0.000 OA
ATOM      2  O   UNL     1     111.344 130.619 143.468  0.00  0.00    +0.000 OA
ATOM      3  O   UNL     1     112.823 131.929 143.154  0.00  0.00    +0.000 OA
ATOM      4  O   UNL     1     114.161 131.597 141.705  0.00  0.00    +0.000 OA
ATOM      5  C   UNL     1     111.943 129.633 142.176  0.00  0.00    +0.000 C 
ATOM      6  C   UNL     1     112.013 130.453 142.744  0.00  0.00    +0.000 C 
ATOM      7  C   UNL     1     112.752 131.108 142.586  0.00  0.00    +0.000 C 
ATOM      8  C   UNL     1     113.422 130.942 141.862  0.00  0.00    +0.000 C 
ATOM      9  C   UNL     1     113.351 130.122 141.295  0.00  0.00    +0.000 C 
ENDROOT
BRANCH   9  10
ATOM     10  O   UNL     1     114.021 129.956 140.571  0.00  0.00    +0.000 OA
BRANCH  10  13
ATOM     11  O   UNL     1     113.002 127.414 138.342  0.00  0.00    +0.000 OA
ATOM     12  O   UNL     1     112.658 129.440 136.156  0.00  0.00    +0.000 OA
ATOM     13  C   UNL     1     113.714 129.670 139.663  0.00  0.00    +0.000 A 
ATOM     14  C   UNL     1     113.512 128.666 139.470  0.00  0.00    +0.000 A 
ATOM     15  C   UNL     1     113.595 130.373 138.904  0.00  0.00    +0.000 A 
ATOM     16  C   UNL     1     113.194 128.380 138.520  0.00  0.00    +0.000 A 
ATOM     17  C   UNL     1     113.079 129.055 137.792  0.00  0.00    +0.000 A 
ATOM     18  C   UNL     1     113.275 130.064 137.962  0.00  0.00    +0.000 A 
ATOM     19  C   UNL     1     112.773 128.765 136.885  0.00  0.00    +0.000 A 
ATOM     20  C   UNL     1     112.695 127.124 137.435  0.00  0.00    +0.000 A 
ATOM     21  C   UNL     1     112.581 127.800 136.707  0.00  0.00    +0.000 A 
BRANCH  20  24
ATOM     22  O   UNL     1     113.706 124.038 136.230  0.00  0.00    +0.000 OA
ATOM     23  O   UNL     1     111.929 123.264 136.724  0.00  0.00    +0.000 OA
ATOM     24  C   UNL     1     112.503 126.160 137.258  0.00  0.00    +0.000 A 
ATOM     25  C   UNL     1     113.200 125.582 136.833  0.00  0.00    +0.000 A 
ATOM     26  C   UNL     1     111.615 125.772 137.504  0.00  0.00    +0.000 A 
ATOM     27  C   UNL     1     113.009 124.616 136.655  0.00  0.00    +0.000 A 
ATOM     28  C   UNL     1     111.424 124.806 137.327  0.00  0.00    +0.000 A 
ATOM     29  C   UNL     1     112.120 124.229 136.902  0.00  0.00    +0.000 A 
ENDBRANCH  20  24
ENDBRANCH  10  13
ENDBRANCH   9  10
BRANCH   5  30
ATOM     30  C   UNL     1     111.204 128.978 142.334  0.00  0.00    +0.000 C 
BRANCH  30  31
ATOM     31  O   UNL     1     111.295 128.035 142.014  0.00  0.00    +0.000 OA
BRANCH  31  37
ATOM     32  O   UNL     1     109.574 127.838 142.044  0.00  0.00    +0.000 OA
ATOM     33  O   UNL     1     111.474 126.310 141.018  0.00  0.00    +0.000 OA
ATOM     34  O   UNL     1     109.844 125.251 140.550  0.00  0.00    +0.000 OA
ATOM     35  O   UNL     1     108.033 125.916 141.079  0.00  0.00    +0.000 OA
ATOM     36  C   UNL     1     110.569 126.643 141.282  0.00  0.00    +0.000 C 
ATOM     37  C   UNL     1     110.479 127.505 141.780  0.00  0.00    +0.000 C 
ATOM     38  C   UNL     1     109.754 126.113 141.048  0.00  0.00    +0.000 C 
ATOM     39  C   UNL     1     108.849 126.446 141.312  0.00  0.00    +0.000 C 
ATOM     40  C   UNL     1     108.759 127.308 141.811  0.00  0.00    +0.000 C 
ATOM     41  C   UNL     1     107.854 127.641 142.075  0.00  0.00    +0.000 C 
ENDBRANCH  31  37
ENDBRANCH  30  31
ENDBRANCH   5  30
TORSDOF 6
ENDMDL
MODEL 5
REMARK VINA RESULT:      -9.8      2.287      3.442
REMARK  Name = 44257576
REMARK  6 active torsions:
REMARK  status: ('A' for Active; 'I' for Inactive)
REMARK    1  A    between atoms: O_3  and  C_20
REMARK    2  A    between atoms: O_3  and  C_25
REMARK    3  A    between atoms: O_6  and  C_24
REMARK    4  A    between atoms: O_6  and  C_27
REMARK    5  A    between atoms: C_15  and  C_25
REMARK    6  A    between atoms: C_34  and  C_36
REMARK                            x       y       z     vdW  Elec       q    Type
REMARK                         _______ _______ _______ _____ _____    ______ ____
ROOT
ATOM      1  O   UNL     1     109.611 128.676 141.000  0.00  0.00    +0.000 OA
ATOM      2  O   UNL     1     107.367 130.057 140.770  0.00  0.00    +0.000 OA
ATOM      3  O   UNL     1     106.989 128.995 142.422  0.00  0.00    +0.000 OA
ATOM      4  O   UNL     1     108.360 127.720 143.126  0.00  0.00    +0.000 OA
ATOM      5  C   UNL     1     108.926 129.313 140.648  0.00  0.00    +0.000 C 
ATOM      6  C   UNL     1     108.052 129.420 141.122  0.00  0.00    +0.000 C 
ATOM      7  C   UNL     1     107.863 128.889 141.948  0.00  0.00    +0.000 C 
ATOM      8  C   UNL     1     108.549 128.251 142.300  0.00  0.00    +0.000 C 
ATOM      9  C   UNL     1     109.423 128.145 141.826  0.00  0.00    +0.000 C 
ENDROOT
BRANCH   9  10
ATOM     10  O   UNL     1     110.108 127.507 142.178  0.00  0.00    +0.000 OA
BRANCH  10  13
ATOM     11  O   UNL     1     112.254 126.341 139.629  0.00  0.00    +0.000 OA
ATOM     12  O   UNL     1     114.556 127.816 140.864  0.00  0.00    +0.000 OA
ATOM     13  C   UNL     1     111.015 127.466 141.759  0.00  0.00    +0.000 A 
ATOM     14  C   UNL     1     111.166 126.912 140.891  0.00  0.00    +0.000 A 
ATOM     15  C   UNL     1     111.814 127.978 142.188  0.00  0.00    +0.000 A 
ATOM     16  C   UNL     1     112.116 126.876 140.463  0.00  0.00    +0.000 A 
ATOM     17  C   UNL     1     112.883 127.368 140.875  0.00  0.00    +0.000 A 
ATOM     18  C   UNL     1     112.755 127.929 141.743  0.00  0.00    +0.000 A 
ATOM     19  C   UNL     1     113.788 127.324 140.453  0.00  0.00    +0.000 A 
ATOM     20  C   UNL     1     113.160 126.298 139.207  0.00  0.00    +0.000 A 
ATOM     21  C   UNL     1     113.927 126.790 139.619  0.00  0.00    +0.000 A 
BRANCH  20  24
ATOM     22  O   UNL     1     111.856 124.579 136.497  0.00  0.00    +0.000 OA
ATOM     23  O   UNL     1     113.709 124.159 135.872  0.00  0.00    +0.000 OA
ATOM     24  C   UNL     1     113.298 125.763 138.374  0.00  0.00    +0.000 A 
ATOM     25  C   UNL     1     112.509 125.439 137.852  0.00  0.00    +0.000 A 
ATOM     26  C   UNL     1     114.224 125.553 138.061  0.00  0.00    +0.000 A 
ATOM     27  C   UNL     1     112.645 124.904 137.019  0.00  0.00    +0.000 A 
ATOM     28  C   UNL     1     114.361 125.018 137.227  0.00  0.00    +0.000 A 
ATOM     29  C   UNL     1     113.572 124.694 136.706  0.00  0.00    +0.000 A 
ENDBRANCH  20  24
ENDBRANCH  10  13
ENDBRANCH   9  10
BRANCH   5  30
ATOM     30  C   UNL     1     109.115 129.844 139.822  0.00  0.00    +0.000 C 
BRANCH  30  31
ATOM     31  O   UNL     1     109.984 130.330 139.728  0.00  0.00    +0.000 OA
BRANCH  31  37
ATOM     32  O   UNL     1     110.372 129.419 138.307  0.00  0.00    +0.000 OA
ATOM     33  O   UNL     1     111.879 130.960 139.842  0.00  0.00    +0.000 OA
ATOM     34  O   UNL     1     113.215 130.364 138.478  0.00  0.00    +0.000 OA
ATOM     35  O   UNL     1     112.656 129.138 137.000  0.00  0.00    +0.000 OA
ATOM     36  C   UNL     1     111.599 130.347 139.103  0.00  0.00    +0.000 C 
ATOM     37  C   UNL     1     110.652 130.032 139.046  0.00  0.00    +0.000 C 
ATOM     38  C   UNL     1     112.267 130.049 138.421  0.00  0.00    +0.000 C 
ATOM     39  C   UNL     1     111.988 129.436 137.682  0.00  0.00    +0.000 C 
ATOM     40  C   UNL     1     111.040 129.121 137.625  0.00  0.00    +0.000 C 
ATOM     41  C   UNL     1     110.761 128.509 136.885  0.00  0.00    +0.000 C 
ENDBRANCH  31  37
ENDBRANCH  30  31
ENDBRANCH   5  30
TORSDOF 6
ENDMDL
MODEL 6
REMARK VINA RESULT:      -9.8      1.548      6.194
REMARK  Name = 44257576
REMARK  6 active torsions:
REMARK  status: ('A' for Active; 'I' for Inactive)
REMARK    1  A    between atoms: O_3  and  C_20
REMARK    2  A    between atoms: O_3  and  C_25
REMARK    3  A    between atoms: O_6  and  C_24
REMARK    4  A    between atoms: O_6  and  C_27
REMARK    5  A    between atoms: C_15  and  C_25
REMARK    6  A    between atoms: C_34  and  C_36
REMARK                            x       y       z     vdW  Elec       q    Type
REMARK                         _______ _______ _______ _____ _____    ______ ____
ROOT
ATOM      1  O   UNL     1     110.862 128.954 136.311  0.00  0.00    +0.000 OA
ATOM      2  O   UNL     1     108.922 127.346 135.503  0.00  0.00    +0.000 OA
ATOM      3  O   UNL     1     107.913 129.052 135.770  0.00  0.00    +0.000 OA
ATOM      4  O   UNL     1     108.869 130.692 136.397  0.00  0.00    +0.000 OA
ATOM      5  C   UNL     1     110.383 128.133 135.997  0.00  0.00    +0.000 C 
ATOM      6  C   UNL     1     109.400 128.166 135.817  0.00  0.00    +0.000 C 
ATOM      7  C   UNL     1     108.896 129.019 135.950  0.00  0.00    +0.000 C 
ATOM      8  C   UNL     1     109.374 129.839 136.264  0.00  0.00    +0.000 C 
ATOM      9  C   UNL     1     110.357 129.807 136.444  0.00  0.00    +0.000 C 
ENDROOT
BRANCH   9  10
ATOM     10  O   UNL     1     110.835 130.627 136.758  0.00  0.00    +0.000 OA
BRANCH  10  13
ATOM     11  O   UNL     1     111.780 129.966 140.095  0.00  0.00    +0.000 OA
ATOM     12  O   UNL     1     114.650 130.509 139.412  0.00  0.00    +0.000 OA
ATOM     13  C   UNL     1     111.542 130.555 137.461  0.00  0.00    +0.000 A 
ATOM     14  C   UNL     1     111.287 130.292 138.436  0.00  0.00    +0.000 A 
ATOM     15  C   UNL     1     112.539 130.743 137.224  0.00  0.00    +0.000 A 
ATOM     16  C   UNL     1     112.032 130.220 139.161  0.00  0.00    +0.000 A 
ATOM     17  C   UNL     1     112.989 130.401 138.933  0.00  0.00    +0.000 A 
ATOM     18  C   UNL     1     113.267 130.666 137.965  0.00  0.00    +0.000 A 
ATOM     19  C   UNL     1     113.693 130.328 139.639  0.00  0.00    +0.000 A 
ATOM     20  C   UNL     1     112.484 129.893 140.801  0.00  0.00    +0.000 A 
ATOM     21  C   UNL     1     113.441 130.074 140.573  0.00  0.00    +0.000 A 
BRANCH  20  24
ATOM     22  O   UNL     1     111.825 130.796 144.080  0.00  0.00    +0.000 OA
ATOM     23  O   UNL     1     111.473 128.881 144.536  0.00  0.00    +0.000 OA
ATOM     24  C   UNL     1     112.232 129.640 141.735  0.00  0.00    +0.000 A 
ATOM     25  C   UNL     1     112.155 130.344 142.440  0.00  0.00    +0.000 A 
ATOM     26  C   UNL     1     112.055 128.683 141.963  0.00  0.00    +0.000 A 
ATOM     27  C   UNL     1     111.902 130.091 143.374  0.00  0.00    +0.000 A 
ATOM     28  C   UNL     1     111.803 128.430 142.897  0.00  0.00    +0.000 A 
ATOM     29  C   UNL     1     111.726 129.134 143.602  0.00  0.00    +0.000 A 
ENDBRANCH  20  24
ENDBRANCH  10  13
ENDBRANCH   9  10
BRANCH   5  30
ATOM     30  C   UNL     1     110.888 127.281 135.864  0.00  0.00    +0.000 C 
BRANCH  30  31
ATOM     31  O   UNL     1     111.875 127.253 136.027  0.00  0.00    +0.000 OA
BRANCH  31  37
ATOM     32  O   UNL     1     111.816 125.531 136.210  0.00  0.00    +0.000 OA
ATOM     33  O   UNL     1     113.746 127.264 136.732  0.00  0.00    +0.000 OA
ATOM     34  O   UNL     1     114.623 125.548 137.268  0.00  0.00    +0.000 OA
ATOM     35  O   UNL     1     113.628 123.821 137.099  0.00  0.00    +0.000 OA
ATOM     36  C   UNL     1     113.249 126.400 136.647  0.00  0.00    +0.000 C 
ATOM     37  C   UNL     1     112.313 126.395 136.295  0.00  0.00    +0.000 C 
ATOM     38  C   UNL     1     113.687 125.542 136.915  0.00  0.00    +0.000 C 
ATOM     39  C   UNL     1     113.190 124.679 136.831  0.00  0.00    +0.000 C 
ATOM     40  C   UNL     1     112.254 124.674 136.478  0.00  0.00    +0.000 C 
ATOM     41  C   UNL     1     111.757 123.810 136.394  0.00  0.00    +0.000 C 
ENDBRANCH  31  37
ENDBRANCH  30  31
ENDBRANCH   5  30
TORSDOF 6
ENDMDL
MODEL 7
REMARK VINA RESULT:      -9.7      2.350      4.234
REMARK  Name = 44257576
REMARK  6 active torsions:
REMARK  status: ('A' for Active; 'I' for Inactive)
REMARK    1  A    between atoms: O_3  and  C_20
REMARK    2  A    between atoms: O_3  and  C_25
REMARK    3  A    between atoms: O_6  and  C_24
REMARK    4  A    between atoms: O_6  and  C_27
REMARK    5  A    between atoms: C_15  and  C_25
REMARK    6  A    between atoms: C_34  and  C_36
REMARK                            x       y       z     vdW  Elec       q    Type
REMARK                         _______ _______ _______ _____ _____    ______ ____
ROOT
ATOM      1  O   UNL     1     109.665 130.169 137.930  0.00  0.00    +0.000 OA
ATOM      2  O   UNL     1     109.676 131.732 140.065  0.00  0.00    +0.000 OA
ATOM      3  O   UNL     1     110.171 133.041 138.636  0.00  0.00    +0.000 OA
ATOM      4  O   UNL     1     110.329 132.435 136.736  0.00  0.00    +0.000 OA
ATOM      5  C   UNL     1     109.586 130.472 138.880  0.00  0.00    +0.000 C 
ATOM      6  C   UNL     1     109.755 131.429 139.115  0.00  0.00    +0.000 C 
ATOM      7  C   UNL     1     110.003 132.084 138.401  0.00  0.00    +0.000 C 
ATOM      8  C   UNL     1     110.082 131.781 137.451  0.00  0.00    +0.000 C 
ATOM      9  C   UNL     1     109.913 130.824 137.216  0.00  0.00    +0.000 C 
ENDROOT
BRANCH   9  10
ATOM     10  O   UNL     1     109.992 130.521 136.266  0.00  0.00    +0.000 OA
BRANCH  10  13
ATOM     11  O   UNL     1     111.719 127.444 136.386  0.00  0.00    +0.000 OA
ATOM     12  O   UNL     1     109.464 126.097 134.936  0.00  0.00    +0.000 OA
ATOM     13  C   UNL     1     110.041 129.544 136.055  0.00  0.00    +0.000 A 
ATOM     14  C   UNL     1     110.875 128.988 136.337  0.00  0.00    +0.000 A 
ATOM     15  C   UNL     1     109.258 129.077 135.552  0.00  0.00    +0.000 A 
ATOM     16  C   UNL     1     110.915 127.972 136.112  0.00  0.00    +0.000 A 
ATOM     17  C   UNL     1     110.163 127.523 135.629  0.00  0.00    +0.000 A 
ATOM     18  C   UNL     1     109.319 128.059 135.337  0.00  0.00    +0.000 A 
ATOM     19  C   UNL     1     110.216 126.547 135.420  0.00  0.00    +0.000 A 
ATOM     20  C   UNL     1     111.771 126.467 136.177  0.00  0.00    +0.000 A 
ATOM     21  C   UNL     1     111.020 126.019 135.694  0.00  0.00    +0.000 A 
BRANCH  20  24
ATOM     22  O   UNL     1     113.201 123.467 137.154  0.00  0.00    +0.000 OA
ATOM     23  O   UNL     1     114.988 124.357 137.274  0.00  0.00    +0.000 OA
ATOM     24  C   UNL     1     112.576 125.940 136.451  0.00  0.00    +0.000 A 
ATOM     25  C   UNL     1     112.486 124.967 136.665  0.00  0.00    +0.000 A 
ATOM     26  C   UNL     1     113.469 126.385 136.511  0.00  0.00    +0.000 A 
ATOM     27  C   UNL     1     113.290 124.439 136.939  0.00  0.00    +0.000 A 
ATOM     28  C   UNL     1     114.273 125.857 136.785  0.00  0.00    +0.000 A 
ATOM     29  C   UNL     1     114.184 124.885 136.999  0.00  0.00    +0.000 A 
ENDBRANCH  20  24
ENDBRANCH  10  13
ENDBRANCH   9  10
BRANCH   5  30
ATOM     30  C   UNL     1     109.339 129.818 139.595  0.00  0.00    +0.000 C 
BRANCH  30  31
ATOM     31  O   UNL     1     109.636 128.866 139.526  0.00  0.00    +0.000 OA
BRANCH  31  37
ATOM     32  O   UNL     1     108.586 128.434 140.834  0.00  0.00    +0.000 OA
ATOM     33  O   UNL     1     110.418 127.025 139.546  0.00  0.00    +0.000 OA
ATOM     34  O   UNL     1     109.759 125.673 140.865  0.00  0.00    +0.000 OA
ATOM     35  O   UNL     1     108.318 126.162 142.162  0.00  0.00    +0.000 OA
ATOM     36  C   UNL     1     109.698 127.270 140.195  0.00  0.00    +0.000 C 
ATOM     37  C   UNL     1     109.307 128.190 140.185  0.00  0.00    +0.000 C 
ATOM     38  C   UNL     1     109.368 126.594 140.854  0.00  0.00    +0.000 C 
ATOM     39  C   UNL     1     108.647 126.838 141.503  0.00  0.00    +0.000 C 
ATOM     40  C   UNL     1     108.256 127.759 141.493  0.00  0.00    +0.000 C 
ATOM     41  C   UNL     1     107.536 128.003 142.141  0.00  0.00    +0.000 C 
ENDBRANCH  31  37
ENDBRANCH  30  31
ENDBRANCH   5  30
TORSDOF 6
ENDMDL
MODEL 8
REMARK VINA RESULT:      -9.7      4.295      7.649
REMARK  Name = 44257576
REMARK  6 active torsions:
REMARK  status: ('A' for Active; 'I' for Inactive)
REMARK    1  A    between atoms: O_3  and  C_20
REMARK    2  A    between atoms: O_3  and  C_25
REMARK    3  A    between atoms: O_6  and  C_24
REMARK    4  A    between atoms: O_6  and  C_27
REMARK    5  A    between atoms: C_15  and  C_25
REMARK    6  A    between atoms: C_34  and  C_36
REMARK                            x       y       z     vdW  Elec       q    Type
REMARK                         _______ _______ _______ _____ _____    ______ ____
ROOT
ATOM      1  O   UNL     1     109.811 127.998 141.959  0.00  0.00    +0.000 OA
ATOM      2  O   UNL     1     108.416 126.619 140.184  0.00  0.00    +0.000 OA
ATOM      3  O   UNL     1     110.135 125.596 140.190  0.00  0.00    +0.000 OA
ATOM      4  O   UNL     1     111.638 126.175 141.376  0.00  0.00    +0.000 OA
ATOM      5  C   UNL     1     109.059 127.709 141.366  0.00  0.00    +0.000 C 
ATOM      6  C   UNL     1     109.167 126.908 140.777  0.00  0.00    +0.000 C 
ATOM      7  C   UNL     1     110.027 126.397 140.780  0.00  0.00    +0.000 C 
ATOM      8  C   UNL     1     110.778 126.686 141.373  0.00  0.00    +0.000 C 
ATOM      9  C   UNL     1     110.670 127.487 141.963  0.00  0.00    +0.000 C 
ENDROOT
BRANCH   9  10
ATOM     10  O   UNL     1     111.422 127.776 142.555  0.00  0.00    +0.000 OA
BRANCH  10  13
ATOM     11  O   UNL     1     110.969 130.763 144.383  0.00  0.00    +0.000 OA
ATOM     12  O   UNL     1     112.765 132.226 142.477  0.00  0.00    +0.000 OA
ATOM     13  C   UNL     1     111.609 128.750 142.687  0.00  0.00    +0.000 A 
ATOM     14  C   UNL     1     111.181 129.262 143.486  0.00  0.00    +0.000 A 
ATOM     15  C   UNL     1     112.232 129.257 142.025  0.00  0.00    +0.000 A 
ATOM     16  C   UNL     1     111.383 130.277 143.613  0.00  0.00    +0.000 A 
ATOM     17  C   UNL     1     111.981 130.764 142.978  0.00  0.00    +0.000 A 
ATOM     18  C   UNL     1     112.420 130.272 142.171  0.00  0.00    +0.000 A 
ATOM     19  C   UNL     1     112.166 131.738 143.112  0.00  0.00    +0.000 A 
ATOM     20  C   UNL     1     111.154 131.736 144.517  0.00  0.00    +0.000 A 
ATOM     21  C   UNL     1     111.752 132.224 143.882  0.00  0.00    +0.000 A 
BRANCH  20  24
ATOM     22  O   UNL     1     111.489 133.597 147.420  0.00  0.00    +0.000 OA
ATOM     23  O   UNL     1     109.499 133.678 147.598  0.00  0.00    +0.000 OA
ATOM     24  C   UNL     1     110.740 132.222 145.287  0.00  0.00    +0.000 A 
ATOM     25  C   UNL     1     111.321 132.666 145.968  0.00  0.00    +0.000 A 
ATOM     26  C   UNL     1     109.745 132.263 145.376  0.00  0.00    +0.000 A 
ATOM     27  C   UNL     1     110.908 133.152 146.739  0.00  0.00    +0.000 A 
ATOM     28  C   UNL     1     109.331 132.748 146.147  0.00  0.00    +0.000 A 
ATOM     29  C   UNL     1     109.912 133.193 146.827  0.00  0.00    +0.000 A 
ENDBRANCH  20  24
ENDBRANCH  10  13
ENDBRANCH   9  10
BRANCH   5  30
ATOM     30  C   UNL     1     108.200 128.220 141.363  0.00  0.00    +0.000 C 
BRANCH  30  31
ATOM     31  O   UNL     1     108.211 129.217 141.430  0.00  0.00    +0.000 OA
BRANCH  31  37
ATOM     32  O   UNL     1     106.488 129.242 141.601  0.00  0.00    +0.000 OA
ATOM     33  O   UNL     1     108.287 131.155 141.919  0.00  0.00    +0.000 OA
ATOM     34  O   UNL     1     106.601 132.148 142.335  0.00  0.00    +0.000 OA
ATOM     35  O   UNL     1     104.840 131.204 142.261  0.00  0.00    +0.000 OA
ATOM     36  C   UNL     1     107.406 130.683 141.882  0.00  0.00    +0.000 C 
ATOM     37  C   UNL     1     107.368 129.714 141.638  0.00  0.00    +0.000 C 
ATOM     38  C   UNL     1     106.564 131.180 142.090  0.00  0.00    +0.000 C 
ATOM     39  C   UNL     1     105.683 130.707 142.053  0.00  0.00    +0.000 C 
ATOM     40  C   UNL     1     105.645 129.738 141.809  0.00  0.00    +0.000 C 
ATOM     41  C   UNL     1     104.764 129.266 141.772  0.00  0.00    +0.000 C 
ENDBRANCH  31  37
ENDBRANCH  30  31
ENDBRANCH   5  30
TORSDOF 6
ENDMDL
MODEL 9
REMARK VINA RESULT:      -9.7      2.434      3.564
REMARK  Name = 44257576
REMARK  6 active torsions:
REMARK  status: ('A' for Active; 'I' for Inactive)
REMARK    1  A    between atoms: O_3  and  C_20
REMARK    2  A    between atoms: O_3  and  C_25
REMARK    3  A    between atoms: O_6  and  C_24
REMARK    4  A    between atoms: O_6  and  C_27
REMARK    5  A    between atoms: C_15  and  C_25
REMARK    6  A    between atoms: C_34  and  C_36
REMARK                            x       y       z     vdW  Elec       q    Type
REMARK                         _______ _______ _______ _____ _____    ______ ____
ROOT
ATOM      1  O   UNL     1     110.707 130.241 139.243  0.00  0.00    +0.000 OA
ATOM      2  O   UNL     1     108.111 130.754 139.224  0.00  0.00    +0.000 OA
ATOM      3  O   UNL     1     108.823 132.372 138.289  0.00  0.00    +0.000 OA
ATOM      4  O   UNL     1     110.791 132.570 137.990  0.00  0.00    +0.000 OA
ATOM      5  C   UNL     1     109.723 130.142 139.393  0.00  0.00    +0.000 C 
ATOM      6  C   UNL     1     109.095 130.853 139.074  0.00  0.00    +0.000 C 
ATOM      7  C   UNL     1     109.451 131.662 138.607  0.00  0.00    +0.000 C 
ATOM      8  C   UNL     1     110.435 131.761 138.458  0.00  0.00    +0.000 C 
ATOM      9  C   UNL     1     111.063 131.050 138.776  0.00  0.00    +0.000 C 
ENDROOT
BRANCH   9  10
ATOM     10  O   UNL     1     112.047 131.149 138.626  0.00  0.00    +0.000 OA
BRANCH  10  13
ATOM     11  O   UNL     1     112.882 127.963 137.355  0.00  0.00    +0.000 OA
ATOM     12  O   UNL     1     114.435 129.236 135.127  0.00  0.00    +0.000 OA
ATOM     13  C   UNL     1     112.509 130.580 137.946  0.00  0.00    +0.000 A 
ATOM     14  C   UNL     1     112.453 129.542 138.006  0.00  0.00    +0.000 A 
ATOM     15  C   UNL     1     113.048 131.022 137.172  0.00  0.00    +0.000 A 
ATOM     16  C   UNL     1     112.939 128.959 137.291  0.00  0.00    +0.000 A 
ATOM     17  C   UNL     1     113.456 129.384 136.549  0.00  0.00    +0.000 A 
ATOM     18  C   UNL     1     113.525 130.420 136.469  0.00  0.00    +0.000 A 
ATOM     19  C   UNL     1     113.917 128.812 135.870  0.00  0.00    +0.000 A 
ATOM     20  C   UNL     1     113.342 127.391 136.677  0.00  0.00    +0.000 A 
ATOM     21  C   UNL     1     113.860 127.815 135.934  0.00  0.00    +0.000 A 
BRANCH  20  24
ATOM     22  O   UNL     1     111.567 124.453 136.212  0.00  0.00    +0.000 OA
ATOM     23  O   UNL     1     113.110 123.406 136.934  0.00  0.00    +0.000 OA
ATOM     24  C   UNL     1     113.285 126.395 136.741  0.00  0.00    +0.000 A 
ATOM     25  C   UNL     1     112.455 125.922 136.444  0.00  0.00    +0.000 A 
ATOM     26  C   UNL     1     114.056 125.871 137.102  0.00  0.00    +0.000 A 
ATOM     27  C   UNL     1     112.397 124.925 136.508  0.00  0.00    +0.000 A 
ATOM     28  C   UNL     1     113.998 124.874 137.166  0.00  0.00    +0.000 A 
ATOM     29  C   UNL     1     113.169 124.402 136.870  0.00  0.00    +0.000 A 
ENDBRANCH  20  24
ENDBRANCH  10  13
ENDBRANCH   9  10
BRANCH   5  30
ATOM     30  C   UNL     1     109.367 129.333 139.860  0.00  0.00    +0.000 C 
BRANCH  30  31
ATOM     31  O   UNL     1     109.906 128.491 139.883  0.00  0.00    +0.000 OA
BRANCH  31  37
ATOM     32  O   UNL     1     108.714 127.713 140.869  0.00  0.00    +0.000 OA
ATOM     33  O   UNL     1     110.727 126.714 139.472  0.00  0.00    +0.000 OA
ATOM     34  O   UNL     1     109.945 125.047 140.253  0.00  0.00    +0.000 OA
ATOM     35  O   UNL     1     108.343 125.157 141.444  0.00  0.00    +0.000 OA
ATOM     36  C   UNL     1     109.926 126.769 140.068  0.00  0.00    +0.000 C 
ATOM     37  C   UNL     1     109.515 127.658 140.273  0.00  0.00    +0.000 C 
ATOM     38  C   UNL     1     109.535 125.936 140.458  0.00  0.00    +0.000 C 
ATOM     39  C   UNL     1     108.734 125.991 141.054  0.00  0.00    +0.000 C 
ATOM     40  C   UNL     1     108.323 126.879 141.259  0.00  0.00    +0.000 C 
ATOM     41  C   UNL     1     107.522 126.934 141.855  0.00  0.00    +0.000 C 
ENDBRANCH  31  37
ENDBRANCH  30  31
ENDBRANCH   5  30
TORSDOF 6
ENDMDL
MODEL 10
REMARK VINA RESULT:      -9.7      6.979      9.748
REMARK  Name = 44257576
REMARK  6 active torsions:
REMARK  status: ('A' for Active; 'I' for Inactive)
REMARK    1  A    between atoms: O_3  and  C_20
REMARK    2  A    between atoms: O_3  and  C_25
REMARK    3  A    between atoms: O_6  and  C_24
REMARK    4  A    between atoms: O_6  and  C_27
REMARK    5  A    between atoms: C_15  and  C_25
REMARK    6  A    between atoms: C_34  and  C_36
REMARK                            x       y       z     vdW  Elec       q    Type
REMARK                         _______ _______ _______ _____ _____    ______ ____
ROOT
ATOM      1  O   UNL     1     105.868 125.498 145.948  0.00  0.00    +0.000 OA
ATOM      2  O   UNL     1     104.089 123.655 145.286  0.00  0.00    +0.000 OA
ATOM      3  O   UNL     1     103.641 123.937 147.214  0.00  0.00    +0.000 OA
ATOM      4  O   UNL     1     104.678 125.260 148.299  0.00  0.00    +0.000 OA
ATOM      5  C   UNL     1     105.350 124.837 145.406  0.00  0.00    +0.000 C 
ATOM      6  C   UNL     1     104.607 124.316 145.828  0.00  0.00    +0.000 C 
ATOM      7  C   UNL     1     104.383 124.457 146.792  0.00  0.00    +0.000 C 
ATOM      8  C   UNL     1     104.902 125.119 147.334  0.00  0.00    +0.000 C 
ATOM      9  C   UNL     1     105.644 125.639 146.912  0.00  0.00    +0.000 C 
ENDROOT
BRANCH   9  10
ATOM     10  O   UNL     1     106.163 126.300 147.454  0.00  0.00    +0.000 OA
BRANCH  10  13
ATOM     11  O   UNL     1     108.309 128.501 145.718  0.00  0.00    +0.000 OA
ATOM     12  O   UNL     1     106.322 130.725 146.040  0.00  0.00    +0.000 OA
ATOM     13  C   UNL     1     106.359 127.207 147.083  0.00  0.00    +0.000 A 
ATOM     14  C   UNL     1     107.254 127.386 146.581  0.00  0.00    +0.000 A 
ATOM     15  C   UNL     1     105.669 127.979 147.195  0.00  0.00    +0.000 A 
ATOM     16  C   UNL     1     107.447 128.336 146.198  0.00  0.00    +0.000 A 
ATOM     17  C   UNL     1     106.785 129.077 146.306  0.00  0.00    +0.000 A 
ATOM     18  C   UNL     1     105.883 128.921 146.803  0.00  0.00    +0.000 A 
ATOM     19  C   UNL     1     106.984 129.983 145.933  0.00  0.00    +0.000 A 
ATOM     20  C   UNL     1     108.508 129.407 145.345  0.00  0.00    +0.000 A 
ATOM     21  C   UNL     1     107.846 130.148 145.452  0.00  0.00    +0.000 A 
BRANCH  20  24
ATOM     22  O   UNL     1     111.898 130.114 145.424  0.00  0.00    +0.000 OA
ATOM     23  O   UNL     1     111.955 130.064 143.425  0.00  0.00    +0.000 OA
ATOM     24  C   UNL     1     109.369 129.571 144.865  0.00  0.00    +0.000 A 
ATOM     25  C   UNL     1     110.203 129.760 145.384  0.00  0.00    +0.000 A 
ATOM     26  C   UNL     1     109.398 129.547 143.866  0.00  0.00    +0.000 A 
ATOM     27  C   UNL     1     111.065 129.925 144.905  0.00  0.00    +0.000 A 
ATOM     28  C   UNL     1     110.261 129.711 143.386  0.00  0.00    +0.000 A 
ATOM     29  C   UNL     1     111.093 129.900 143.905  0.00  0.00    +0.000 A 
ENDBRANCH  20  24
ENDBRANCH  10  13
ENDBRANCH   9  10
BRANCH   5  30
ATOM     30  C   UNL     1     105.574 124.696 144.441  0.00  0.00    +0.000 C 
BRANCH  30  31
ATOM     31  O   UNL     1     106.215 125.310 143.982  0.00  0.00    +0.000 OA
BRANCH  31  37
ATOM     32  O   UNL     1     105.782 124.623 142.452  0.00  0.00    +0.000 OA
ATOM     33  O   UNL     1     107.392 126.635 143.054  0.00  0.00    +0.000 OA
ATOM     34  O   UNL     1     107.546 126.611 141.060  0.00  0.00    +0.000 OA
ATOM     35  O   UNL     1     106.524 125.261 139.995  0.00  0.00    +0.000 OA
ATOM     36  C   UNL     1     106.881 125.960 142.521  0.00  0.00    +0.000 C 
ATOM     37  C   UNL     1     106.293 125.298 142.985  0.00  0.00    +0.000 C 
ATOM     38  C   UNL     1     106.958 125.948 141.524  0.00  0.00    +0.000 C 
ATOM     39  C   UNL     1     106.447 125.273 140.991  0.00  0.00    +0.000 C 
ATOM     40  C   UNL     1     105.859 124.611 141.455  0.00  0.00    +0.000 C 
ATOM     41  C   UNL     1     105.348 123.936 140.923  0.00  0.00    +0.000 C 
ENDBRANCH  31  37
ENDBRANCH  30  31
ENDBRANCH   5  30
TORSDOF 6
ENDMDL
