MODEL 1
REMARK VINA RESULT:      -8.4      0.000      0.000
REMARK  Name = 44257510
REMARK  2 active torsions:
REMARK  status: ('A' for Active; 'I' for Inactive)
REMARK    1  A    between atoms: O_3  and  C_16
REMARK    2  A    between atoms: C_5  and  C_9
REMARK                            x       y       z     vdW  Elec       q    Type
REMARK                         _______ _______ _______ _____ _____    ______ ____
ROOT
ATOM      1  O   UNL     1     102.771 123.719 138.211  0.00  0.00    +0.000 OA
ATOM      2  C   UNL     1     104.069 123.792 138.803  0.00  0.00    +0.000 C 
ATOM      3  C   UNL     1     104.405 123.523 138.099  0.00  0.00    +0.000 C 
ATOM      4  C   UNL     1     103.252 123.890 138.859  0.00  0.00    +0.000 C 
ATOM      5  C   UNL     1     103.924 123.352 137.451  0.00  0.00    +0.000 A 
ATOM      6  C   UNL     1     103.106 123.450 137.508  0.00  0.00    +0.000 A 
ATOM      7  C   UNL     1     104.286 123.073 136.723  0.00  0.00    +0.000 A 
ATOM      8  C   UNL     1     102.595 123.275 136.839  0.00  0.00    +0.000 A 
ATOM      9  C   UNL     1     103.790 122.894 136.045  0.00  0.00    +0.000 A 
ATOM     10  C   UNL     1     102.939 122.995 136.104  0.00  0.00    +0.000 A 
ENDROOT
BRANCH   2  13
ATOM     11  O   UNL     1     104.629 125.327 139.035  0.00  0.00    +0.000 OA
ATOM     12  O   UNL     1     105.996 124.472 141.395  0.00  0.00    +0.000 OA
ATOM     13  C   UNL     1     104.551 123.963 139.451  0.00  0.00    +0.000 A 
ATOM     14  C   UNL     1     104.831 124.730 139.566  0.00  0.00    +0.000 A 
ATOM     15  C   UNL     1     104.752 123.365 139.983  0.00  0.00    +0.000 A 
ATOM     16  C   UNL     1     105.312 124.900 140.215  0.00  0.00    +0.000 A 
ATOM     17  C   UNL     1     105.234 123.536 140.631  0.00  0.00    +0.000 A 
ATOM     18  C   UNL     1     105.514 124.303 140.746  0.00  0.00    +0.000 A 
ENDBRANCH   2  13
BRANCH  10  19
ATOM     19  O   UNL     1     102.455 122.825 135.457  0.00  0.00    +0.000 OA
ATOM     20  C   UNL     1     102.563 123.226 134.744  0.00  0.00    +0.000 C 
ENDBRANCH  10  19
TORSDOF 2
ENDMDL
MODEL 2
REMARK VINA RESULT:      -7.8      0.736      4.449
REMARK  Name = 44257510
REMARK  2 active torsions:
REMARK  status: ('A' for Active; 'I' for Inactive)
REMARK    1  A    between atoms: O_3  and  C_16
REMARK    2  A    between atoms: C_5  and  C_9
REMARK                            x       y       z     vdW  Elec       q    Type
REMARK                         _______ _______ _______ _____ _____    ______ ____
ROOT
ATOM      1  O   UNL     1     104.840 125.159 139.372  0.00  0.00    +0.000 OA
ATOM      2  C   UNL     1     104.267 124.035 138.702  0.00  0.00    +0.000 C 
ATOM      3  C   UNL     1     104.591 123.531 139.271  0.00  0.00    +0.000 C 
ATOM      4  C   UNL     1     104.392 124.849 138.753  0.00  0.00    +0.000 C 
ATOM      5  C   UNL     1     105.040 123.843 139.889  0.00  0.00    +0.000 A 
ATOM      6  C   UNL     1     105.164 124.657 139.940  0.00  0.00    +0.000 A 
ATOM      7  C   UNL     1     105.372 123.308 140.474  0.00  0.00    +0.000 A 
ATOM      8  C   UNL     1     105.630 124.992 140.580  0.00  0.00    +0.000 A 
ATOM      9  C   UNL     1     105.841 123.626 141.121  0.00  0.00    +0.000 A 
ATOM     10  C   UNL     1     105.970 124.473 141.174  0.00  0.00    +0.000 A 
ENDROOT
BRANCH   2  13
ATOM     11  O   UNL     1     102.621 124.009 138.808  0.00  0.00    +0.000 OA
ATOM     12  O   UNL     1     102.474 122.789 136.227  0.00  0.00    +0.000 OA
ATOM     13  C   UNL     1     103.818 123.724 138.084  0.00  0.00    +0.000 A 
ATOM     14  C   UNL     1     102.995 123.711 138.137  0.00  0.00    +0.000 A 
ATOM     15  C   UNL     1     104.194 123.425 137.412  0.00  0.00    +0.000 A 
ATOM     16  C   UNL     1     102.547 123.399 137.518  0.00  0.00    +0.000 A 
ATOM     17  C   UNL     1     103.745 123.114 136.794  0.00  0.00    +0.000 A 
ATOM     18  C   UNL     1     102.922 123.101 136.847  0.00  0.00    +0.000 A 
ENDBRANCH   2  13
BRANCH  10  19
ATOM     19  O   UNL     1     106.419 124.787 141.791  0.00  0.00    +0.000 OA
ATOM     20  C   UNL     1     106.051 125.015 142.493  0.00  0.00    +0.000 C 
ENDBRANCH  10  19
TORSDOF 2
ENDMDL
MODEL 3
REMARK VINA RESULT:      -7.6      6.474      8.234
REMARK  Name = 44257510
REMARK  2 active torsions:
REMARK  status: ('A' for Active; 'I' for Inactive)
REMARK    1  A    between atoms: O_3  and  C_16
REMARK    2  A    between atoms: C_5  and  C_9
REMARK                            x       y       z     vdW  Elec       q    Type
REMARK                         _______ _______ _______ _____ _____    ______ ____
ROOT
ATOM      1  O   UNL     1     103.065 129.589 140.705  0.00  0.00    +0.000 OA
ATOM      2  C   UNL     1     102.641 130.687 141.515  0.00  0.00    +0.000 C 
ATOM      3  C   UNL     1     103.085 130.393 142.146  0.00  0.00    +0.000 C 
ATOM      4  C   UNL     1     102.631 130.285 140.795  0.00  0.00    +0.000 C 
ATOM      5  C   UNL     1     103.518 129.697 142.055  0.00  0.00    +0.000 A 
ATOM      6  C   UNL     1     103.508 129.295 141.335  0.00  0.00    +0.000 A 
ATOM      7  C   UNL     1     103.977 129.401 142.720  0.00  0.00    +0.000 A 
ATOM      8  C   UNL     1     103.955 128.568 141.230  0.00  0.00    +0.000 A 
ATOM      9  C   UNL     1     104.430 128.676 142.632  0.00  0.00    +0.000 A 
ATOM     10  C   UNL     1     104.419 128.257 141.882  0.00  0.00    +0.000 A 
ENDROOT
BRANCH   2  13
ATOM     11  O   UNL     1     103.287 132.129 141.038  0.00  0.00    +0.000 OA
ATOM     12  O   UNL     1     100.907 133.472 141.877  0.00  0.00    +0.000 OA
ATOM     13  C   UNL     1     102.209 131.384 141.605  0.00  0.00    +0.000 A 
ATOM     14  C   UNL     1     102.531 132.105 141.367  0.00  0.00    +0.000 A 
ATOM     15  C   UNL     1     101.452 131.359 141.934  0.00  0.00    +0.000 A 
ATOM     16  C   UNL     1     102.097 132.800 141.457  0.00  0.00    +0.000 A 
ATOM     17  C   UNL     1     101.019 132.055 142.025  0.00  0.00    +0.000 A 
ATOM     18  C   UNL     1     101.341 132.776 141.786  0.00  0.00    +0.000 A 
ENDBRANCH   2  13
BRANCH  10  19
ATOM     19  O   UNL     1     104.851 127.561 141.790  0.00  0.00    +0.000 OA
ATOM     20  C   UNL     1     105.656 127.547 141.972  0.00  0.00    +0.000 C 
ENDBRANCH  10  19
TORSDOF 2
ENDMDL
MODEL 4
REMARK VINA RESULT:      -7.6      7.893      9.460
REMARK  Name = 44257510
REMARK  2 active torsions:
REMARK  status: ('A' for Active; 'I' for Inactive)
REMARK    1  A    between atoms: O_3  and  C_16
REMARK    2  A    between atoms: C_5  and  C_9
REMARK                            x       y       z     vdW  Elec       q    Type
REMARK                         _______ _______ _______ _____ _____    ______ ____
ROOT
ATOM      1  O   UNL     1     105.596 124.951 145.896  0.00  0.00    +0.000 OA
ATOM      2  C   UNL     1     104.451 124.344 146.497  0.00  0.00    +0.000 C 
ATOM      3  C   UNL     1     104.844 124.323 147.223  0.00  0.00    +0.000 C 
ATOM      4  C   UNL     1     104.827 124.658 145.834  0.00  0.00    +0.000 C 
ATOM      5  C   UNL     1     105.612 124.616 147.285  0.00  0.00    +0.000 A 
ATOM      6  C   UNL     1     105.989 124.930 146.621  0.00  0.00    +0.000 A 
ATOM      7  C   UNL     1     106.011 124.589 148.046  0.00  0.00    +0.000 A 
ATOM      8  C   UNL     1     106.789 125.238 146.673  0.00  0.00    +0.000 A 
ATOM      9  C   UNL     1     106.811 124.892 148.116  0.00  0.00    +0.000 A 
ATOM     10  C   UNL     1     107.203 125.219 147.425  0.00  0.00    +0.000 A 
ENDROOT
BRANCH   2  13
ATOM     11  O   UNL     1     104.178 122.886 145.774  0.00  0.00    +0.000 OA
ATOM     12  O   UNL     1     101.375 123.173 146.254  0.00  0.00    +0.000 OA
ATOM     13  C   UNL     1     103.683 124.051 146.436  0.00  0.00    +0.000 A 
ATOM     14  C   UNL     1     103.546 123.322 146.074  0.00  0.00    +0.000 A 
ATOM     15  C   UNL     1     103.050 124.487 146.737  0.00  0.00    +0.000 A 
ATOM     16  C   UNL     1     102.777 123.030 146.014  0.00  0.00    +0.000 A 
ATOM     17  C   UNL     1     102.281 124.194 146.676  0.00  0.00    +0.000 A 
ATOM     18  C   UNL     1     102.145 123.465 146.314  0.00  0.00    +0.000 A 
ENDBRANCH   2  13
BRANCH  10  19
ATOM     19  O   UNL     1     107.972 125.513 147.485  0.00  0.00    +0.000 OA
ATOM     20  C   UNL     1     108.556 125.067 147.859  0.00  0.00    +0.000 C 
ENDBRANCH  10  19
TORSDOF 2
ENDMDL
MODEL 5
REMARK VINA RESULT:      -7.5      8.970     10.497
REMARK  Name = 44257510
REMARK  2 active torsions:
REMARK  status: ('A' for Active; 'I' for Inactive)
REMARK    1  A    between atoms: O_3  and  C_16
REMARK    2  A    between atoms: C_5  and  C_9
REMARK                            x       y       z     vdW  Elec       q    Type
REMARK                         _______ _______ _______ _____ _____    ______ ____
ROOT
ATOM      1  O   UNL     1     112.192 126.203 139.187  0.00  0.00    +0.000 OA
ATOM      2  C   UNL     1     113.426 126.089 138.476  0.00  0.00    +0.000 C 
ATOM      3  C   UNL     1     113.819 126.466 139.096  0.00  0.00    +0.000 C 
ATOM      4  C   UNL     1     112.613 125.957 138.521  0.00  0.00    +0.000 C 
ATOM      5  C   UNL     1     113.397 126.711 139.762  0.00  0.00    +0.000 A 
ATOM      6  C   UNL     1     112.584 126.580 139.807  0.00  0.00    +0.000 A 
ATOM      7  C   UNL     1     113.817 127.102 140.402  0.00  0.00    +0.000 A 
ATOM      8  C   UNL     1     112.135 126.831 140.496  0.00  0.00    +0.000 A 
ATOM      9  C   UNL     1     113.384 127.360 141.097  0.00  0.00    +0.000 A 
ATOM     10  C   UNL     1     112.538 127.223 141.145  0.00  0.00    +0.000 A 
ENDROOT
BRANCH   2  13
ATOM     11  O   UNL     1     113.341 126.960 137.077  0.00  0.00    +0.000 OA
ATOM     12  O   UNL     1     115.113 125.106 135.815  0.00  0.00    +0.000 OA
ATOM     13  C   UNL     1     113.847 125.844 137.810  0.00  0.00    +0.000 A 
ATOM     14  C   UNL     1     113.805 126.279 137.111  0.00  0.00    +0.000 A 
ATOM     15  C   UNL     1     114.312 125.162 137.845  0.00  0.00    +0.000 A 
ATOM     16  C   UNL     1     114.227 126.033 136.446  0.00  0.00    +0.000 A 
ATOM     17  C   UNL     1     114.733 124.917 137.179  0.00  0.00    +0.000 A 
ATOM     18  C   UNL     1     114.690 125.352 136.480  0.00  0.00    +0.000 A 
ENDBRANCH   2  13
BRANCH  10  19
ATOM     19  O   UNL     1     112.114 127.468 141.809  0.00  0.00    +0.000 OA
ATOM     20  C   UNL     1     112.033 128.272 141.974  0.00  0.00    +0.000 C 
ENDBRANCH  10  19
TORSDOF 2
ENDMDL
MODEL 6
REMARK VINA RESULT:      -7.5      8.326      9.156
REMARK  Name = 44257510
REMARK  2 active torsions:
REMARK  status: ('A' for Active; 'I' for Inactive)
REMARK    1  A    between atoms: O_3  and  C_16
REMARK    2  A    between atoms: C_5  and  C_9
REMARK                            x       y       z     vdW  Elec       q    Type
REMARK                         _______ _______ _______ _____ _____    ______ ____
ROOT
ATOM      1  O   UNL     1     103.737 125.168 147.756  0.00  0.00    +0.000 OA
ATOM      2  C   UNL     1     105.070 124.857 147.348  0.00  0.00    +0.000 C 
ATOM      3  C   UNL     1     104.778 124.283 146.830  0.00  0.00    +0.000 C 
ATOM      4  C   UNL     1     104.550 125.299 147.810  0.00  0.00    +0.000 C 
ATOM      5  C   UNL     1     103.965 124.153 146.777  0.00  0.00    +0.000 A 
ATOM      6  C   UNL     1     103.444 124.595 147.240  0.00  0.00    +0.000 A 
ATOM      7  C   UNL     1     103.672 123.553 146.235  0.00  0.00    +0.000 A 
ATOM      8  C   UNL     1     102.595 124.468 147.192  0.00  0.00    +0.000 A 
ATOM      9  C   UNL     1     102.827 123.413 146.174  0.00  0.00    +0.000 A 
ATOM     10  C   UNL     1     102.285 123.873 146.656  0.00  0.00    +0.000 A 
ENDROOT
BRANCH   2  13
ATOM     11  O   UNL     1     105.917 124.274 148.639  0.00  0.00    +0.000 OA
ATOM     12  O   UNL     1     108.322 125.379 147.559  0.00  0.00    +0.000 OA
ATOM     13  C   UNL     1     105.883 124.987 147.401  0.00  0.00    +0.000 A 
ATOM     14  C   UNL     1     106.306 124.696 148.047  0.00  0.00    +0.000 A 
ATOM     15  C   UNL     1     106.272 125.409 146.808  0.00  0.00    +0.000 A 
ATOM     16  C   UNL     1     107.119 124.827 148.099  0.00  0.00    +0.000 A 
ATOM     17  C   UNL     1     107.085 125.539 146.861  0.00  0.00    +0.000 A 
ATOM     18  C   UNL     1     107.509 125.248 147.507  0.00  0.00    +0.000 A 
ENDBRANCH   2  13
BRANCH  10  19
ATOM     19  O   UNL     1     101.472 123.745 146.604  0.00  0.00    +0.000 OA
ATOM     20  C   UNL     1     101.129 123.561 145.877  0.00  0.00    +0.000 C 
ENDBRANCH  10  19
TORSDOF 2
ENDMDL
MODEL 7
REMARK VINA RESULT:      -7.4      7.202      8.830
REMARK  Name = 44257510
REMARK  2 active torsions:
REMARK  status: ('A' for Active; 'I' for Inactive)
REMARK    1  A    between atoms: O_3  and  C_16
REMARK    2  A    between atoms: C_5  and  C_9
REMARK                            x       y       z     vdW  Elec       q    Type
REMARK                         _______ _______ _______ _____ _____    ______ ____
ROOT
ATOM      1  O   UNL     1     103.060 132.186 141.242  0.00  0.00    +0.000 OA
ATOM      2  C   UNL     1     103.010 130.805 141.606  0.00  0.00    +0.000 C 
ATOM      3  C   UNL     1     102.243 130.909 141.894  0.00  0.00    +0.000 C 
ATOM      4  C   UNL     1     103.418 131.443 141.280  0.00  0.00    +0.000 C 
ATOM      5  C   UNL     1     101.886 131.652 141.855  0.00  0.00    +0.000 A 
ATOM      6  C   UNL     1     102.295 132.290 141.529  0.00  0.00    +0.000 A 
ATOM      7  C   UNL     1     101.087 131.749 142.159  0.00  0.00    +0.000 A 
ATOM      8  C   UNL     1     101.933 133.069 141.484  0.00  0.00    +0.000 A 
ATOM      9  C   UNL     1     100.710 132.519 142.121  0.00  0.00    +0.000 A 
ATOM     10  C   UNL     1     101.136 133.184 141.782  0.00  0.00    +0.000 A 
ENDROOT
BRANCH   2  13
ATOM     11  O   UNL     1     102.949 129.791 140.306  0.00  0.00    +0.000 OA
ATOM     12  O   UNL     1     104.438 127.834 141.763  0.00  0.00    +0.000 OA
ATOM     13  C   UNL     1     103.366 130.062 141.645  0.00  0.00    +0.000 A 
ATOM     14  C   UNL     1     103.336 129.555 140.995  0.00  0.00    +0.000 A 
ATOM     15  C   UNL     1     103.754 129.827 142.335  0.00  0.00    +0.000 A 
ATOM     16  C   UNL     1     103.693 128.812 141.035  0.00  0.00    +0.000 A 
ATOM     17  C   UNL     1     104.111 129.084 142.373  0.00  0.00    +0.000 A 
ATOM     18  C   UNL     1     104.080 128.577 141.723  0.00  0.00    +0.000 A 
ENDBRANCH   2  13
BRANCH  10  19
ATOM     19  O   UNL     1     100.781 133.927 141.742  0.00  0.00    +0.000 OA
ATOM     20  C   UNL     1     100.713 134.389 142.423  0.00  0.00    +0.000 C 
ENDBRANCH  10  19
TORSDOF 2
ENDMDL
MODEL 8
REMARK VINA RESULT:      -7.4      7.634      8.354
REMARK  Name = 44257510
REMARK  2 active torsions:
REMARK  status: ('A' for Active; 'I' for Inactive)
REMARK    1  A    between atoms: O_3  and  C_16
REMARK    2  A    between atoms: C_5  and  C_9
REMARK                            x       y       z     vdW  Elec       q    Type
REMARK                         _______ _______ _______ _____ _____    ______ ____
ROOT
ATOM      1  O   UNL     1     110.672 125.760 137.368  0.00  0.00    +0.000 OA
ATOM      2  C   UNL     1     111.989 125.507 136.875  0.00  0.00    +0.000 C 
ATOM      3  C   UNL     1     111.775 125.825 136.143  0.00  0.00    +0.000 C 
ATOM      4  C   UNL     1     111.437 125.475 137.487  0.00  0.00    +0.000 C 
ATOM      5  C   UNL     1     111.010 126.109 136.025  0.00  0.00    +0.000 A 
ATOM      6  C   UNL     1     110.459 126.077 136.638  0.00  0.00    +0.000 A 
ATOM      7  C   UNL     1     110.800 126.438 135.259  0.00  0.00    +0.000 A 
ATOM      8  C   UNL     1     109.658 126.370 136.527  0.00  0.00    +0.000 A 
ATOM      9  C   UNL     1     110.004 126.736 135.130  0.00  0.00    +0.000 A 
ATOM     10  C   UNL     1     109.430 126.702 135.768  0.00  0.00    +0.000 A 
ENDROOT
BRANCH   2  13
ATOM     11  O   UNL     1     112.311 123.900 136.686  0.00  0.00    +0.000 OA
ATOM     12  O   UNL     1     115.051 124.371 137.346  0.00  0.00    +0.000 OA
ATOM     13  C   UNL     1     112.754 125.223 136.992  0.00  0.00    +0.000 A 
ATOM     14  C   UNL     1     112.915 124.419 136.898  0.00  0.00    +0.000 A 
ATOM     15  C   UNL     1     113.359 125.743 137.204  0.00  0.00    +0.000 A 
ATOM     16  C   UNL     1     113.681 124.136 137.016  0.00  0.00    +0.000 A 
ATOM     17  C   UNL     1     114.125 125.458 137.322  0.00  0.00    +0.000 A 
ATOM     18  C   UNL     1     114.285 124.655 137.228  0.00  0.00    +0.000 A 
ENDBRANCH   2  13
BRANCH  10  19
ATOM     19  O   UNL     1     108.664 126.986 135.652  0.00  0.00    +0.000 OA
ATOM     20  C   UNL     1     108.508 127.793 135.725  0.00  0.00    +0.000 C 
ENDBRANCH  10  19
TORSDOF 2
ENDMDL
MODEL 9
REMARK VINA RESULT:      -7.4      9.288     10.306
REMARK  Name = 44257510
REMARK  2 active torsions:
REMARK  status: ('A' for Active; 'I' for Inactive)
REMARK    1  A    between atoms: O_3  and  C_16
REMARK    2  A    between atoms: C_5  and  C_9
REMARK                            x       y       z     vdW  Elec       q    Type
REMARK                         _______ _______ _______ _____ _____    ______ ____
ROOT
ATOM      1  O   UNL     1     112.229 126.409 136.209  0.00  0.00    +0.000 OA
ATOM      2  C   UNL     1     113.247 127.395 136.387  0.00  0.00    +0.000 C 
ATOM      3  C   UNL     1     113.780 126.805 136.609  0.00  0.00    +0.000 C 
ATOM      4  C   UNL     1     112.472 127.198 136.188  0.00  0.00    +0.000 C 
ATOM      5  C   UNL     1     113.536 126.017 136.631  0.00  0.00    +0.000 A 
ATOM      6  C   UNL     1     112.760 125.819 136.431  0.00  0.00    +0.000 A 
ATOM      7  C   UNL     1     114.100 125.411 136.863  0.00  0.00    +0.000 A 
ATOM      8  C   UNL     1     112.495 125.002 136.450  0.00  0.00    +0.000 A 
ATOM      9  C   UNL     1     113.852 124.589 136.887  0.00  0.00    +0.000 A 
ATOM     10  C   UNL     1     113.044 124.383 136.679  0.00  0.00    +0.000 A 
ENDROOT
BRANCH   2  13
ATOM     11  O   UNL     1     112.904 128.401 137.649  0.00  0.00    +0.000 OA
ATOM     12  O   UNL     1     114.225 130.546 136.299  0.00  0.00    +0.000 OA
ATOM     13  C   UNL     1     113.492 128.183 136.366  0.00  0.00    +0.000 A 
ATOM     14  C   UNL     1     113.320 128.686 136.997  0.00  0.00    +0.000 A 
ATOM     15  C   UNL     1     113.908 128.468 135.712  0.00  0.00    +0.000 A 
ATOM     16  C   UNL     1     113.565 129.474 136.974  0.00  0.00    +0.000 A 
ATOM     17  C   UNL     1     114.152 129.255 135.691  0.00  0.00    +0.000 A 
ATOM     18  C   UNL     1     113.980 129.758 136.322  0.00  0.00    +0.000 A 
ENDBRANCH   2  13
BRANCH  10  19
ATOM     19  O   UNL     1     112.798 123.596 136.700  0.00  0.00    +0.000 OA
ATOM     20  C   UNL     1     112.149 123.379 137.161  0.00  0.00    +0.000 C 
ENDBRANCH  10  19
TORSDOF 2
ENDMDL
MODEL 10
REMARK VINA RESULT:      -7.2      7.019      8.021
REMARK  Name = 44257510
REMARK  2 active torsions:
REMARK  status: ('A' for Active; 'I' for Inactive)
REMARK    1  A    between atoms: O_3  and  C_16
REMARK    2  A    between atoms: C_5  and  C_9
REMARK                            x       y       z     vdW  Elec       q    Type
REMARK                         _______ _______ _______ _____ _____    ______ ____
ROOT
ATOM      1  O   UNL     1     110.251 125.499 135.105  0.00  0.00    +0.000 OA
ATOM      2  C   UNL     1     110.047 126.821 135.606  0.00  0.00    +0.000 C 
ATOM      3  C   UNL     1     110.578 126.671 136.220  0.00  0.00    +0.000 C 
ATOM      4  C   UNL     1     109.883 126.236 135.049  0.00  0.00    +0.000 C 
ATOM      5  C   UNL     1     110.945 125.934 136.275  0.00  0.00    +0.000 A 
ATOM      6  C   UNL     1     110.782 125.348 135.717  0.00  0.00    +0.000 A 
ATOM      7  C   UNL     1     111.497 125.789 136.918  0.00  0.00    +0.000 A 
ATOM      8  C   UNL     1     111.158 124.577 135.765  0.00  0.00    +0.000 A 
ATOM      9  C   UNL     1     111.883 125.024 136.981  0.00  0.00    +0.000 A 
ATOM     10  C   UNL     1     111.712 124.414 136.401  0.00  0.00    +0.000 A 
ENDROOT
BRANCH   2  13
ATOM     11  O   UNL     1     108.563 127.058 136.287  0.00  0.00    +0.000 OA
ATOM     12  O   UNL     1     108.580 129.770 135.384  0.00  0.00    +0.000 OA
ATOM     13  C   UNL     1     109.680 127.558 135.551  0.00  0.00    +0.000 A 
ATOM     14  C   UNL     1     108.938 127.676 135.892  0.00  0.00    +0.000 A 
ATOM     15  C   UNL     1     110.056 128.177 135.155  0.00  0.00    +0.000 A 
ATOM     16  C   UNL     1     108.572 128.414 135.836  0.00  0.00    +0.000 A 
ATOM     17  C   UNL     1     109.689 128.914 135.100  0.00  0.00    +0.000 A 
ATOM     18  C   UNL     1     108.947 129.032 135.440  0.00  0.00    +0.000 A 
ENDBRANCH   2  13
BRANCH  10  19
ATOM     19  O   UNL     1     112.078 123.676 136.454  0.00  0.00    +0.000 OA
ATOM     20  C   UNL     1     112.034 123.244 137.155  0.00  0.00    +0.000 C 
ENDBRANCH  10  19
TORSDOF 2
ENDMDL
