MODEL 1
REMARK VINA RESULT:      -9.9      0.000      0.000
REMARK  Name = 44258009
REMARK  5 active torsions:
REMARK  status: ('A' for Active; 'I' for Inactive)
REMARK    1  A    between atoms: O_2  and  C_17
REMARK    2  A    between atoms: O_2  and  C_19
REMARK    3  A    between atoms: O_10  and  C_31
REMARK    4  A    between atoms: C_16  and  C_18
REMARK    5  A    between atoms: C_20  and  C_24
REMARK                            x       y       z     vdW  Elec       q    Type
REMARK                         _______ _______ _______ _____ _____    ______ ____
ROOT
ATOM      1  O   UNL     1     105.556 124.456 147.824  0.00  0.00    +0.000 OA
ATOM      2  O   UNL     1     106.933 125.547 146.080  0.00  0.00    +0.000 OA
ATOM      3  O   UNL     1     108.092 125.521 146.938  0.00  0.00    +0.000 OA
ATOM      4  O   UNL     1     107.854 124.369 149.612  0.00  0.00    +0.000 OA
ATOM      5  C   UNL     1     105.678 125.021 146.517  0.00  0.00    +0.000 A 
ATOM      6  C   UNL     1     105.219 124.657 147.099  0.00  0.00    +0.000 A 
ATOM      7  C   UNL     1     106.474 125.183 146.662  0.00  0.00    +0.000 A 
ATOM      8  C   UNL     1     106.811 124.982 147.387  0.00  0.00    +0.000 A 
ATOM      9  C   UNL     1     106.352 124.619 147.968  0.00  0.00    +0.000 A 
ATOM     10  C   UNL     1     107.641 125.157 147.525  0.00  0.00    +0.000 A 
ATOM     11  C   UNL     1     106.691 124.404 148.728  0.00  0.00    +0.000 A 
ATOM     12  C   UNL     1     107.997 124.950 148.279  0.00  0.00    +0.000 A 
ATOM     13  C   UNL     1     107.519 124.571 148.885  0.00  0.00    +0.000 A 
ENDROOT
BRANCH   6  15
ATOM     14  O   UNL     1     102.037 124.004 146.517  0.00  0.00    +0.000 OA
ATOM     15  C   UNL     1     104.423 124.494 146.954  0.00  0.00    +0.000 A 
ATOM     16  C   UNL     1     104.211 123.810 146.544  0.00  0.00    +0.000 A 
ATOM     17  C   UNL     1     103.841 125.015 147.218  0.00  0.00    +0.000 A 
ATOM     18  C   UNL     1     103.415 123.647 146.399  0.00  0.00    +0.000 A 
ATOM     19  C   UNL     1     103.045 124.851 147.072  0.00  0.00    +0.000 A 
ATOM     20  C   UNL     1     102.832 124.168 146.663  0.00  0.00    +0.000 A 
BRANCH  18  21
ATOM     21  O   UNL     1     103.202 122.963 145.989  0.00  0.00    +0.000 OA
ATOM     22  C   UNL     1     103.562 122.785 145.268  0.00  0.00    +0.000 C 
ENDBRANCH  18  21
ENDBRANCH   6  15
BRANCH   5  23
ATOM     23  O   UNL     1     105.341 125.221 145.791  0.00  0.00    +0.000 OA
BRANCH  23  32
ATOM     24  O   UNL     1     105.332 126.625 146.061  0.00  0.00    +0.000 OA
ATOM     25  O   UNL     1     105.556 127.091 143.640  0.00  0.00    +0.000 OA
ATOM     26  O   UNL     1     105.473 128.338 144.717  0.00  0.00    +0.000 OA
ATOM     27  O   UNL     1     105.490 125.533 144.177  0.00  0.00    +0.000 OA
ATOM     28  C   UNL     1     105.481 126.936 144.447  0.00  0.00    +0.000 C 
ATOM     29  C   UNL     1     105.440 127.559 144.986  0.00  0.00    +0.000 C 
ATOM     30  C   UNL     1     105.448 126.156 144.716  0.00  0.00    +0.000 C 
ATOM     31  C   UNL     1     105.365 127.404 145.793  0.00  0.00    +0.000 C 
ATOM     32  C   UNL     1     105.374 126.000 145.523  0.00  0.00    +0.000 C 
BRANCH  31  34
ATOM     33  O   UNL     1     104.662 128.111 146.815  0.00  0.00    +0.000 OA
ATOM     34  C   UNL     1     105.324 128.027 146.330  0.00  0.00    +0.000 C 
ENDBRANCH  31  34
ENDBRANCH  23  32
ENDBRANCH   5  23
TORSDOF 5
ENDMDL
MODEL 2
REMARK VINA RESULT:      -9.5     10.159     12.399
REMARK  Name = 44258009
REMARK  5 active torsions:
REMARK  status: ('A' for Active; 'I' for Inactive)
REMARK    1  A    between atoms: O_2  and  C_17
REMARK    2  A    between atoms: O_2  and  C_19
REMARK    3  A    between atoms: O_10  and  C_31
REMARK    4  A    between atoms: C_16  and  C_18
REMARK    5  A    between atoms: C_20  and  C_24
REMARK                            x       y       z     vdW  Elec       q    Type
REMARK                         _______ _______ _______ _____ _____    ______ ____
ROOT
ATOM      1  O   UNL     1     113.558 126.802 136.787  0.00  0.00    +0.000 OA
ATOM      2  O   UNL     1     111.600 125.497 136.017  0.00  0.00    +0.000 OA
ATOM      3  O   UNL     1     112.261 124.257 136.347  0.00  0.00    +0.000 OA
ATOM      4  O   UNL     1     114.953 124.341 137.478  0.00  0.00    +0.000 OA
ATOM      5  C   UNL     1     112.240 126.756 136.234  0.00  0.00    +0.000 A 
ATOM      6  C   UNL     1     112.893 127.191 136.491  0.00  0.00    +0.000 A 
ATOM      7  C   UNL     1     112.253 125.932 136.274  0.00  0.00    +0.000 A 
ATOM      8  C   UNL     1     112.918 125.543 136.570  0.00  0.00    +0.000 A 
ATOM      9  C   UNL     1     113.569 125.978 136.827  0.00  0.00    +0.000 A 
ATOM     10  C   UNL     1     112.918 124.685 136.606  0.00  0.00    +0.000 A 
ATOM     11  C   UNL     1     114.268 125.586 137.137  0.00  0.00    +0.000 A 
ATOM     12  C   UNL     1     113.607 124.274 136.914  0.00  0.00    +0.000 A 
ATOM     13  C   UNL     1     114.287 124.727 137.181  0.00  0.00    +0.000 A 
ENDROOT
BRANCH   6  15
ATOM     14  O   UNL     1     112.841 130.487 136.334  0.00  0.00    +0.000 OA
ATOM     15  C   UNL     1     112.880 128.015 136.451  0.00  0.00    +0.000 A 
ATOM     16  C   UNL     1     112.784 128.460 137.140  0.00  0.00    +0.000 A 
ATOM     17  C   UNL     1     112.963 128.395 135.723  0.00  0.00    +0.000 A 
ATOM     18  C   UNL     1     112.771 129.283 137.100  0.00  0.00    +0.000 A 
ATOM     19  C   UNL     1     112.950 129.219 135.685  0.00  0.00    +0.000 A 
ATOM     20  C   UNL     1     112.854 129.663 136.372  0.00  0.00    +0.000 A 
BRANCH  18  21
ATOM     21  O   UNL     1     112.675 129.728 137.789  0.00  0.00    +0.000 OA
ATOM     22  C   UNL     1     112.995 129.460 138.501  0.00  0.00    +0.000 C 
ENDBRANCH  18  21
ENDBRANCH   6  15
BRANCH   5  23
ATOM     23  O   UNL     1     111.576 127.145 135.938  0.00  0.00    +0.000 OA
BRANCH  23  32
ATOM     24  O   UNL     1     110.783 126.919 137.105  0.00  0.00    +0.000 OA
ATOM     25  O   UNL     1     108.738 126.893 135.710  0.00  0.00    +0.000 OA
ATOM     26  O   UNL     1     108.627 126.675 137.341  0.00  0.00    +0.000 OA
ATOM     27  O   UNL     1     110.213 127.128 135.008  0.00  0.00    +0.000 OA
ATOM     28  C   UNL     1     109.420 126.901 136.175  0.00  0.00    +0.000 C 
ATOM     29  C   UNL     1     109.364 126.793 136.991  0.00  0.00    +0.000 C 
ATOM     30  C   UNL     1     110.158 127.019 135.824  0.00  0.00    +0.000 C 
ATOM     31  C   UNL     1     110.046 126.801 137.455  0.00  0.00    +0.000 C 
ATOM     32  C   UNL     1     110.839 127.027 136.288  0.00  0.00    +0.000 C 
BRANCH  31  34
ATOM     33  O   UNL     1     110.218 127.296 138.785  0.00  0.00    +0.000 OA
ATOM     34  C   UNL     1     109.990 126.693 138.271  0.00  0.00    +0.000 C 
ENDBRANCH  31  34
ENDBRANCH  23  32
ENDBRANCH   5  23
TORSDOF 5
ENDMDL
MODEL 3
REMARK VINA RESULT:      -9.5      9.117     11.179
REMARK  Name = 44258009
REMARK  5 active torsions:
REMARK  status: ('A' for Active; 'I' for Inactive)
REMARK    1  A    between atoms: O_2  and  C_17
REMARK    2  A    between atoms: O_2  and  C_19
REMARK    3  A    between atoms: O_10  and  C_31
REMARK    4  A    between atoms: C_16  and  C_18
REMARK    5  A    between atoms: C_20  and  C_24
REMARK                            x       y       z     vdW  Elec       q    Type
REMARK                         _______ _______ _______ _____ _____    ______ ____
ROOT
ATOM      1  O   UNL     1     113.774 126.222 138.395  0.00  0.00    +0.000 OA
ATOM      2  O   UNL     1     111.696 124.965 137.910  0.00  0.00    +0.000 OA
ATOM      3  O   UNL     1     112.331 124.285 136.807  0.00  0.00    +0.000 OA
ATOM      4  O   UNL     1     115.120 124.887 136.184  0.00  0.00    +0.000 OA
ATOM      5  C   UNL     1     112.408 125.923 138.696  0.00  0.00    +0.000 A 
ATOM      6  C   UNL     1     113.101 126.342 138.857  0.00  0.00    +0.000 A 
ATOM      7  C   UNL     1     112.389 125.384 138.071  0.00  0.00    +0.000 A 
ATOM      8  C   UNL     1     113.062 125.264 137.609  0.00  0.00    +0.000 A 
ATOM      9  C   UNL     1     113.753 125.682 137.770  0.00  0.00    +0.000 A 
ATOM     10  C   UNL     1     113.028 124.699 136.962  0.00  0.00    +0.000 A 
ATOM     11  C   UNL     1     114.460 125.566 137.297  0.00  0.00    +0.000 A 
ATOM     12  C   UNL     1     113.725 124.570 136.477  0.00  0.00    +0.000 A 
ATOM     13  C   UNL     1     114.446 125.006 136.645  0.00  0.00    +0.000 A 
ENDROOT
BRANCH   6  15
ATOM     14  O   UNL     1     113.178 128.501 141.352  0.00  0.00    +0.000 OA
ATOM     15  C   UNL     1     113.120 126.881 139.481  0.00  0.00    +0.000 A 
ATOM     16  C   UNL     1     113.106 127.692 139.326  0.00  0.00    +0.000 A 
ATOM     17  C   UNL     1     113.154 126.611 140.260  0.00  0.00    +0.000 A 
ATOM     18  C   UNL     1     113.125 128.231 139.950  0.00  0.00    +0.000 A 
ATOM     19  C   UNL     1     113.173 127.151 140.883  0.00  0.00    +0.000 A 
ATOM     20  C   UNL     1     113.159 127.961 140.729  0.00  0.00    +0.000 A 
BRANCH  18  21
ATOM     21  O   UNL     1     113.111 129.042 139.795  0.00  0.00    +0.000 OA
ATOM     22  C   UNL     1     113.436 129.334 139.095  0.00  0.00    +0.000 C 
ENDBRANCH  18  21
ENDBRANCH   6  15
BRANCH   5  23
ATOM     23  O   UNL     1     111.736 126.044 139.158  0.00  0.00    +0.000 OA
BRANCH  23  32
ATOM     24  O   UNL     1     111.053 126.799 138.155  0.00  0.00    +0.000 OA
ATOM     25  O   UNL     1     108.880 126.023 139.051  0.00  0.00    +0.000 OA
ATOM     26  O   UNL     1     108.922 127.036 137.751  0.00  0.00    +0.000 OA
ATOM     27  O   UNL     1     110.287 125.527 139.755  0.00  0.00    +0.000 OA
ATOM     28  C   UNL     1     109.604 126.282 138.753  0.00  0.00    +0.000 C 
ATOM     29  C   UNL     1     109.625 126.788 138.102  0.00  0.00    +0.000 C 
ATOM     30  C   UNL     1     110.309 126.033 139.105  0.00  0.00    +0.000 C 
ATOM     31  C   UNL     1     110.350 127.047 137.803  0.00  0.00    +0.000 C 
ATOM     32  C   UNL     1     111.033 126.292 138.806  0.00  0.00    +0.000 C 
BRANCH  31  34
ATOM     33  O   UNL     1     110.676 128.316 137.232  0.00  0.00    +0.000 OA
ATOM     34  C   UNL     1     110.370 127.553 137.153  0.00  0.00    +0.000 C 
ENDBRANCH  31  34
ENDBRANCH  23  32
ENDBRANCH   5  23
TORSDOF 5
ENDMDL
MODEL 4
REMARK VINA RESULT:      -9.5      9.668     11.812
REMARK  Name = 44258009
REMARK  5 active torsions:
REMARK  status: ('A' for Active; 'I' for Inactive)
REMARK    1  A    between atoms: O_2  and  C_17
REMARK    2  A    between atoms: O_2  and  C_19
REMARK    3  A    between atoms: O_10  and  C_31
REMARK    4  A    between atoms: C_16  and  C_18
REMARK    5  A    between atoms: C_20  and  C_24
REMARK                            x       y       z     vdW  Elec       q    Type
REMARK                         _______ _______ _______ _____ _____    ______ ____
ROOT
ATOM      1  O   UNL     1     112.948 127.189 136.235  0.00  0.00    +0.000 OA
ATOM      2  O   UNL     1     112.928 128.010 138.570  0.00  0.00    +0.000 OA
ATOM      3  O   UNL     1     113.375 129.314 138.145  0.00  0.00    +0.000 OA
ATOM      4  O   UNL     1     113.850 129.797 135.304  0.00  0.00    +0.000 OA
ATOM      5  C   UNL     1     112.717 126.958 137.626  0.00  0.00    +0.000 A 
ATOM      6  C   UNL     1     112.723 126.684 136.847  0.00  0.00    +0.000 A 
ATOM      7  C   UNL     1     112.935 127.736 137.791  0.00  0.00    +0.000 A 
ATOM      8  C   UNL     1     113.159 128.241 137.178  0.00  0.00    +0.000 A 
ATOM      9  C   UNL     1     113.166 127.967 136.401  0.00  0.00    +0.000 A 
ATOM     10  C   UNL     1     113.384 129.049 137.364  0.00  0.00    +0.000 A 
ATOM     11  C   UNL     1     113.397 128.482 135.753  0.00  0.00    +0.000 A 
ATOM     12  C   UNL     1     113.619 129.579 136.730  0.00  0.00    +0.000 A 
ATOM     13  C   UNL     1     113.626 129.294 135.919  0.00  0.00    +0.000 A 
ENDROOT
BRANCH   6  15
ATOM     14  O   UNL     1     111.847 123.571 136.187  0.00  0.00    +0.000 OA
ATOM     15  C   UNL     1     112.505 125.906 136.683  0.00  0.00    +0.000 A 
ATOM     16  C   UNL     1     111.780 125.749 136.320  0.00  0.00    +0.000 A 
ATOM     17  C   UNL     1     113.010 125.284 136.880  0.00  0.00    +0.000 A 
ATOM     18  C   UNL     1     111.561 124.971 136.155  0.00  0.00    +0.000 A 
ATOM     19  C   UNL     1     112.791 124.506 136.715  0.00  0.00    +0.000 A 
ATOM     20  C   UNL     1     112.067 124.350 136.353  0.00  0.00    +0.000 A 
BRANCH  18  21
ATOM     21  O   UNL     1     110.836 124.814 135.793  0.00  0.00    +0.000 OA
ATOM     22  C   UNL     1     110.465 125.398 135.343  0.00  0.00    +0.000 C 
ENDBRANCH  18  21
ENDBRANCH   6  15
BRANCH   5  23
ATOM     23  O   UNL     1     112.492 126.453 138.239  0.00  0.00    +0.000 OA
BRANCH  23  32
ATOM     24  O   UNL     1     111.212 127.060 138.424  0.00  0.00    +0.000 OA
ATOM     25  O   UNL     1     111.273 126.461 140.824  0.00  0.00    +0.000 OA
ATOM     26  O   UNL     1     109.973 127.268 140.208  0.00  0.00    +0.000 OA
ATOM     27  O   UNL     1     112.533 126.054 139.840  0.00  0.00    +0.000 OA
ATOM     28  C   UNL     1     111.253 126.661 140.024  0.00  0.00    +0.000 C 
ATOM     29  C   UNL     1     110.603 127.064 139.715  0.00  0.00    +0.000 C 
ATOM     30  C   UNL     1     111.883 126.457 139.531  0.00  0.00    +0.000 C 
ATOM     31  C   UNL     1     110.582 127.264 138.915  0.00  0.00    +0.000 C 
ATOM     32  C   UNL     1     111.862 126.657 138.731  0.00  0.00    +0.000 C 
BRANCH  31  34
ATOM     33  O   UNL     1     109.439 127.299 138.058  0.00  0.00    +0.000 OA
ATOM     34  C   UNL     1     109.932 127.667 138.608  0.00  0.00    +0.000 C 
ENDBRANCH  31  34
ENDBRANCH  23  32
ENDBRANCH   5  23
TORSDOF 5
ENDMDL
MODEL 5
REMARK VINA RESULT:      -9.4      9.797     11.979
REMARK  Name = 44258009
REMARK  5 active torsions:
REMARK  status: ('A' for Active; 'I' for Inactive)
REMARK    1  A    between atoms: O_2  and  C_17
REMARK    2  A    between atoms: O_2  and  C_19
REMARK    3  A    between atoms: O_10  and  C_31
REMARK    4  A    between atoms: C_16  and  C_18
REMARK    5  A    between atoms: C_20  and  C_24
REMARK                            x       y       z     vdW  Elec       q    Type
REMARK                         _______ _______ _______ _____ _____    ______ ____
ROOT
ATOM      1  O   UNL     1     112.890 127.036 136.481  0.00  0.00    +0.000 OA
ATOM      2  O   UNL     1     112.897 128.347 138.581  0.00  0.00    +0.000 OA
ATOM      3  O   UNL     1     112.333 129.490 137.903  0.00  0.00    +0.000 OA
ATOM      4  O   UNL     1     111.751 129.301 135.047  0.00  0.00    +0.000 OA
ATOM      5  C   UNL     1     113.173 127.134 137.879  0.00  0.00    +0.000 A 
ATOM      6  C   UNL     1     113.170 126.696 137.178  0.00  0.00    +0.000 A 
ATOM      7  C   UNL     1     112.895 127.910 137.880  0.00  0.00    +0.000 A 
ATOM      8  C   UNL     1     112.614 128.250 137.183  0.00  0.00    +0.000 A 
ATOM      9  C   UNL     1     112.612 127.813 136.484  0.00  0.00    +0.000 A 
ATOM     10  C   UNL     1     112.327 129.060 137.198  0.00  0.00    +0.000 A 
ATOM     11  C   UNL     1     112.322 128.155 135.750  0.00  0.00    +0.000 A 
ATOM     12  C   UNL     1     112.034 129.419 136.475  0.00  0.00    +0.000 A 
ATOM     13  C   UNL     1     112.031 128.964 135.746  0.00  0.00    +0.000 A 
ENDROOT
BRANCH   6  15
ATOM     14  O   UNL     1     114.280 123.589 137.172  0.00  0.00    +0.000 OA
ATOM     15  C   UNL     1     113.448 125.920 137.177  0.00  0.00    +0.000 A 
ATOM     16  C   UNL     1     112.916 125.292 137.114  0.00  0.00    +0.000 A 
ATOM     17  C   UNL     1     114.257 125.771 137.238  0.00  0.00    +0.000 A 
ATOM     18  C   UNL     1     113.194 124.515 137.112  0.00  0.00    +0.000 A 
ATOM     19  C   UNL     1     114.534 124.993 137.236  0.00  0.00    +0.000 A 
ATOM     20  C   UNL     1     114.003 124.366 137.173  0.00  0.00    +0.000 A 
BRANCH  18  21
ATOM     21  O   UNL     1     112.662 123.887 137.049  0.00  0.00    +0.000 OA
ATOM     22  C   UNL     1     111.997 123.956 136.567  0.00  0.00    +0.000 C 
ENDBRANCH  18  21
ENDBRANCH   6  15
BRANCH   5  23
ATOM     23  O   UNL     1     113.453 126.794 138.576  0.00  0.00    +0.000 OA
BRANCH  23  32
ATOM     24  O   UNL     1     112.157 126.569 139.133  0.00  0.00    +0.000 OA
ATOM     25  O   UNL     1     113.079 126.885 141.408  0.00  0.00    +0.000 OA
ATOM     26  O   UNL     1     111.476 126.555 141.206  0.00  0.00    +0.000 OA
ATOM     27  O   UNL     1     114.068 127.004 140.093  0.00  0.00    +0.000 OA
ATOM     28  C   UNL     1     112.772 126.780 140.650  0.00  0.00    +0.000 C 
ATOM     29  C   UNL     1     111.970 126.615 140.548  0.00  0.00    +0.000 C 
ATOM     30  C   UNL     1     113.266 126.839 139.991  0.00  0.00    +0.000 C 
ATOM     31  C   UNL     1     111.662 126.509 139.790  0.00  0.00    +0.000 C 
ATOM     32  C   UNL     1     112.959 126.734 139.233  0.00  0.00    +0.000 C 
BRANCH  31  34
ATOM     33  O   UNL     1     110.623 125.609 139.400  0.00  0.00    +0.000 OA
ATOM     34  C   UNL     1     110.861 126.345 139.690  0.00  0.00    +0.000 C 
ENDBRANCH  31  34
ENDBRANCH  23  32
ENDBRANCH   5  23
TORSDOF 5
ENDMDL
MODEL 6
REMARK VINA RESULT:      -9.3      0.972      3.488
REMARK  Name = 44258009
REMARK  5 active torsions:
REMARK  status: ('A' for Active; 'I' for Inactive)
REMARK    1  A    between atoms: O_2  and  C_17
REMARK    2  A    between atoms: O_2  and  C_19
REMARK    3  A    between atoms: O_10  and  C_31
REMARK    4  A    between atoms: C_16  and  C_18
REMARK    5  A    between atoms: C_20  and  C_24
REMARK                            x       y       z     vdW  Elec       q    Type
REMARK                         _______ _______ _______ _____ _____    ______ ____
ROOT
ATOM      1  O   UNL     1     106.760 125.940 147.005  0.00  0.00    +0.000 OA
ATOM      2  O   UNL     1     105.026 124.940 148.462  0.00  0.00    +0.000 OA
ATOM      3  O   UNL     1     106.033 124.260 149.241  0.00  0.00    +0.000 OA
ATOM      4  O   UNL     1     108.846 124.597 148.530  0.00  0.00    +0.000 OA
ATOM      5  C   UNL     1     105.385 125.771 147.356  0.00  0.00    +0.000 A 
ATOM      6  C   UNL     1     105.963 126.105 146.870  0.00  0.00    +0.000 A 
ATOM      7  C   UNL     1     105.605 125.274 147.976  0.00  0.00    +0.000 A 
ATOM      8  C   UNL     1     106.402 125.109 148.110  0.00  0.00    +0.000 A 
ATOM      9  C   UNL     1     106.979 125.442 147.625  0.00  0.00    +0.000 A 
ATOM     10  C   UNL     1     106.618 124.588 148.760  0.00  0.00    +0.000 A 
ATOM     11  C   UNL     1     107.812 125.278 147.754  0.00  0.00    +0.000 A 
ATOM     12  C   UNL     1     107.446 124.413 148.904  0.00  0.00    +0.000 A 
ATOM     13  C   UNL     1     108.048 124.760 148.398  0.00  0.00    +0.000 A 
ENDROOT
BRANCH   6  15
ATOM     14  O   UNL     1     105.083 128.094 144.389  0.00  0.00    +0.000 OA
ATOM     15  C   UNL     1     105.743 126.603 146.251  0.00  0.00    +0.000 A 
ATOM     16  C   UNL     1     105.758 126.324 145.473  0.00  0.00    +0.000 A 
ATOM     17  C   UNL     1     105.508 127.378 146.407  0.00  0.00    +0.000 A 
ATOM     18  C   UNL     1     105.537 126.822 144.854  0.00  0.00    +0.000 A 
ATOM     19  C   UNL     1     105.288 127.875 145.786  0.00  0.00    +0.000 A 
ATOM     20  C   UNL     1     105.303 127.597 145.010  0.00  0.00    +0.000 A 
BRANCH  18  21
ATOM     21  O   UNL     1     105.552 126.544 144.076  0.00  0.00    +0.000 OA
ATOM     22  C   UNL     1     106.181 126.077 143.817  0.00  0.00    +0.000 C 
ENDBRANCH  18  21
ENDBRANCH   6  15
BRANCH   5  23
ATOM     23  O   UNL     1     104.588 125.936 147.222  0.00  0.00    +0.000 OA
BRANCH  23  32
ATOM     24  O   UNL     1     104.278 124.669 146.638  0.00  0.00    +0.000 OA
ATOM     25  O   UNL     1     102.010 124.770 147.624  0.00  0.00    +0.000 OA
ATOM     26  O   UNL     1     102.456 123.470 146.712  0.00  0.00    +0.000 OA
ATOM     27  O   UNL     1     103.076 126.003 147.880  0.00  0.00    +0.000 OA
ATOM     28  C   UNL     1     102.766 124.736 147.296  0.00  0.00    +0.000 C 
ATOM     29  C   UNL     1     102.989 124.087 146.839  0.00  0.00    +0.000 C 
ATOM     30  C   UNL     1     103.299 125.354 147.423  0.00  0.00    +0.000 C 
ATOM     31  C   UNL     1     103.745 124.053 146.511  0.00  0.00    +0.000 C 
ATOM     32  C   UNL     1     104.055 125.320 147.095  0.00  0.00    +0.000 C 
BRANCH  31  34
ATOM     33  O   UNL     1     104.248 123.514 145.287  0.00  0.00    +0.000 OA
ATOM     34  C   UNL     1     103.968 123.403 146.055  0.00  0.00    +0.000 C 
ENDBRANCH  31  34
ENDBRANCH  23  32
ENDBRANCH   5  23
TORSDOF 5
ENDMDL
MODEL 7
REMARK VINA RESULT:      -9.3      9.893     12.252
REMARK  Name = 44258009
REMARK  5 active torsions:
REMARK  status: ('A' for Active; 'I' for Inactive)
REMARK    1  A    between atoms: O_2  and  C_17
REMARK    2  A    between atoms: O_2  and  C_19
REMARK    3  A    between atoms: O_10  and  C_31
REMARK    4  A    between atoms: C_16  and  C_18
REMARK    5  A    between atoms: C_20  and  C_24
REMARK                            x       y       z     vdW  Elec       q    Type
REMARK                         _______ _______ _______ _____ _____    ______ ____
ROOT
ATOM      1  O   UNL     1     111.762 128.857 135.610  0.00  0.00    +0.000 OA
ATOM      2  O   UNL     1     112.811 126.799 136.501  0.00  0.00    +0.000 OA
ATOM      3  O   UNL     1     114.130 127.326 136.243  0.00  0.00    +0.000 OA
ATOM      4  O   UNL     1     114.390 129.985 135.062  0.00  0.00    +0.000 OA
ATOM      5  C   UNL     1     111.640 127.556 136.188  0.00  0.00    +0.000 A 
ATOM      6  C   UNL     1     111.290 128.242 135.892  0.00  0.00    +0.000 A 
ATOM      7  C   UNL     1     112.461 127.486 136.204  0.00  0.00    +0.000 A 
ATOM      8  C   UNL     1     112.933 128.101 135.923  0.00  0.00    +0.000 A 
ATOM      9  C   UNL     1     112.584 128.786 135.626  0.00  0.00    +0.000 A 
ATOM     10  C   UNL     1     113.788 128.016 135.944  0.00  0.00    +0.000 A 
ATOM     11  C   UNL     1     113.064 129.435 135.331  0.00  0.00    +0.000 A 
ATOM     12  C   UNL     1     114.285 128.653 135.653  0.00  0.00    +0.000 A 
ATOM     13  C   UNL     1     113.921 129.368 135.344  0.00  0.00    +0.000 A 
ENDROOT
BRANCH   6  15
ATOM     14  O   UNL     1     108.002 128.523 135.832  0.00  0.00    +0.000 OA
ATOM     15  C   UNL     1     110.468 128.312 135.876  0.00  0.00    +0.000 A 
ATOM     16  C   UNL     1     110.085 128.795 136.425  0.00  0.00    +0.000 A 
ATOM     17  C   UNL     1     110.029 127.899 135.313  0.00  0.00    +0.000 A 
ATOM     18  C   UNL     1     109.263 128.865 136.410  0.00  0.00    +0.000 A 
ATOM     19  C   UNL     1     109.207 127.969 135.299  0.00  0.00    +0.000 A 
ATOM     20  C   UNL     1     108.824 128.452 135.847  0.00  0.00    +0.000 A 
BRANCH  18  21
ATOM     21  O   UNL     1     108.880 129.348 136.959  0.00  0.00    +0.000 OA
ATOM     22  C   UNL     1     109.244 130.039 137.225  0.00  0.00    +0.000 C 
ENDBRANCH  18  21
ENDBRANCH   6  15
BRANCH   5  23
ATOM     23  O   UNL     1     111.168 126.940 136.469  0.00  0.00    +0.000 OA
BRANCH  23  32
ATOM     24  O   UNL     1     111.437 127.209 137.847  0.00  0.00    +0.000 OA
ATOM     25  O   UNL     1     111.154 124.807 138.372  0.00  0.00    +0.000 OA
ATOM     26  O   UNL     1     111.518 125.877 139.573  0.00  0.00    +0.000 OA
ATOM     27  O   UNL     1     110.979 125.339 136.819  0.00  0.00    +0.000 OA
ATOM     28  C   UNL     1     111.249 125.608 138.197  0.00  0.00    +0.000 C 
ATOM     29  C   UNL     1     111.431 126.143 138.797  0.00  0.00    +0.000 C 
ATOM     30  C   UNL     1     111.161 125.874 137.420  0.00  0.00    +0.000 C 
ATOM     31  C   UNL     1     111.525 126.944 138.622  0.00  0.00    +0.000 C 
ATOM     32  C   UNL     1     111.255 126.675 137.245  0.00  0.00    +0.000 C 
BRANCH  31  34
ATOM     33  O   UNL     1     111.178 128.083 139.413  0.00  0.00    +0.000 OA
ATOM     34  C   UNL     1     111.707 127.478 139.223  0.00  0.00    +0.000 C 
ENDBRANCH  31  34
ENDBRANCH  23  32
ENDBRANCH   5  23
TORSDOF 5
ENDMDL
MODEL 8
REMARK VINA RESULT:      -9.3     10.748     11.690
REMARK  Name = 44258009
REMARK  5 active torsions:
REMARK  status: ('A' for Active; 'I' for Inactive)
REMARK    1  A    between atoms: O_2  and  C_17
REMARK    2  A    between atoms: O_2  and  C_19
REMARK    3  A    between atoms: O_10  and  C_31
REMARK    4  A    between atoms: C_16  and  C_18
REMARK    5  A    between atoms: C_20  and  C_24
REMARK                            x       y       z     vdW  Elec       q    Type
REMARK                         _______ _______ _______ _____ _____    ______ ____
ROOT
ATOM      1  O   UNL     1     113.268 126.163 139.014  0.00  0.00    +0.000 OA
ATOM      2  O   UNL     1     112.335 128.433 138.688  0.00  0.00    +0.000 OA
ATOM      3  O   UNL     1     113.106 128.940 139.797  0.00  0.00    +0.000 OA
ATOM      4  O   UNL     1     114.853 127.116 141.263  0.00  0.00    +0.000 OA
ATOM      5  C   UNL     1     112.414 127.060 138.299  0.00  0.00    +0.000 A 
ATOM      6  C   UNL     1     112.725 126.303 138.408  0.00  0.00    +0.000 A 
ATOM      7  C   UNL     1     112.646 127.676 138.796  0.00  0.00    +0.000 A 
ATOM      8  C   UNL     1     113.189 127.536 139.402  0.00  0.00    +0.000 A 
ATOM      9  C   UNL     1     113.499 126.780 139.510  0.00  0.00    +0.000 A 
ATOM     10  C   UNL     1     113.422 128.187 139.913  0.00  0.00    +0.000 A 
ATOM     11  C   UNL     1     114.065 126.621 140.137  0.00  0.00    +0.000 A 
ATOM     12  C   UNL     1     113.986 128.047 140.545  0.00  0.00    +0.000 A 
ATOM     13  C   UNL     1     114.310 127.259 140.659  0.00  0.00    +0.000 A 
ENDROOT
BRANCH   6  15
ATOM     14  O   UNL     1     111.799 123.839 136.418  0.00  0.00    +0.000 OA
ATOM     15  C   UNL     1     112.493 125.687 137.911  0.00  0.00    +0.000 A 
ATOM     16  C   UNL     1     113.016 125.398 137.341  0.00  0.00    +0.000 A 
ATOM     17  C   UNL     1     111.739 125.360 137.983  0.00  0.00    +0.000 A 
ATOM     18  C   UNL     1     112.784 124.782 136.844  0.00  0.00    +0.000 A 
ATOM     19  C   UNL     1     111.508 124.744 137.485  0.00  0.00    +0.000 A 
ATOM     20  C   UNL     1     112.030 124.455 136.916  0.00  0.00    +0.000 A 
BRANCH  18  21
ATOM     21  O   UNL     1     113.307 124.493 136.274  0.00  0.00    +0.000 OA
ATOM     22  C   UNL     1     114.119 124.601 136.367  0.00  0.00    +0.000 C 
ENDBRANCH  18  21
ENDBRANCH   6  15
BRANCH   5  23
ATOM     23  O   UNL     1     111.872 127.200 137.694  0.00  0.00    +0.000 OA
BRANCH  23  32
ATOM     24  O   UNL     1     112.808 127.897 136.870  0.00  0.00    +0.000 OA
ATOM     25  O   UNL     1     110.963 129.228 135.897  0.00  0.00    +0.000 OA
ATOM     26  O   UNL     1     112.514 129.481 135.398  0.00  0.00    +0.000 OA
ATOM     27  O   UNL     1     110.641 128.087 137.045  0.00  0.00    +0.000 OA
ATOM     28  C   UNL     1     111.578 128.784 136.221  0.00  0.00    +0.000 C 
ATOM     29  C   UNL     1     112.354 128.911 135.972  0.00  0.00    +0.000 C 
ATOM     30  C   UNL     1     111.417 128.214 136.796  0.00  0.00    +0.000 C 
ATOM     31  C   UNL     1     112.969 128.467 136.296  0.00  0.00    +0.000 C 
ATOM     32  C   UNL     1     112.032 127.770 137.120  0.00  0.00    +0.000 C 
BRANCH  31  34
ATOM     33  O   UNL     1     114.178 127.976 135.713  0.00  0.00    +0.000 OA
ATOM     34  C   UNL     1     113.745 128.594 136.047  0.00  0.00    +0.000 C 
ENDBRANCH  31  34
ENDBRANCH  23  32
ENDBRANCH   5  23
TORSDOF 5
ENDMDL
MODEL 9
REMARK VINA RESULT:      -9.3     10.222     12.300
REMARK  Name = 44258009
REMARK  5 active torsions:
REMARK  status: ('A' for Active; 'I' for Inactive)
REMARK    1  A    between atoms: O_2  and  C_17
REMARK    2  A    between atoms: O_2  and  C_19
REMARK    3  A    between atoms: O_10  and  C_31
REMARK    4  A    between atoms: C_16  and  C_18
REMARK    5  A    between atoms: C_20  and  C_24
REMARK                            x       y       z     vdW  Elec       q    Type
REMARK                         _______ _______ _______ _____ _____    ______ ____
ROOT
ATOM      1  O   UNL     1     112.973 127.341 136.283  0.00  0.00    +0.000 OA
ATOM      2  O   UNL     1     111.246 128.664 135.101  0.00  0.00    +0.000 OA
ATOM      3  O   UNL     1     112.244 129.584 134.612  0.00  0.00    +0.000 OA
ATOM      4  O   UNL     1     115.043 129.156 135.332  0.00  0.00    +0.000 OA
ATOM      5  C   UNL     1     111.604 127.555 135.927  0.00  0.00    +0.000 A 
ATOM      6  C   UNL     1     112.180 127.114 136.321  0.00  0.00    +0.000 A 
ATOM      7  C   UNL     1     111.822 128.223 135.495  0.00  0.00    +0.000 A 
ATOM      8  C   UNL     1     112.614 128.450 135.457  0.00  0.00    +0.000 A 
ATOM      9  C   UNL     1     113.189 128.009 135.850  0.00  0.00    +0.000 A 
ATOM     10  C   UNL     1     112.827 129.148 135.003  0.00  0.00    +0.000 A 
ATOM     11  C   UNL     1     114.017 128.235 135.818  0.00  0.00    +0.000 A 
ATOM     12  C   UNL     1     113.650 129.390 134.959  0.00  0.00    +0.000 A 
ATOM     13  C   UNL     1     114.250 128.931 135.369  0.00  0.00    +0.000 A 
ENDROOT
BRANCH   6  15
ATOM     14  O   UNL     1     111.311 124.442 138.053  0.00  0.00    +0.000 OA
ATOM     15  C   UNL     1     111.963 126.445 136.754  0.00  0.00    +0.000 A 
ATOM     16  C   UNL     1     111.973 126.467 137.579  0.00  0.00    +0.000 A 
ATOM     17  C   UNL     1     111.736 125.756 136.362  0.00  0.00    +0.000 A 
ATOM     18  C   UNL     1     111.755 125.799 138.011  0.00  0.00    +0.000 A 
ATOM     19  C   UNL     1     111.519 125.088 136.795  0.00  0.00    +0.000 A 
ATOM     20  C   UNL     1     111.528 125.110 137.619  0.00  0.00    +0.000 A 
BRANCH  18  21
ATOM     21  O   UNL     1     111.765 125.821 138.836  0.00  0.00    +0.000 OA
ATOM     22  C   UNL     1     112.238 126.371 139.229  0.00  0.00    +0.000 C 
ENDBRANCH  18  21
ENDBRANCH   6  15
BRANCH   5  23
ATOM     23  O   UNL     1     110.812 127.328 135.966  0.00  0.00    +0.000 OA
BRANCH  23  32
ATOM     24  O   UNL     1     110.419 128.374 136.856  0.00  0.00    +0.000 OA
ATOM     25  O   UNL     1     108.182 128.433 135.800  0.00  0.00    +0.000 OA
ATOM     26  O   UNL     1     108.535 129.459 137.041  0.00  0.00    +0.000 OA
ATOM     27  O   UNL     1     109.321 127.367 135.261  0.00  0.00    +0.000 OA
ATOM     28  C   UNL     1     108.928 128.413 136.152  0.00  0.00    +0.000 C 
ATOM     29  C   UNL     1     109.105 128.926 136.773  0.00  0.00    +0.000 C 
ATOM     30  C   UNL     1     109.498 127.880 135.883  0.00  0.00    +0.000 C 
ATOM     31  C   UNL     1     109.850 128.907 137.125  0.00  0.00    +0.000 C 
ATOM     32  C   UNL     1     110.243 127.860 136.235  0.00  0.00    +0.000 C 
BRANCH  31  34
ATOM     33  O   UNL     1     110.218 129.118 138.490  0.00  0.00    +0.000 OA
ATOM     34  C   UNL     1     110.026 129.420 137.746  0.00  0.00    +0.000 C 
ENDBRANCH  31  34
ENDBRANCH  23  32
ENDBRANCH   5  23
TORSDOF 5
ENDMDL
MODEL 10
REMARK VINA RESULT:      -9.2     10.948     13.089
REMARK  Name = 44258009
REMARK  5 active torsions:
REMARK  status: ('A' for Active; 'I' for Inactive)
REMARK    1  A    between atoms: O_2  and  C_17
REMARK    2  A    between atoms: O_2  and  C_19
REMARK    3  A    between atoms: O_10  and  C_31
REMARK    4  A    between atoms: C_16  and  C_18
REMARK    5  A    between atoms: C_20  and  C_24
REMARK                            x       y       z     vdW  Elec       q    Type
REMARK                         _______ _______ _______ _____ _____    ______ ____
ROOT
ATOM      1  O   UNL     1     111.739 126.481 136.399  0.00  0.00    +0.000 OA
ATOM      2  O   UNL     1     112.271 128.532 135.119  0.00  0.00    +0.000 OA
ATOM      3  O   UNL     1     110.912 128.622 134.643  0.00  0.00    +0.000 OA
ATOM      4  O   UNL     1     108.979 126.598 135.478  0.00  0.00    +0.000 OA
ATOM      5  C   UNL     1     112.682 127.474 135.987  0.00  0.00    +0.000 A 
ATOM      6  C   UNL     1     112.504 126.790 136.414  0.00  0.00    +0.000 A 
ATOM      7  C   UNL     1     112.094 127.848 135.546  0.00  0.00    +0.000 A 
ATOM      8  C   UNL     1     111.329 127.539 135.530  0.00  0.00    +0.000 A 
ATOM      9  C   UNL     1     111.152 126.856 135.957  0.00  0.00    +0.000 A 
ATOM     10  C   UNL     1     110.726 127.939 135.066  0.00  0.00    +0.000 A 
ATOM     11  C   UNL     1     110.360 126.524 135.949  0.00  0.00    +0.000 A 
ATOM     12  C   UNL     1     109.928 127.621 135.047  0.00  0.00    +0.000 A 
ATOM     13  C   UNL     1     109.743 126.909 135.491  0.00  0.00    +0.000 A 
ENDROOT
BRANCH   6  15
ATOM     14  O   UNL     1     114.855 125.294 138.182  0.00  0.00    +0.000 OA
ATOM     15  C   UNL     1     113.092 126.415 136.855  0.00  0.00    +0.000 A 
ATOM     16  C   UNL     1     113.097 126.485 137.678  0.00  0.00    +0.000 A 
ATOM     17  C   UNL     1     113.674 125.972 136.475  0.00  0.00    +0.000 A 
ATOM     18  C   UNL     1     113.685 126.111 138.119  0.00  0.00    +0.000 A 
ATOM     19  C   UNL     1     114.262 125.598 136.918  0.00  0.00    +0.000 A 
ATOM     20  C   UNL     1     114.267 125.668 137.739  0.00  0.00    +0.000 A 
BRANCH  18  21
ATOM     21  O   UNL     1     113.690 126.181 138.942  0.00  0.00    +0.000 OA
ATOM     22  C   UNL     1     112.998 126.383 139.343  0.00  0.00    +0.000 C 
ENDBRANCH  18  21
ENDBRANCH   6  15
BRANCH   5  23
ATOM     23  O   UNL     1     113.446 127.783 136.002  0.00  0.00    +0.000 OA
BRANCH  23  32
ATOM     24  O   UNL     1     113.119 128.885 136.851  0.00  0.00    +0.000 OA
ATOM     25  O   UNL     1     114.851 130.257 135.736  0.00  0.00    +0.000 OA
ATOM     26  O   UNL     1     113.947 130.901 136.956  0.00  0.00    +0.000 OA
ATOM     27  O   UNL     1     114.601 128.698 135.259  0.00  0.00    +0.000 OA
ATOM     28  C   UNL     1     114.274 129.800 136.108  0.00  0.00    +0.000 C 
ATOM     29  C   UNL     1     113.822 130.121 136.718  0.00  0.00    +0.000 C 
ATOM     30  C   UNL     1     114.149 129.019 135.869  0.00  0.00    +0.000 C 
ATOM     31  C   UNL     1     113.244 129.664 137.090  0.00  0.00    +0.000 C 
ATOM     32  C   UNL     1     113.571 128.562 136.241  0.00  0.00    +0.000 C 
BRANCH  31  34
ATOM     33  O   UNL     1     112.844 129.673 138.461  0.00  0.00    +0.000 OA
ATOM     34  C   UNL     1     112.793 129.986 137.699  0.00  0.00    +0.000 C 
ENDBRANCH  31  34
ENDBRANCH  23  32
ENDBRANCH   5  23
TORSDOF 5
ENDMDL
