MODEL 1
REMARK VINA RESULT:     -10.7      0.000      0.000
REMARK  Name = 74977470
REMARK  11 active torsions:
REMARK  status: ('A' for Active; 'I' for Inactive)
REMARK    1  A    between atoms: O_1  and  C_19
REMARK    2  A    between atoms: O_1  and  C_24
REMARK    3  A    between atoms: O_10  and  C_31
REMARK    4  A    between atoms: O_10  and  C_40
REMARK    5  A    between atoms: O_17  and  C_52
REMARK    6  A    between atoms: C_21  and  C_29
REMARK    7  A    between atoms: C_23  and  C_30
REMARK    8  A    between atoms: C_28  and  C_31
REMARK    9  A    between atoms: C_39  and  C_41
REMARK   10  A    between atoms: C_40  and  C_42
REMARK   11  A    between atoms: C_45  and  C_49
REMARK                            x       y       z     vdW  Elec       q    Type
REMARK                         _______ _______ _______ _____ _____    ______ ____
ROOT
ATOM      1  O   UNL     1     114.009 129.491 140.317  0.00  0.00    +0.000 OA
ATOM      2  O   UNL     1     112.544 130.045 142.233  0.00  0.00    +0.000 OA
ATOM      3  O   UNL     1     113.752 131.079 141.792  0.00  0.00    +0.000 OA
ATOM      4  C   UNL     1     112.917 129.158 141.175  0.00  0.00    +0.000 C 
ATOM      5  C   UNL     1     113.032 129.860 141.594  0.00  0.00    +0.000 C 
ATOM      6  C   UNL     1     113.405 128.974 140.537  0.00  0.00    +0.000 C 
ATOM      7  C   UNL     1     113.636 130.377 141.374  0.00  0.00    +0.000 C 
ATOM      8  C   UNL     1     114.125 130.193 140.734  0.00  0.00    +0.000 C 
ENDROOT
BRANCH   6  13
ATOM      9  O   UNL     1     112.648 129.001 139.071  0.00  0.00    +0.000 OA
ATOM     10  O   UNL     1     113.933 127.543 141.167  0.00  0.00    +0.000 OA
ATOM     11  O   UNL     1     112.948 126.131 138.856  0.00  0.00    +0.000 OA
ATOM     12  O   UNL     1     112.141 128.331 137.897  0.00  0.00    +0.000 OA
ATOM     13  C   UNL     1     113.290 128.272 140.118  0.00  0.00    +0.000 A 
ATOM     14  C   UNL     1     112.912 128.286 139.386  0.00  0.00    +0.000 A 
ATOM     15  C   UNL     1     113.554 127.557 140.433  0.00  0.00    +0.000 A 
ATOM     16  C   UNL     1     112.797 127.584 138.967  0.00  0.00    +0.000 A 
ATOM     17  C   UNL     1     113.440 126.855 140.015  0.00  0.00    +0.000 A 
ATOM     18  C   UNL     1     113.061 126.868 139.282  0.00  0.00    +0.000 A 
ATOM     19  C   UNL     1     112.402 127.611 138.205  0.00  0.00    +0.000 A 
ATOM     20  C   UNL     1     112.280 126.883 137.764  0.00  0.00    +0.000 A 
ATOM     21  C   UNL     1     112.554 126.138 138.092  0.00  0.00    +0.000 A 
BRANCH  21  23
ATOM     22  O   UNL     1     112.101 123.324 136.431  0.00  0.00    +0.000 OA
ATOM     23  C   UNL     1     112.441 125.434 137.676  0.00  0.00    +0.000 A 
ATOM     24  C   UNL     1     113.042 125.138 137.195  0.00  0.00    +0.000 A 
ATOM     25  C   UNL     1     111.727 125.027 137.742  0.00  0.00    +0.000 A 
ATOM     26  C   UNL     1     112.929 124.435 136.780  0.00  0.00    +0.000 A 
ATOM     27  C   UNL     1     111.613 124.323 137.327  0.00  0.00    +0.000 A 
ATOM     28  C   UNL     1     112.215 124.027 136.846  0.00  0.00    +0.000 A 
ENDBRANCH  21  23
ENDBRANCH   6  13
BRANCH   8  30
ATOM     29  O   UNL     1     115.487 130.419 140.367  0.00  0.00    +0.000 OA
ATOM     30  C   UNL     1     114.729 130.710 140.514  0.00  0.00    +0.000 C 
ENDBRANCH   8  30
BRANCH   4  31
ATOM     31  O   UNL     1     112.313 128.641 141.396  0.00  0.00    +0.000 OA
BRANCH  31  36
ATOM     32  O   UNL     1     111.255 129.538 141.053  0.00  0.00    +0.000 OA
ATOM     33  O   UNL     1     111.379 127.995 142.592  0.00  0.00    +0.000 OA
ATOM     34  O   UNL     1     109.853 128.569 142.848  0.00  0.00    +0.000 OA
ATOM     35  O   UNL     1     109.262 129.789 141.907  0.00  0.00    +0.000 OA
ATOM     36  C   UNL     1     111.550 128.928 141.524  0.00  0.00    +0.000 C 
ATOM     37  C   UNL     1     111.083 128.605 142.122  0.00  0.00    +0.000 C 
ATOM     38  C   UNL     1     110.320 128.892 142.250  0.00  0.00    +0.000 C 
ATOM     39  C   UNL     1     110.024 129.502 141.780  0.00  0.00    +0.000 C 
ATOM     40  C   UNL     1     110.492 129.825 141.181  0.00  0.00    +0.000 C 
BRANCH  40  41
ATOM     41  C   UNL     1     110.197 130.435 140.711  0.00  0.00    +0.000 C 
BRANCH  41  42
ATOM     42  O   UNL     1     110.174 130.348 139.890  0.00  0.00    +0.000 OA
BRANCH  42  44
ATOM     43  O   UNL     1     110.544 131.683 139.537  0.00  0.00    +0.000 OA
ATOM     44  C   UNL     1     110.082 131.011 139.408  0.00  0.00    +0.000 C 
BRANCH  44  45
ATOM     45  C   UNL     1     109.528 131.002 138.796  0.00  0.00    +0.000 C 
ATOM     46  C   UNL     1     109.777 131.085 138.014  0.00  0.00    +0.000 C 
BRANCH  46  48
ATOM     47  O   UNL     1     107.561 131.050 135.569  0.00  0.00    +0.000 OA
ATOM     48  C   UNL     1     109.222 131.076 137.402  0.00  0.00    +0.000 A 
ATOM     49  C   UNL     1     109.093 130.384 136.973  0.00  0.00    +0.000 A 
ATOM     50  C   UNL     1     108.798 131.760 137.221  0.00  0.00    +0.000 A 
ATOM     51  C   UNL     1     108.539 130.375 136.362  0.00  0.00    +0.000 A 
ATOM     52  C   UNL     1     108.244 131.750 136.610  0.00  0.00    +0.000 A 
ATOM     53  C   UNL     1     108.115 131.058 136.180  0.00  0.00    +0.000 A 
BRANCH  51  54
ATOM     54  O   UNL     1     108.410 129.683 135.932  0.00  0.00    +0.000 OA
ATOM     55  C   UNL     1     109.029 129.152 135.808  0.00  0.00    +0.000 C 
ENDBRANCH  51  54
ENDBRANCH  46  48
ENDBRANCH  44  45
ENDBRANCH  42  44
ENDBRANCH  41  42
ENDBRANCH  40  41
ENDBRANCH  31  36
ENDBRANCH   4  31
TORSDOF 11
ENDMDL
MODEL 2
REMARK VINA RESULT:     -10.4      1.867      5.915
REMARK  Name = 74977470
REMARK  11 active torsions:
REMARK  status: ('A' for Active; 'I' for Inactive)
REMARK    1  A    between atoms: O_1  and  C_19
REMARK    2  A    between atoms: O_1  and  C_24
REMARK    3  A    between atoms: O_10  and  C_31
REMARK    4  A    between atoms: O_10  and  C_40
REMARK    5  A    between atoms: O_17  and  C_52
REMARK    6  A    between atoms: C_21  and  C_29
REMARK    7  A    between atoms: C_23  and  C_30
REMARK    8  A    between atoms: C_28  and  C_31
REMARK    9  A    between atoms: C_39  and  C_41
REMARK   10  A    between atoms: C_40  and  C_42
REMARK   11  A    between atoms: C_45  and  C_49
REMARK                            x       y       z     vdW  Elec       q    Type
REMARK                         _______ _______ _______ _____ _____    ______ ____
ROOT
ATOM      1  O   UNL     1     112.827 129.187 136.757  0.00  0.00    +0.000 OA
ATOM      2  O   UNL     1     110.966 129.733 135.220  0.00  0.00    +0.000 OA
ATOM      3  O   UNL     1     112.443 129.319 134.612  0.00  0.00    +0.000 OA
ATOM      4  C   UNL     1     111.469 129.576 136.549  0.00  0.00    +0.000 C 
ATOM      5  C   UNL     1     111.586 129.551 135.732  0.00  0.00    +0.000 C 
ATOM      6  C   UNL     1     112.089 129.394 137.061  0.00  0.00    +0.000 C 
ATOM      7  C   UNL     1     112.325 129.344 135.428  0.00  0.00    +0.000 C 
ATOM      8  C   UNL     1     112.946 129.162 135.941  0.00  0.00    +0.000 C 
ENDROOT
BRANCH   6  13
ATOM      9  O   UNL     1     111.906 127.992 137.912  0.00  0.00    +0.000 OA
ATOM     10  O   UNL     1     112.038 130.846 137.842  0.00  0.00    +0.000 OA
ATOM     11  O   UNL     1     111.616 129.509 140.359  0.00  0.00    +0.000 OA
ATOM     12  O   UNL     1     111.696 127.284 139.152  0.00  0.00    +0.000 OA
ATOM     13  C   UNL     1     111.972 129.418 137.877  0.00  0.00    +0.000 A 
ATOM     14  C   UNL     1     111.880 128.718 138.303  0.00  0.00    +0.000 A 
ATOM     15  C   UNL     1     111.946 130.145 138.268  0.00  0.00    +0.000 A 
ATOM     16  C   UNL     1     111.763 128.743 139.119  0.00  0.00    +0.000 A 
ATOM     17  C   UNL     1     111.829 130.171 139.084  0.00  0.00    +0.000 A 
ATOM     18  C   UNL     1     111.737 129.469 139.510  0.00  0.00    +0.000 A 
ATOM     19  C   UNL     1     111.669 128.006 139.551  0.00  0.00    +0.000 A 
ATOM     20  C   UNL     1     111.546 128.026 140.401  0.00  0.00    +0.000 A 
ATOM     21  C   UNL     1     111.519 128.782 140.808  0.00  0.00    +0.000 A 
BRANCH  21  23
ATOM     22  O   UNL     1     111.049 128.899 144.072  0.00  0.00    +0.000 OA
ATOM     23  C   UNL     1     111.402 128.811 141.625  0.00  0.00    +0.000 A 
ATOM     24  C   UNL     1     112.050 128.805 142.136  0.00  0.00    +0.000 A 
ATOM     25  C   UNL     1     110.637 128.846 141.930  0.00  0.00    +0.000 A 
ATOM     26  C   UNL     1     111.933 128.835 142.951  0.00  0.00    +0.000 A 
ATOM     27  C   UNL     1     110.519 128.875 142.746  0.00  0.00    +0.000 A 
ATOM     28  C   UNL     1     111.167 128.869 143.256  0.00  0.00    +0.000 A 
ENDBRANCH  21  23
ENDBRANCH   6  13
BRANCH   8  30
ATOM     29  O   UNL     1     114.351 129.400 135.835  0.00  0.00    +0.000 OA
ATOM     30  C   UNL     1     113.685 128.955 135.637  0.00  0.00    +0.000 C 
ENDBRANCH   8  30
BRANCH   4  31
ATOM     31  O   UNL     1     110.730 129.782 136.853  0.00  0.00    +0.000 OA
BRANCH  31  36
ATOM     32  O   UNL     1     110.052 128.639 136.329  0.00  0.00    +0.000 OA
ATOM     33  O   UNL     1     109.354 130.676 136.685  0.00  0.00    +0.000 OA
ATOM     34  O   UNL     1     107.987 129.980 136.077  0.00  0.00    +0.000 OA
ATOM     35  O   UNL     1     107.997 128.390 135.637  0.00  0.00    +0.000 OA
ATOM     36  C   UNL     1     110.046 129.434 136.549  0.00  0.00    +0.000 C 
ATOM     37  C   UNL     1     109.358 129.881 136.465  0.00  0.00    +0.000 C 
ATOM     38  C   UNL     1     108.675 129.533 136.161  0.00  0.00    +0.000 C 
ATOM     39  C   UNL     1     108.679 128.738 135.941  0.00  0.00    +0.000 C 
ATOM     40  C   UNL     1     109.368 128.291 136.025  0.00  0.00    +0.000 C 
BRANCH  40  41
ATOM     41  C   UNL     1     109.373 127.496 135.805  0.00  0.00    +0.000 C 
BRANCH  41  42
ATOM     42  O   UNL     1     109.889 126.969 136.177  0.00  0.00    +0.000 OA
BRANCH  42  44
ATOM     43  O   UNL     1     109.650 126.008 135.146  0.00  0.00    +0.000 OA
ATOM     44  C   UNL     1     110.037 126.231 135.840  0.00  0.00    +0.000 C 
BRANCH  44  45
ATOM     45  C   UNL     1     110.574 125.715 136.197  0.00  0.00    +0.000 C 
ATOM     46  C   UNL     1     111.276 125.518 135.812  0.00  0.00    +0.000 C 
BRANCH  46  48
ATOM     47  O   UNL     1     113.418 123.455 137.241  0.00  0.00    +0.000 OA
ATOM     48  C   UNL     1     111.812 125.002 136.169  0.00  0.00    +0.000 A 
ATOM     49  C   UNL     1     112.554 125.275 136.403  0.00  0.00    +0.000 A 
ATOM     50  C   UNL     1     111.604 124.214 136.292  0.00  0.00    +0.000 A 
ATOM     51  C   UNL     1     113.090 124.760 136.760  0.00  0.00    +0.000 A 
ATOM     52  C   UNL     1     112.140 123.698 136.650  0.00  0.00    +0.000 A 
ATOM     53  C   UNL     1     112.883 123.971 136.883  0.00  0.00    +0.000 A 
BRANCH  51  54
ATOM     54  O   UNL     1     113.832 125.033 136.994  0.00  0.00    +0.000 OA
ATOM     55  C   UNL     1     114.277 125.505 136.485  0.00  0.00    +0.000 C 
ENDBRANCH  51  54
ENDBRANCH  46  48
ENDBRANCH  44  45
ENDBRANCH  42  44
ENDBRANCH  41  42
ENDBRANCH  40  41
ENDBRANCH  31  36
ENDBRANCH   4  31
TORSDOF 11
ENDMDL
MODEL 3
REMARK VINA RESULT:     -10.2      3.083      6.853
REMARK  Name = 74977470
REMARK  11 active torsions:
REMARK  status: ('A' for Active; 'I' for Inactive)
REMARK    1  A    between atoms: O_1  and  C_19
REMARK    2  A    between atoms: O_1  and  C_24
REMARK    3  A    between atoms: O_10  and  C_31
REMARK    4  A    between atoms: O_10  and  C_40
REMARK    5  A    between atoms: O_17  and  C_52
REMARK    6  A    between atoms: C_21  and  C_29
REMARK    7  A    between atoms: C_23  and  C_30
REMARK    8  A    between atoms: C_28  and  C_31
REMARK    9  A    between atoms: C_39  and  C_41
REMARK   10  A    between atoms: C_40  and  C_42
REMARK   11  A    between atoms: C_45  and  C_49
REMARK                            x       y       z     vdW  Elec       q    Type
REMARK                         _______ _______ _______ _____ _____    ______ ____
ROOT
ATOM      1  O   UNL     1     110.342 130.843 141.734  0.00  0.00    +0.000 OA
ATOM      2  O   UNL     1     112.133 130.601 140.043  0.00  0.00    +0.000 OA
ATOM      3  O   UNL     1     110.549 130.515 139.586  0.00  0.00    +0.000 OA
ATOM      4  C   UNL     1     111.730 130.806 141.399  0.00  0.00    +0.000 C 
ATOM      5  C   UNL     1     111.536 130.682 140.607  0.00  0.00    +0.000 C 
ATOM      6  C   UNL     1     111.134 130.886 141.962  0.00  0.00    +0.000 C 
ATOM      7  C   UNL     1     110.745 130.639 140.378  0.00  0.00    +0.000 C 
ATOM      8  C   UNL     1     110.147 130.719 140.942  0.00  0.00    +0.000 C 
ENDROOT
BRANCH   6  13
ATOM      9  O   UNL     1     111.557 132.394 142.484  0.00  0.00    +0.000 OA
ATOM     10  O   UNL     1     111.098 129.625 143.026  0.00  0.00    +0.000 OA
ATOM     11  O   UNL     1     111.915 131.372 145.167  0.00  0.00    +0.000 OA
ATOM     12  O   UNL     1     111.967 133.301 143.528  0.00  0.00    +0.000 OA
ATOM     13  C   UNL     1     111.328 131.010 142.755  0.00  0.00    +0.000 A 
ATOM     14  C   UNL     1     111.539 131.763 143.015  0.00  0.00    +0.000 A 
ATOM     15  C   UNL     1     111.310 130.380 143.287  0.00  0.00    +0.000 A 
ATOM     16  C   UNL     1     111.733 131.887 143.808  0.00  0.00    +0.000 A 
ATOM     17  C   UNL     1     111.504 130.502 144.079  0.00  0.00    +0.000 A 
ATOM     18  C   UNL     1     111.715 131.257 144.340  0.00  0.00    +0.000 A 
ATOM     19  C   UNL     1     111.952 132.676 144.067  0.00  0.00    +0.000 A 
ATOM     20  C   UNL     1     112.155 132.811 144.891  0.00  0.00    +0.000 A 
ATOM     21  C   UNL     1     112.136 132.155 145.445  0.00  0.00    +0.000 A 
BRANCH  21  23
ATOM     22  O   UNL     1     112.911 132.632 148.617  0.00  0.00    +0.000 OA
ATOM     23  C   UNL     1     112.330 132.274 146.239  0.00  0.00    +0.000 A 
ATOM     24  C   UNL     1     111.811 132.684 146.733  0.00  0.00    +0.000 A 
ATOM     25  C   UNL     1     113.042 131.984 146.537  0.00  0.00    +0.000 A 
ATOM     26  C   UNL     1     112.005 132.803 147.525  0.00  0.00    +0.000 A 
ATOM     27  C   UNL     1     113.236 132.103 147.330  0.00  0.00    +0.000 A 
ATOM     28  C   UNL     1     112.717 132.513 147.824  0.00  0.00    +0.000 A 
ENDBRANCH  21  23
ENDBRANCH   6  13
BRANCH   8  30
ATOM     29  O   UNL     1     108.806 131.203 141.032  0.00  0.00    +0.000 OA
ATOM     30  C   UNL     1     109.356 130.676 140.714  0.00  0.00    +0.000 C 
ENDBRANCH   8  30
BRANCH   4  31
ATOM     31  O   UNL     1     112.522 130.849 141.627  0.00  0.00    +0.000 OA
BRANCH  31  36
ATOM     32  O   UNL     1     112.828 129.507 141.245  0.00  0.00    +0.000 OA
ATOM     33  O   UNL     1     114.071 131.301 141.282  0.00  0.00    +0.000 OA
ATOM     34  O   UNL     1     115.152 130.185 140.727  0.00  0.00    +0.000 OA
ATOM     35  O   UNL     1     114.684 128.617 140.518  0.00  0.00    +0.000 OA
ATOM     36  C   UNL     1     113.063 130.291 141.350  0.00  0.00    +0.000 C 
ATOM     37  C   UNL     1     113.837 130.517 141.177  0.00  0.00    +0.000 C 
ATOM     38  C   UNL     1     114.377 129.959 140.900  0.00  0.00    +0.000 C 
ATOM     39  C   UNL     1     114.144 129.174 140.795  0.00  0.00    +0.000 C 
ATOM     40  C   UNL     1     113.370 128.948 140.967  0.00  0.00    +0.000 C 
BRANCH  40  41
ATOM     41  C   UNL     1     113.135 128.164 140.863  0.00  0.00    +0.000 C 
BRANCH  41  42
ATOM     42  O   UNL     1     112.568 127.833 141.364  0.00  0.00    +0.000 OA
BRANCH  42  44
ATOM     43  O   UNL     1     112.734 126.414 141.337  0.00  0.00    +0.000 OA
ATOM     44  C   UNL     1     112.268 127.082 141.205  0.00  0.00    +0.000 C 
BRANCH  44  45
ATOM     45  C   UNL     1     111.499 126.998 140.915  0.00  0.00    +0.000 C 
ATOM     46  C   UNL     1     110.923 126.630 141.376  0.00  0.00    +0.000 C 
BRANCH  46  48
ATOM     47  O   UNL     1     107.852 126.294 140.216  0.00  0.00    +0.000 OA
ATOM     48  C   UNL     1     110.154 126.546 141.086  0.00  0.00    +0.000 A 
ATOM     49  C   UNL     1     109.549 127.025 141.377  0.00  0.00    +0.000 A 
ATOM     50  C   UNL     1     109.993 125.983 140.506  0.00  0.00    +0.000 A 
ATOM     51  C   UNL     1     108.782 126.941 141.087  0.00  0.00    +0.000 A 
ATOM     52  C   UNL     1     109.225 125.899 140.216  0.00  0.00    +0.000 A 
ATOM     53  C   UNL     1     108.620 126.378 140.506  0.00  0.00    +0.000 A 
BRANCH  51  54
ATOM     54  O   UNL     1     108.176 127.420 141.377  0.00  0.00    +0.000 OA
ATOM     55  C   UNL     1     108.169 127.641 142.172  0.00  0.00    +0.000 C 
ENDBRANCH  51  54
ENDBRANCH  46  48
ENDBRANCH  44  45
ENDBRANCH  42  44
ENDBRANCH  41  42
ENDBRANCH  40  41
ENDBRANCH  31  36
ENDBRANCH   4  31
TORSDOF 11
ENDMDL
MODEL 4
REMARK VINA RESULT:     -10.2      1.924      5.772
REMARK  Name = 74977470
REMARK  11 active torsions:
REMARK  status: ('A' for Active; 'I' for Inactive)
REMARK    1  A    between atoms: O_1  and  C_19
REMARK    2  A    between atoms: O_1  and  C_24
REMARK    3  A    between atoms: O_10  and  C_31
REMARK    4  A    between atoms: O_10  and  C_40
REMARK    5  A    between atoms: O_17  and  C_52
REMARK    6  A    between atoms: C_21  and  C_29
REMARK    7  A    between atoms: C_23  and  C_30
REMARK    8  A    between atoms: C_28  and  C_31
REMARK    9  A    between atoms: C_39  and  C_41
REMARK   10  A    between atoms: C_40  and  C_42
REMARK   11  A    between atoms: C_45  and  C_49
REMARK                            x       y       z     vdW  Elec       q    Type
REMARK                         _______ _______ _______ _____ _____    ______ ____
ROOT
ATOM      1  O   UNL     1     111.436 125.931 136.944  0.00  0.00    +0.000 OA
ATOM      2  O   UNL     1     110.508 124.925 139.005  0.00  0.00    +0.000 OA
ATOM      3  O   UNL     1     111.631 124.103 138.119  0.00  0.00    +0.000 OA
ATOM      4  C   UNL     1     110.565 126.007 138.074  0.00  0.00    +0.000 C 
ATOM      5  C   UNL     1     110.817 125.260 138.319  0.00  0.00    +0.000 C 
ATOM      6  C   UNL     1     110.874 126.342 137.387  0.00  0.00    +0.000 C 
ATOM      7  C   UNL     1     111.379 124.849 137.875  0.00  0.00    +0.000 C 
ATOM      8  C   UNL     1     111.688 125.185 137.188  0.00  0.00    +0.000 C 
ENDROOT
BRANCH   6  13
ATOM      9  O   UNL     1     109.430 126.512 136.606  0.00  0.00    +0.000 OA
ATOM     10  O   UNL     1     111.815 127.666 137.679  0.00  0.00    +0.000 OA
ATOM     11  O   UNL     1     109.869 129.365 136.404  0.00  0.00    +0.000 OA
ATOM     12  O   UNL     1     108.431 127.329 135.960  0.00  0.00    +0.000 OA
ATOM     13  C   UNL     1     110.622 127.089 137.142  0.00  0.00    +0.000 A 
ATOM     14  C   UNL     1     109.901 127.174 136.752  0.00  0.00    +0.000 A 
ATOM     15  C   UNL     1     111.093 127.751 137.288  0.00  0.00    +0.000 A 
ATOM     16  C   UNL     1     109.649 127.921 136.507  0.00  0.00    +0.000 A 
ATOM     17  C   UNL     1     110.842 128.498 137.044  0.00  0.00    +0.000 A 
ATOM     18  C   UNL     1     110.120 128.583 136.653  0.00  0.00    +0.000 A 
ATOM     19  C   UNL     1     108.896 127.996 136.102  0.00  0.00    +0.000 A 
ATOM     20  C   UNL     1     108.628 128.772 135.845  0.00  0.00    +0.000 A 
ATOM     21  C   UNL     1     109.118 129.461 135.997  0.00  0.00    +0.000 A 
BRANCH  21  23
ATOM     22  O   UNL     1     108.127 132.453 135.023  0.00  0.00    +0.000 OA
ATOM     23  C   UNL     1     108.870 130.210 135.753  0.00  0.00    +0.000 A 
ATOM     24  C   UNL     1     108.339 130.639 136.216  0.00  0.00    +0.000 A 
ATOM     25  C   UNL     1     109.153 130.528 135.047  0.00  0.00    +0.000 A 
ATOM     26  C   UNL     1     108.091 131.387 135.973  0.00  0.00    +0.000 A 
ATOM     27  C   UNL     1     108.905 131.276 134.803  0.00  0.00    +0.000 A 
ATOM     28  C   UNL     1     108.374 131.705 135.267  0.00  0.00    +0.000 A 
ENDBRANCH  21  23
ENDBRANCH   6  13
BRANCH   8  30
ATOM     29  O   UNL     1     112.153 124.693 135.929  0.00  0.00    +0.000 OA
ATOM     30  C   UNL     1     112.250 124.774 136.745  0.00  0.00    +0.000 C 
ENDBRANCH   8  30
BRANCH   4  31
ATOM     31  O   UNL     1     110.003 126.418 138.517  0.00  0.00    +0.000 OA
BRANCH  31  36
ATOM     32  O   UNL     1     110.788 126.599 139.697  0.00  0.00    +0.000 OA
ATOM     33  O   UNL     1     108.669 126.143 139.447  0.00  0.00    +0.000 OA
ATOM     34  O   UNL     1     108.786 126.186 141.092  0.00  0.00    +0.000 OA
ATOM     35  O   UNL     1     110.239 126.504 141.807  0.00  0.00    +0.000 OA
ATOM     36  C   UNL     1     110.062 126.439 139.340  0.00  0.00    +0.000 C 
ATOM     37  C   UNL     1     109.395 126.302 139.805  0.00  0.00    +0.000 C 
ATOM     38  C   UNL     1     109.454 126.323 140.627  0.00  0.00    +0.000 C 
ATOM     39  C   UNL     1     110.180 126.483 140.985  0.00  0.00    +0.000 C 
ATOM     40  C   UNL     1     110.847 126.620 140.520  0.00  0.00    +0.000 C 
BRANCH  40  41
ATOM     41  C   UNL     1     111.573 126.779 140.877  0.00  0.00    +0.000 C 
BRANCH  41  42
ATOM     42  O   UNL     1     112.091 127.324 140.534  0.00  0.00    +0.000 OA
BRANCH  42  44
ATOM     43  O   UNL     1     113.243 126.886 141.258  0.00  0.00    +0.000 OA
ATOM     44  C   UNL     1     112.813 127.490 140.896  0.00  0.00    +0.000 C 
BRANCH  44  45
ATOM     45  C   UNL     1     113.106 128.262 140.896  0.00  0.00    +0.000 C 
ATOM     46  C   UNL     1     113.681 128.484 140.348  0.00  0.00    +0.000 C 
BRANCH  46  48
ATOM     47  O   UNL     1     114.852 131.570 140.349  0.00  0.00    +0.000 OA
ATOM     48  C   UNL     1     113.974 129.256 140.348  0.00  0.00    +0.000 A 
ATOM     49  C   UNL     1     114.022 129.679 139.642  0.00  0.00    +0.000 A 
ATOM     50  C   UNL     1     114.218 129.604 141.055  0.00  0.00    +0.000 A 
ATOM     51  C   UNL     1     114.314 130.450 139.642  0.00  0.00    +0.000 A 
ATOM     52  C   UNL     1     114.511 130.375 141.055  0.00  0.00    +0.000 A 
ATOM     53  C   UNL     1     114.559 130.798 140.348  0.00  0.00    +0.000 A 
BRANCH  51  54
ATOM     54  O   UNL     1     114.362 130.873 138.936  0.00  0.00    +0.000 OA
ATOM     55  C   UNL     1     113.858 130.690 138.309  0.00  0.00    +0.000 C 
ENDBRANCH  51  54
ENDBRANCH  46  48
ENDBRANCH  44  45
ENDBRANCH  42  44
ENDBRANCH  41  42
ENDBRANCH  40  41
ENDBRANCH  31  36
ENDBRANCH   4  31
TORSDOF 11
ENDMDL
MODEL 5
REMARK VINA RESULT:     -10.0      2.014      4.825
REMARK  Name = 74977470
REMARK  11 active torsions:
REMARK  status: ('A' for Active; 'I' for Inactive)
REMARK    1  A    between atoms: O_1  and  C_19
REMARK    2  A    between atoms: O_1  and  C_24
REMARK    3  A    between atoms: O_10  and  C_31
REMARK    4  A    between atoms: O_10  and  C_40
REMARK    5  A    between atoms: O_17  and  C_52
REMARK    6  A    between atoms: C_21  and  C_29
REMARK    7  A    between atoms: C_23  and  C_30
REMARK    8  A    between atoms: C_28  and  C_31
REMARK    9  A    between atoms: C_39  and  C_41
REMARK   10  A    between atoms: C_40  and  C_42
REMARK   11  A    between atoms: C_45  and  C_49
REMARK                            x       y       z     vdW  Elec       q    Type
REMARK                         _______ _______ _______ _____ _____    ______ ____
ROOT
ATOM      1  O   UNL     1     113.493 125.852 137.352  0.00  0.00    +0.000 OA
ATOM      2  O   UNL     1     111.264 124.784 137.463  0.00  0.00    +0.000 OA
ATOM      3  O   UNL     1     112.359 124.293 136.330  0.00  0.00    +0.000 OA
ATOM      4  C   UNL     1     112.203 125.742 137.956  0.00  0.00    +0.000 C 
ATOM      5  C   UNL     1     112.007 125.140 137.426  0.00  0.00    +0.000 C 
ATOM      6  C   UNL     1     112.946 126.098 137.919  0.00  0.00    +0.000 C 
ATOM      7  C   UNL     1     112.554 124.895 136.860  0.00  0.00    +0.000 C 
ATOM      8  C   UNL     1     113.298 125.251 136.822  0.00  0.00    +0.000 C 
ENDROOT
BRANCH   6  13
ATOM      9  O   UNL     1     112.921 127.672 137.426  0.00  0.00    +0.000 OA
ATOM     10  O   UNL     1     113.364 125.725 139.471  0.00  0.00    +0.000 OA
ATOM     11  O   UNL     1     113.743 128.518 140.069  0.00  0.00    +0.000 OA
ATOM     12  O   UNL     1     113.100 129.081 137.685  0.00  0.00    +0.000 OA
ATOM     13  C   UNL     1     113.143 126.699 138.448  0.00  0.00    +0.000 A 
ATOM     14  C   UNL     1     113.130 127.486 138.202  0.00  0.00    +0.000 A 
ATOM     15  C   UNL     1     113.352 126.513 139.224  0.00  0.00    +0.000 A 
ATOM     16  C   UNL     1     113.327 128.088 138.732  0.00  0.00    +0.000 A 
ATOM     17  C   UNL     1     113.549 127.114 139.754  0.00  0.00    +0.000 A 
ATOM     18  C   UNL     1     113.536 127.902 139.508  0.00  0.00    +0.000 A 
ATOM     19  C   UNL     1     113.310 128.903 138.463  0.00  0.00    +0.000 A 
ATOM     20  C   UNL     1     113.514 129.534 139.010  0.00  0.00    +0.000 A 
ATOM     21  C   UNL     1     113.732 129.341 139.818  0.00  0.00    +0.000 A 
BRANCH  21  23
ATOM     22  O   UNL     1     114.519 131.734 141.948  0.00  0.00    +0.000 OA
ATOM     23  C   UNL     1     113.929 129.939 140.351  0.00  0.00    +0.000 A 
ATOM     24  C   UNL     1     114.683 130.274 140.336  0.00  0.00    +0.000 A 
ATOM     25  C   UNL     1     113.372 130.203 140.899  0.00  0.00    +0.000 A 
ATOM     26  C   UNL     1     114.880 130.872 140.868  0.00  0.00    +0.000 A 
ATOM     27  C   UNL     1     113.568 130.802 141.432  0.00  0.00    +0.000 A 
ATOM     28  C   UNL     1     114.323 131.136 141.416  0.00  0.00    +0.000 A 
ENDBRANCH  21  23
ENDBRANCH   6  13
BRANCH   8  30
ATOM     29  O   UNL     1     114.631 125.253 136.307  0.00  0.00    +0.000 OA
ATOM     30  C   UNL     1     113.845 125.006 136.256  0.00  0.00    +0.000 C 
ENDBRANCH   8  30
BRANCH   4  31
ATOM     31  O   UNL     1     111.656 125.987 138.522  0.00  0.00    +0.000 OA
BRANCH  31  36
ATOM     32  O   UNL     1     110.739 126.541 137.576  0.00  0.00    +0.000 OA
ATOM     33  O   UNL     1     110.397 125.602 139.517  0.00  0.00    +0.000 OA
ATOM     34  O   UNL     1     108.851 125.964 139.069  0.00  0.00    +0.000 OA
ATOM     35  O   UNL     1     108.564 126.710 137.625  0.00  0.00    +0.000 OA
ATOM     36  C   UNL     1     110.882 126.168 138.298  0.00  0.00    +0.000 C 
ATOM     37  C   UNL     1     110.253 125.975 138.795  0.00  0.00    +0.000 C 
ATOM     38  C   UNL     1     109.481 126.156 138.571  0.00  0.00    +0.000 C 
ATOM     39  C   UNL     1     109.336 126.529 137.849  0.00  0.00    +0.000 C 
ATOM     40  C   UNL     1     109.966 126.721 137.352  0.00  0.00    +0.000 C 
BRANCH  40  41
ATOM     41  C   UNL     1     109.823 127.094 136.630  0.00  0.00    +0.000 C 
BRANCH  41  42
ATOM     42  O   UNL     1     110.156 127.834 136.475  0.00  0.00    +0.000 OA
BRANCH  42  44
ATOM     43  O   UNL     1     110.295 127.788 135.053  0.00  0.00    +0.000 OA
ATOM     44  C   UNL     1     110.054 128.185 135.736  0.00  0.00    +0.000 C 
BRANCH  44  45
ATOM     45  C   UNL     1     109.710 128.933 135.679  0.00  0.00    +0.000 C 
ATOM     46  C   UNL     1     110.159 129.573 135.416  0.00  0.00    +0.000 C 
BRANCH  46  48
ATOM     47  O   UNL     1     108.785 132.565 135.188  0.00  0.00    +0.000 OA
ATOM     48  C   UNL     1     109.815 130.322 135.359  0.00  0.00    +0.000 A 
ATOM     49  C   UNL     1     109.866 130.848 135.992  0.00  0.00    +0.000 A 
ATOM     50  C   UNL     1     109.421 130.543 134.669  0.00  0.00    +0.000 A 
ATOM     51  C   UNL     1     109.523 131.596 135.935  0.00  0.00    +0.000 A 
ATOM     52  C   UNL     1     109.078 131.291 134.612  0.00  0.00    +0.000 A 
ATOM     53  C   UNL     1     109.129 131.817 135.245  0.00  0.00    +0.000 A 
BRANCH  51  54
ATOM     54  O   UNL     1     109.574 132.122 136.568  0.00  0.00    +0.000 OA
ATOM     55  C   UNL     1     110.302 132.268 136.926  0.00  0.00    +0.000 C 
ENDBRANCH  51  54
ENDBRANCH  46  48
ENDBRANCH  44  45
ENDBRANCH  42  44
ENDBRANCH  41  42
ENDBRANCH  40  41
ENDBRANCH  31  36
ENDBRANCH   4  31
TORSDOF 11
ENDMDL
MODEL 6
REMARK VINA RESULT:     -10.0      1.724      6.112
REMARK  Name = 74977470
REMARK  11 active torsions:
REMARK  status: ('A' for Active; 'I' for Inactive)
REMARK    1  A    between atoms: O_1  and  C_19
REMARK    2  A    between atoms: O_1  and  C_24
REMARK    3  A    between atoms: O_10  and  C_31
REMARK    4  A    between atoms: O_10  and  C_40
REMARK    5  A    between atoms: O_17  and  C_52
REMARK    6  A    between atoms: C_21  and  C_29
REMARK    7  A    between atoms: C_23  and  C_30
REMARK    8  A    between atoms: C_28  and  C_31
REMARK    9  A    between atoms: C_39  and  C_41
REMARK   10  A    between atoms: C_40  and  C_42
REMARK   11  A    between atoms: C_45  and  C_49
REMARK                            x       y       z     vdW  Elec       q    Type
REMARK                         _______ _______ _______ _____ _____    ______ ____
ROOT
ATOM      1  O   UNL     1     110.488 132.495 137.508  0.00  0.00    +0.000 OA
ATOM      2  O   UNL     1     109.083 131.410 135.785  0.00  0.00    +0.000 OA
ATOM      3  O   UNL     1     109.804 132.860 135.468  0.00  0.00    +0.000 OA
ATOM      4  C   UNL     1     109.660 131.409 137.092  0.00  0.00    +0.000 C 
ATOM      5  C   UNL     1     109.551 131.772 136.359  0.00  0.00    +0.000 C 
ATOM      6  C   UNL     1     110.128 131.770 137.667  0.00  0.00    +0.000 C 
ATOM      7  C   UNL     1     109.912 132.497 136.201  0.00  0.00    +0.000 C 
ATOM      8  C   UNL     1     110.381 132.859 136.776  0.00  0.00    +0.000 C 
ENDROOT
BRANCH   6  13
ATOM      9  O   UNL     1     111.548 131.002 138.006  0.00  0.00    +0.000 OA
ATOM     10  O   UNL     1     108.923 131.814 138.793  0.00  0.00    +0.000 OA
ATOM     11  O   UNL     1     110.552 130.309 140.633  0.00  0.00    +0.000 OA
ATOM     12  O   UNL     1     112.395 130.247 138.898  0.00  0.00    +0.000 OA
ATOM     13  C   UNL     1     110.236 131.407 138.400  0.00  0.00    +0.000 A 
ATOM     14  C   UNL     1     110.946 131.023 138.570  0.00  0.00    +0.000 A 
ATOM     15  C   UNL     1     109.634 131.429 138.963  0.00  0.00    +0.000 A 
ATOM     16  C   UNL     1     111.054 130.661 139.303  0.00  0.00    +0.000 A 
ATOM     17  C   UNL     1     109.741 131.067 139.697  0.00  0.00    +0.000 A 
ATOM     18  C   UNL     1     110.452 130.682 139.866  0.00  0.00    +0.000 A 
ATOM     19  C   UNL     1     111.798 130.264 139.468  0.00  0.00    +0.000 A 
ATOM     20  C   UNL     1     111.916 129.884 140.230  0.00  0.00    +0.000 A 
ATOM     21  C   UNL     1     111.289 129.907 140.816  0.00  0.00    +0.000 A 
BRANCH  21  23
ATOM     22  O   UNL     1     111.707 128.463 143.754  0.00  0.00    +0.000 OA
ATOM     23  C   UNL     1     111.393 129.545 141.551  0.00  0.00    +0.000 A 
ATOM     24  C   UNL     1     111.173 128.757 141.659  0.00  0.00    +0.000 A 
ATOM     25  C   UNL     1     111.719 129.972 142.178  0.00  0.00    +0.000 A 
ATOM     26  C   UNL     1     111.277 128.397 142.393  0.00  0.00    +0.000 A 
ATOM     27  C   UNL     1     111.823 129.611 142.912  0.00  0.00    +0.000 A 
ATOM     28  C   UNL     1     111.602 128.824 143.019  0.00  0.00    +0.000 A 
ENDBRANCH  21  23
ENDBRANCH   6  13
BRANCH   8  30
ATOM     29  O   UNL     1     110.657 134.210 137.148  0.00  0.00    +0.000 OA
ATOM     30  C   UNL     1     110.742 133.584 136.618  0.00  0.00    +0.000 C 
ENDBRANCH   8  30
BRANCH   4  31
ATOM     31  O   UNL     1     109.299 130.684 137.251  0.00  0.00    +0.000 OA
BRANCH  31  36
ATOM     32  O   UNL     1     110.085 129.845 136.401  0.00  0.00    +0.000 OA
ATOM     33  O   UNL     1     107.932 129.903 136.757  0.00  0.00    +0.000 OA
ATOM     34  O   UNL     1     108.034 128.674 135.661  0.00  0.00    +0.000 OA
ATOM     35  O   UNL     1     109.503 128.226 135.058  0.00  0.00    +0.000 OA
ATOM     36  C   UNL     1     109.350 130.069 136.702  0.00  0.00    +0.000 C 
ATOM     37  C   UNL     1     108.666 129.679 136.455  0.00  0.00    +0.000 C 
ATOM     38  C   UNL     1     108.717 129.065 135.908  0.00  0.00    +0.000 C 
ATOM     39  C   UNL     1     109.452 128.840 135.606  0.00  0.00    +0.000 C 
ATOM     40  C   UNL     1     110.135 129.230 135.853  0.00  0.00    +0.000 C 
BRANCH  40  41
ATOM     41  C   UNL     1     110.870 129.007 135.552  0.00  0.00    +0.000 C 
BRANCH  41  42
ATOM     42  O   UNL     1     111.479 128.793 136.067  0.00  0.00    +0.000 OA
BRANCH  42  44
ATOM     43  O   UNL     1     112.584 128.918 135.169  0.00  0.00    +0.000 OA
ATOM     44  C   UNL     1     112.191 128.505 135.767  0.00  0.00    +0.000 C 
BRANCH  44  45
ATOM     45  C   UNL     1     112.511 127.805 136.064  0.00  0.00    +0.000 C 
ATOM     46  C   UNL     1     113.101 127.833 136.640  0.00  0.00    +0.000 C 
BRANCH  46  48
ATOM     47  O   UNL     1     114.380 125.032 137.827  0.00  0.00    +0.000 OA
ATOM     48  C   UNL     1     113.421 127.132 136.937  0.00  0.00    +0.000 A 
ATOM     49  C   UNL     1     113.386 126.973 137.746  0.00  0.00    +0.000 A 
ATOM     50  C   UNL     1     113.774 126.591 136.425  0.00  0.00    +0.000 A 
ATOM     51  C   UNL     1     113.706 126.274 138.042  0.00  0.00    +0.000 A 
ATOM     52  C   UNL     1     114.094 125.891 136.722  0.00  0.00    +0.000 A 
ATOM     53  C   UNL     1     114.060 125.733 137.531  0.00  0.00    +0.000 A 
BRANCH  51  54
ATOM     54  O   UNL     1     113.672 126.115 138.851  0.00  0.00    +0.000 OA
ATOM     55  C   UNL     1     113.085 126.462 139.316  0.00  0.00    +0.000 C 
ENDBRANCH  51  54
ENDBRANCH  46  48
ENDBRANCH  44  45
ENDBRANCH  42  44
ENDBRANCH  41  42
ENDBRANCH  40  41
ENDBRANCH  31  36
ENDBRANCH   4  31
TORSDOF 11
ENDMDL
MODEL 7
REMARK VINA RESULT:     -10.0      5.573      9.591
REMARK  Name = 74977470
REMARK  11 active torsions:
REMARK  status: ('A' for Active; 'I' for Inactive)
REMARK    1  A    between atoms: O_1  and  C_19
REMARK    2  A    between atoms: O_1  and  C_24
REMARK    3  A    between atoms: O_10  and  C_31
REMARK    4  A    between atoms: O_10  and  C_40
REMARK    5  A    between atoms: O_17  and  C_52
REMARK    6  A    between atoms: C_21  and  C_29
REMARK    7  A    between atoms: C_23  and  C_30
REMARK    8  A    between atoms: C_28  and  C_31
REMARK    9  A    between atoms: C_39  and  C_41
REMARK   10  A    between atoms: C_40  and  C_42
REMARK   11  A    between atoms: C_45  and  C_49
REMARK                            x       y       z     vdW  Elec       q    Type
REMARK                         _______ _______ _______ _____ _____    ______ ____
ROOT
ATOM      1  O   UNL     1     105.252 127.134 142.903  0.00  0.00    +0.000 OA
ATOM      2  O   UNL     1     107.606 127.441 142.206  0.00  0.00    +0.000 OA
ATOM      3  O   UNL     1     107.157 126.075 143.015  0.00  0.00    +0.000 OA
ATOM      4  C   UNL     1     106.261 127.920 142.267  0.00  0.00    +0.000 C 
ATOM      5  C   UNL     1     106.822 127.339 142.438  0.00  0.00    +0.000 C 
ATOM      6  C   UNL     1     105.477 127.818 142.499  0.00  0.00    +0.000 C 
ATOM      7  C   UNL     1     106.597 126.656 142.843  0.00  0.00    +0.000 C 
ATOM      8  C   UNL     1     105.812 126.554 143.076  0.00  0.00    +0.000 C 
ENDROOT
BRANCH   6  13
ATOM      9  O   UNL     1     104.999 128.877 143.670  0.00  0.00    +0.000 OA
ATOM     10  O   UNL     1     104.833 127.918 140.983  0.00  0.00    +0.000 OA
ATOM     11  O   UNL     1     103.210 130.157 141.791  0.00  0.00    +0.000 OA
ATOM     12  O   UNL     1     104.203 129.996 144.114  0.00  0.00    +0.000 OA
ATOM     13  C   UNL     1     104.916 128.398 142.327  0.00  0.00    +0.000 A 
ATOM     14  C   UNL     1     104.677 128.927 142.912  0.00  0.00    +0.000 A 
ATOM     15  C   UNL     1     104.594 128.448 141.569  0.00  0.00    +0.000 A 
ATOM     16  C   UNL     1     104.116 129.508 142.741  0.00  0.00    +0.000 A 
ATOM     17  C   UNL     1     104.033 129.028 141.396  0.00  0.00    +0.000 A 
ATOM     18  C   UNL     1     103.794 129.558 141.983  0.00  0.00    +0.000 A 
ATOM     19  C   UNL     1     103.876 130.053 143.359  0.00  0.00    +0.000 A 
ATOM     20  C   UNL     1     103.292 130.660 143.186  0.00  0.00    +0.000 A 
ATOM     21  C   UNL     1     102.957 130.712 142.397  0.00  0.00    +0.000 A 
BRANCH  21  23
ATOM     22  O   UNL     1     100.712 133.026 141.694  0.00  0.00    +0.000 OA
ATOM     23  C   UNL     1     102.395 131.292 142.221  0.00  0.00    +0.000 A 
ATOM     24  C   UNL     1     102.638 132.048 142.000  0.00  0.00    +0.000 A 
ATOM     25  C   UNL     1     101.591 131.113 142.266  0.00  0.00    +0.000 A 
ATOM     26  C   UNL     1     102.077 132.626 141.824  0.00  0.00    +0.000 A 
ATOM     27  C   UNL     1     101.030 131.691 142.090  0.00  0.00    +0.000 A 
ATOM     28  C   UNL     1     101.273 132.448 141.869  0.00  0.00    +0.000 A 
ENDBRANCH  21  23
ENDBRANCH   6  13
BRANCH   8  30
ATOM     29  O   UNL     1     105.211 125.930 144.212  0.00  0.00    +0.000 OA
ATOM     30  C   UNL     1     105.587 125.871 143.480  0.00  0.00    +0.000 C 
ENDBRANCH   8  30
BRANCH   4  31
ATOM     31  O   UNL     1     106.486 128.603 141.862  0.00  0.00    +0.000 OA
BRANCH  31  36
ATOM     32  O   UNL     1     107.335 129.093 142.902  0.00  0.00    +0.000 OA
ATOM     33  O   UNL     1     107.468 129.298 140.733  0.00  0.00    +0.000 OA
ATOM     34  O   UNL     1     108.808 130.135 141.208  0.00  0.00    +0.000 OA
ATOM     35  O   UNL     1     109.166 130.278 142.813  0.00  0.00    +0.000 OA
ATOM     36  C   UNL     1     107.156 129.022 142.100  0.00  0.00    +0.000 C 
ATOM     37  C   UNL     1     107.648 129.369 141.535  0.00  0.00    +0.000 C 
ATOM     38  C   UNL     1     108.317 129.788 141.773  0.00  0.00    +0.000 C 
ATOM     39  C   UNL     1     108.496 129.859 142.575  0.00  0.00    +0.000 C 
ATOM     40  C   UNL     1     108.005 129.512 143.140  0.00  0.00    +0.000 C 
BRANCH  40  41
ATOM     41  C   UNL     1     108.183 129.583 143.942  0.00  0.00    +0.000 C 
BRANCH  41  42
ATOM     42  O   UNL     1     107.579 129.550 144.503  0.00  0.00    +0.000 OA
BRANCH  42  44
ATOM     43  O   UNL     1     108.149 130.066 145.707  0.00  0.00    +0.000 OA
ATOM     44  C   UNL     1     107.763 129.460 145.302  0.00  0.00    +0.000 C 
BRANCH  44  45
ATOM     45  C   UNL     1     107.560 128.764 145.696  0.00  0.00    +0.000 C 
ATOM     46  C   UNL     1     106.940 128.764 146.241  0.00  0.00    +0.000 C 
BRANCH  46  48
ATOM     47  O   UNL     1     106.129 125.980 147.816  0.00  0.00    +0.000 OA
ATOM     48  C   UNL     1     106.737 128.067 146.635  0.00  0.00    +0.000 A 
ATOM     49  C   UNL     1     106.009 128.008 147.019  0.00  0.00    +0.000 A 
ATOM     50  C   UNL     1     107.262 127.432 146.644  0.00  0.00    +0.000 A 
ATOM     51  C   UNL     1     105.807 127.312 147.413  0.00  0.00    +0.000 A 
ATOM     52  C   UNL     1     107.059 126.736 147.038  0.00  0.00    +0.000 A 
ATOM     53  C   UNL     1     106.331 126.676 147.422  0.00  0.00    +0.000 A 
BRANCH  51  54
ATOM     54  O   UNL     1     105.079 127.253 147.797  0.00  0.00    +0.000 OA
ATOM     55  C   UNL     1     104.831 127.852 148.305  0.00  0.00    +0.000 C 
ENDBRANCH  51  54
ENDBRANCH  46  48
ENDBRANCH  44  45
ENDBRANCH  42  44
ENDBRANCH  41  42
ENDBRANCH  40  41
ENDBRANCH  31  36
ENDBRANCH   4  31
TORSDOF 11
ENDMDL
MODEL 8
REMARK VINA RESULT:      -9.9      4.847      8.638
REMARK  Name = 74977470
REMARK  11 active torsions:
REMARK  status: ('A' for Active; 'I' for Inactive)
REMARK    1  A    between atoms: O_1  and  C_19
REMARK    2  A    between atoms: O_1  and  C_24
REMARK    3  A    between atoms: O_10  and  C_31
REMARK    4  A    between atoms: O_10  and  C_40
REMARK    5  A    between atoms: O_17  and  C_52
REMARK    6  A    between atoms: C_21  and  C_29
REMARK    7  A    between atoms: C_23  and  C_30
REMARK    8  A    between atoms: C_28  and  C_31
REMARK    9  A    between atoms: C_39  and  C_41
REMARK   10  A    between atoms: C_40  and  C_42
REMARK   11  A    between atoms: C_45  and  C_49
REMARK                            x       y       z     vdW  Elec       q    Type
REMARK                         _______ _______ _______ _____ _____    ______ ____
ROOT
ATOM      1  O   UNL     1     105.063 127.906 143.405  0.00  0.00    +0.000 OA
ATOM      2  O   UNL     1     106.470 127.759 141.374  0.00  0.00    +0.000 OA
ATOM      3  O   UNL     1     105.137 128.731 141.386  0.00  0.00    +0.000 OA
ATOM      4  C   UNL     1     106.199 127.371 142.723  0.00  0.00    +0.000 C 
ATOM      5  C   UNL     1     106.002 127.808 142.051  0.00  0.00    +0.000 C 
ATOM      6  C   UNL     1     105.730 127.420 143.399  0.00  0.00    +0.000 C 
ATOM      7  C   UNL     1     105.335 128.294 142.057  0.00  0.00    +0.000 C 
ATOM      8  C   UNL     1     104.865 128.343 142.734  0.00  0.00    +0.000 C 
ENDROOT
BRANCH   6  13
ATOM      9  O   UNL     1     106.451 128.161 144.685  0.00  0.00    +0.000 OA
ATOM     10  O   UNL     1     105.403 125.803 143.455  0.00  0.00    +0.000 OA
ATOM     11  O   UNL     1     106.521 125.641 146.106  0.00  0.00    +0.000 OA
ATOM     12  O   UNL     1     107.019 128.122 146.011  0.00  0.00    +0.000 OA
ATOM     13  C   UNL     1     105.927 126.983 144.071  0.00  0.00    +0.000 A 
ATOM     14  C   UNL     1     106.287 127.353 144.713  0.00  0.00    +0.000 A 
ATOM     15  C   UNL     1     105.764 126.174 144.099  0.00  0.00    +0.000 A 
ATOM     16  C   UNL     1     106.484 126.916 145.385  0.00  0.00    +0.000 A 
ATOM     17  C   UNL     1     105.960 125.736 144.770  0.00  0.00    +0.000 A 
ATOM     18  C   UNL     1     106.321 126.108 145.413  0.00  0.00    +0.000 A 
ATOM     19  C   UNL     1     106.859 127.313 146.048  0.00  0.00    +0.000 A 
ATOM     20  C   UNL     1     107.067 126.863 146.750  0.00  0.00    +0.000 A 
ATOM     21  C   UNL     1     106.896 126.021 146.779  0.00  0.00    +0.000 A 
BRANCH  21  23
ATOM     22  O   UNL     1     107.676 124.259 149.458  0.00  0.00    +0.000 OA
ATOM     23  C   UNL     1     107.092 125.581 147.449  0.00  0.00    +0.000 A 
ATOM     24  C   UNL     1     107.864 125.310 147.555  0.00  0.00    +0.000 A 
ATOM     25  C   UNL     1     106.514 125.411 148.014  0.00  0.00    +0.000 A 
ATOM     26  C   UNL     1     108.059 124.870 148.224  0.00  0.00    +0.000 A 
ATOM     27  C   UNL     1     106.709 124.970 148.683  0.00  0.00    +0.000 A 
ATOM     28  C   UNL     1     107.481 124.700 148.788  0.00  0.00    +0.000 A 
ENDBRANCH  21  23
ENDBRANCH   6  13
BRANCH   8  30
ATOM     29  O   UNL     1     104.119 129.412 143.319  0.00  0.00    +0.000 OA
ATOM     30  C   UNL     1     104.199 128.829 142.740  0.00  0.00    +0.000 C 
ENDBRANCH   8  30
BRANCH   4  31
ATOM     31  O   UNL     1     106.865 126.885 142.717  0.00  0.00    +0.000 OA
BRANCH  31  36
ATOM     32  O   UNL     1     107.825 127.940 142.624  0.00  0.00    +0.000 OA
ATOM     33  O   UNL     1     107.822 125.932 141.769  0.00  0.00    +0.000 OA
ATOM     34  O   UNL     1     109.259 126.510 141.202  0.00  0.00    +0.000 OA
ATOM     35  O   UNL     1     109.741 128.041 141.583  0.00  0.00    +0.000 OA
ATOM     36  C   UNL     1     107.585 127.174 142.433  0.00  0.00    +0.000 C 
ATOM     37  C   UNL     1     108.063 126.698 141.959  0.00  0.00    +0.000 C 
ATOM     38  C   UNL     1     108.781 126.987 141.676  0.00  0.00    +0.000 C 
ATOM     39  C   UNL     1     109.022 127.752 141.866  0.00  0.00    +0.000 C 
ATOM     40  C   UNL     1     108.544 128.229 142.340  0.00  0.00    +0.000 C 
BRANCH  40  41
ATOM     41  C   UNL     1     108.784 128.995 142.531  0.00  0.00    +0.000 C 
BRANCH  41  42
ATOM     42  O   UNL     1     108.905 129.204 143.320  0.00  0.00    +0.000 OA
BRANCH  42  44
ATOM     43  O   UNL     1     108.375 130.530 143.373  0.00  0.00    +0.000 OA
ATOM     44  C   UNL     1     108.986 129.998 143.528  0.00  0.00    +0.000 C 
BRANCH  44  45
ATOM     45  C   UNL     1     109.679 130.261 143.891  0.00  0.00    +0.000 C 
ATOM     46  C   UNL     1     109.641 130.656 144.614  0.00  0.00    +0.000 C 
BRANCH  46  48
ATOM     47  O   UNL     1     112.413 131.704 146.066  0.00  0.00    +0.000 OA
ATOM     48  C   UNL     1     110.335 130.919 144.977  0.00  0.00    +0.000 A 
ATOM     49  C   UNL     1     110.373 131.680 145.294  0.00  0.00    +0.000 A 
ATOM     50  C   UNL     1     110.990 130.419 145.023  0.00  0.00    +0.000 A 
ATOM     51  C   UNL     1     111.065 131.941 145.657  0.00  0.00    +0.000 A 
ATOM     52  C   UNL     1     111.682 130.682 145.387  0.00  0.00    +0.000 A 
ATOM     53  C   UNL     1     111.720 131.443 145.703  0.00  0.00    +0.000 A 
BRANCH  51  54
ATOM     54  O   UNL     1     111.103 132.702 145.973  0.00  0.00    +0.000 OA
ATOM     55  C   UNL     1     110.427 133.174 145.995  0.00  0.00    +0.000 C 
ENDBRANCH  51  54
ENDBRANCH  46  48
ENDBRANCH  44  45
ENDBRANCH  42  44
ENDBRANCH  41  42
ENDBRANCH  40  41
ENDBRANCH  31  36
ENDBRANCH   4  31
TORSDOF 11
ENDMDL
MODEL 9
REMARK VINA RESULT:      -9.9      7.809     10.929
REMARK  Name = 74977470
REMARK  11 active torsions:
REMARK  status: ('A' for Active; 'I' for Inactive)
REMARK    1  A    between atoms: O_1  and  C_19
REMARK    2  A    between atoms: O_1  and  C_24
REMARK    3  A    between atoms: O_10  and  C_31
REMARK    4  A    between atoms: O_10  and  C_40
REMARK    5  A    between atoms: O_17  and  C_52
REMARK    6  A    between atoms: C_21  and  C_29
REMARK    7  A    between atoms: C_23  and  C_30
REMARK    8  A    between atoms: C_28  and  C_31
REMARK    9  A    between atoms: C_39  and  C_41
REMARK   10  A    between atoms: C_40  and  C_42
REMARK   11  A    between atoms: C_45  and  C_49
REMARK                            x       y       z     vdW  Elec       q    Type
REMARK                         _______ _______ _______ _____ _____    ______ ____
ROOT
ATOM      1  O   UNL     1     106.886 125.781 146.673  0.00  0.00    +0.000 OA
ATOM      2  O   UNL     1     105.341 123.968 147.345  0.00  0.00    +0.000 OA
ATOM      3  O   UNL     1     106.726 124.231 148.202  0.00  0.00    +0.000 OA
ATOM      4  C   UNL     1     105.679 125.045 146.468  0.00  0.00    +0.000 C 
ATOM      5  C   UNL     1     105.856 124.572 147.121  0.00  0.00    +0.000 C 
ATOM      6  C   UNL     1     106.193 125.649 146.244  0.00  0.00    +0.000 C 
ATOM      7  C   UNL     1     106.548 124.704 147.549  0.00  0.00    +0.000 C 
ATOM      8  C   UNL     1     107.064 125.308 147.325  0.00  0.00    +0.000 C 
ENDROOT
BRANCH   6  13
ATOM      9  O   UNL     1     105.616 127.179 146.466  0.00  0.00    +0.000 OA
ATOM     10  O   UNL     1     106.417 125.065 144.718  0.00  0.00    +0.000 OA
ATOM     11  O   UNL     1     105.483 127.550 143.599  0.00  0.00    +0.000 OA
ATOM     12  O   UNL     1     105.142 128.439 145.945  0.00  0.00    +0.000 OA
ATOM     13  C   UNL     1     106.016 126.122 145.592  0.00  0.00    +0.000 A 
ATOM     14  C   UNL     1     105.728 126.887 145.702  0.00  0.00    +0.000 A 
ATOM     15  C   UNL     1     106.128 125.830 144.829  0.00  0.00    +0.000 A 
ATOM     16  C   UNL     1     105.551 127.360 145.050  0.00  0.00    +0.000 A 
ATOM     17  C   UNL     1     105.952 126.302 144.176  0.00  0.00    +0.000 A 
ATOM     18  C   UNL     1     105.663 127.068 144.286  0.00  0.00    +0.000 A 
ATOM     19  C   UNL     1     105.251 128.155 145.178  0.00  0.00    +0.000 A 
ATOM     20  C   UNL     1     105.065 128.652 144.502  0.00  0.00    +0.000 A 
ATOM     21  C   UNL     1     105.182 128.348 143.707  0.00  0.00    +0.000 A 
BRANCH  21  23
ATOM     22  O   UNL     1     104.478 130.226 141.087  0.00  0.00    +0.000 OA
ATOM     23  C   UNL     1     105.006 128.818 143.052  0.00  0.00    +0.000 A 
ATOM     24  C   UNL     1     105.567 129.350 142.763  0.00  0.00    +0.000 A 
ATOM     25  C   UNL     1     104.269 128.755 142.686  0.00  0.00    +0.000 A 
ATOM     26  C   UNL     1     105.391 129.819 142.108  0.00  0.00    +0.000 A 
ATOM     27  C   UNL     1     104.093 129.225 142.031  0.00  0.00    +0.000 A 
ATOM     28  C   UNL     1     104.654 129.756 141.742  0.00  0.00    +0.000 A 
ENDBRANCH  21  23
ENDBRANCH   6  13
BRANCH   8  30
ATOM     29  O   UNL     1     108.454 125.636 147.360  0.00  0.00    +0.000 OA
ATOM     30  C   UNL     1     107.756 125.440 147.754  0.00  0.00    +0.000 C 
ENDBRANCH   8  30
BRANCH   4  31
ATOM     31  O   UNL     1     104.986 124.914 146.040  0.00  0.00    +0.000 OA
BRANCH  31  36
ATOM     32  O   UNL     1     104.066 125.307 147.060  0.00  0.00    +0.000 OA
ATOM     33  O   UNL     1     103.961 123.705 145.581  0.00  0.00    +0.000 OA
ATOM     34  O   UNL     1     102.529 123.494 146.372  0.00  0.00    +0.000 OA
ATOM     35  O   UNL     1     102.121 124.491 147.622  0.00  0.00    +0.000 OA
ATOM     36  C   UNL     1     104.269 124.808 146.435  0.00  0.00    +0.000 C 
ATOM     37  C   UNL     1     103.757 124.203 146.206  0.00  0.00    +0.000 C 
ATOM     38  C   UNL     1     103.041 124.098 146.601  0.00  0.00    +0.000 C 
ATOM     39  C   UNL     1     102.837 124.596 147.227  0.00  0.00    +0.000 C 
ATOM     40  C   UNL     1     103.349 125.201 147.456  0.00  0.00    +0.000 C 
BRANCH  40  41
ATOM     41  C   UNL     1     103.146 125.699 148.081  0.00  0.00    +0.000 C 
BRANCH  41  42
ATOM     42  O   UNL     1     103.214 126.518 147.994  0.00  0.00    +0.000 OA
BRANCH  42  44
ATOM     43  O   UNL     1     103.302 126.822 149.387  0.00  0.00    +0.000 OA
ATOM     44  C   UNL     1     103.041 127.015 148.629  0.00  0.00    +0.000 C 
BRANCH  44  45
ATOM     45  C   UNL     1     102.608 127.707 148.505  0.00  0.00    +0.000 C 
ATOM     46  C   UNL     1     102.955 128.441 148.649  0.00  0.00    +0.000 C 
BRANCH  46  48
ATOM     47  O   UNL     1     101.222 131.206 148.154  0.00  0.00    +0.000 OA
ATOM     48  C   UNL     1     102.521 129.133 148.525  0.00  0.00    +0.000 A 
ATOM     49  C   UNL     1     102.839 129.743 148.070  0.00  0.00    +0.000 A 
ATOM     50  C   UNL     1     101.770 129.213 148.857  0.00  0.00    +0.000 A 
ATOM     51  C   UNL     1     102.406 130.434 147.946  0.00  0.00    +0.000 A 
ATOM     52  C   UNL     1     101.338 129.905 148.733  0.00  0.00    +0.000 A 
ATOM     53  C   UNL     1     101.656 130.515 148.278  0.00  0.00    +0.000 A 
BRANCH  51  54
ATOM     54  O   UNL     1     102.724 131.044 147.491  0.00  0.00    +0.000 OA
ATOM     55  C   UNL     1     103.523 131.238 147.561  0.00  0.00    +0.000 C 
ENDBRANCH  51  54
ENDBRANCH  46  48
ENDBRANCH  44  45
ENDBRANCH  42  44
ENDBRANCH  41  42
ENDBRANCH  40  41
ENDBRANCH  31  36
ENDBRANCH   4  31
TORSDOF 11
ENDMDL
MODEL 10
REMARK VINA RESULT:      -9.9      2.955      5.398
REMARK  Name = 74977470
REMARK  11 active torsions:
REMARK  status: ('A' for Active; 'I' for Inactive)
REMARK    1  A    between atoms: O_1  and  C_19
REMARK    2  A    between atoms: O_1  and  C_24
REMARK    3  A    between atoms: O_10  and  C_31
REMARK    4  A    between atoms: O_10  and  C_40
REMARK    5  A    between atoms: O_17  and  C_52
REMARK    6  A    between atoms: C_21  and  C_29
REMARK    7  A    between atoms: C_23  and  C_30
REMARK    8  A    between atoms: C_28  and  C_31
REMARK    9  A    between atoms: C_39  and  C_41
REMARK   10  A    between atoms: C_40  and  C_42
REMARK   11  A    between atoms: C_45  and  C_49
REMARK                            x       y       z     vdW  Elec       q    Type
REMARK                         _______ _______ _______ _____ _____    ______ ____
ROOT
ATOM      1  O   UNL     1     110.330 128.138 142.465  0.00  0.00    +0.000 OA
ATOM      2  O   UNL     1     110.391 130.191 141.085  0.00  0.00    +0.000 OA
ATOM      3  O   UNL     1     111.538 129.942 142.245  0.00  0.00    +0.000 OA
ATOM      4  C   UNL     1     109.777 128.946 141.426  0.00  0.00    +0.000 C 
ATOM      5  C   UNL     1     110.371 129.507 141.545  0.00  0.00    +0.000 C 
ATOM      6  C   UNL     1     109.756 128.262 141.885  0.00  0.00    +0.000 C 
ATOM      7  C   UNL     1     110.944 129.382 142.124  0.00  0.00    +0.000 C 
ATOM      8  C   UNL     1     110.924 128.697 142.585  0.00  0.00    +0.000 C 
ENDROOT
BRANCH   6  13
ATOM      9  O   UNL     1     110.090 126.864 141.076  0.00  0.00    +0.000 OA
ATOM     10  O   UNL     1     108.234 128.541 142.458  0.00  0.00    +0.000 OA
ATOM     11  O   UNL     1     107.347 126.007 141.412  0.00  0.00    +0.000 OA
ATOM     12  O   UNL     1     109.686 125.587 140.537  0.00  0.00    +0.000 OA
ATOM     13  C   UNL     1     109.163 127.702 141.766  0.00  0.00    +0.000 A 
ATOM     14  C   UNL     1     109.329 127.003 141.362  0.00  0.00    +0.000 A 
ATOM     15  C   UNL     1     108.401 127.841 142.052  0.00  0.00    +0.000 A 
ATOM     16  C   UNL     1     108.736 126.442 141.243  0.00  0.00    +0.000 A 
ATOM     17  C   UNL     1     107.807 127.281 141.934  0.00  0.00    +0.000 A 
ATOM     18  C   UNL     1     107.974 126.582 141.529  0.00  0.00    +0.000 A 
ATOM     19  C   UNL     1     108.922 125.719 140.820  0.00  0.00    +0.000 A 
ATOM     20  C   UNL     1     108.307 125.131 140.693  0.00  0.00    +0.000 A 
ATOM     21  C   UNL     1     107.515 125.276 140.991  0.00  0.00    +0.000 A 
BRANCH  21  23
ATOM     22  O   UNL     1     105.128 123.046 140.521  0.00  0.00    +0.000 OA
ATOM     23  C   UNL     1     106.918 124.718 140.874  0.00  0.00    +0.000 A 
ATOM     24  C   UNL     1     106.833 124.088 141.399  0.00  0.00    +0.000 A 
ATOM     25  C   UNL     1     106.407 124.791 140.230  0.00  0.00    +0.000 A 
ATOM     26  C   UNL     1     106.236 123.531 141.282  0.00  0.00    +0.000 A 
ATOM     27  C   UNL     1     105.810 124.233 140.112  0.00  0.00    +0.000 A 
ATOM     28  C   UNL     1     105.725 123.604 140.639  0.00  0.00    +0.000 A 
ENDBRANCH  21  23
ENDBRANCH   6  13
BRANCH   8  30
ATOM     29  O   UNL     1     111.270 128.393 143.938  0.00  0.00    +0.000 OA
ATOM     30  C   UNL     1     111.498 128.573 143.165  0.00  0.00    +0.000 C 
ENDBRANCH   8  30
BRANCH   4  31
ATOM     31  O   UNL     1     109.203 129.071 140.846  0.00  0.00    +0.000 OA
BRANCH  31  36
ATOM     32  O   UNL     1     110.121 128.946 139.758  0.00  0.00    +0.000 OA
ATOM     33  O   UNL     1     108.273 130.092 139.944  0.00  0.00    +0.000 OA
ATOM     34  O   UNL     1     108.725 130.478 138.405  0.00  0.00    +0.000 OA
ATOM     35  O   UNL     1     110.108 129.842 137.768  0.00  0.00    +0.000 OA
ATOM     36  C   UNL     1     109.429 129.264 140.076  0.00  0.00    +0.000 C 
ATOM     37  C   UNL     1     108.964 129.774 139.625  0.00  0.00    +0.000 C 
ATOM     38  C   UNL     1     109.191 129.967 138.856  0.00  0.00    +0.000 C 
ATOM     39  C   UNL     1     109.882 129.649 138.537  0.00  0.00    +0.000 C 
ATOM     40  C   UNL     1     110.347 129.139 138.988  0.00  0.00    +0.000 C 
BRANCH  40  41
ATOM     41  C   UNL     1     111.039 128.821 138.670  0.00  0.00    +0.000 C 
BRANCH  41  42
ATOM     42  O   UNL     1     111.138 128.002 138.635  0.00  0.00    +0.000 OA
BRANCH  42  44
ATOM     43  O   UNL     1     112.562 128.065 138.733  0.00  0.00    +0.000 OA
ATOM     44  C   UNL     1     111.880 127.683 138.468  0.00  0.00    +0.000 C 
BRANCH  44  45
ATOM     45  C   UNL     1     111.940 126.982 138.036  0.00  0.00    +0.000 C 
ATOM     46  C   UNL     1     112.366 126.345 138.341  0.00  0.00    +0.000 C 
BRANCH  46  48
ATOM     47  O   UNL     1     112.606 123.544 136.613  0.00  0.00    +0.000 OA
ATOM     48  C   UNL     1     112.426 125.645 137.909  0.00  0.00    +0.000 A 
ATOM     49  C   UNL     1     113.163 125.388 137.639  0.00  0.00    +0.000 A 
ATOM     50  C   UNL     1     111.750 125.201 137.747  0.00  0.00    +0.000 A 
ATOM     51  C   UNL     1     113.222 124.689 137.207  0.00  0.00    +0.000 A 
ATOM     52  C   UNL     1     111.810 124.501 137.315  0.00  0.00    +0.000 A 
ATOM     53  C   UNL     1     112.547 124.245 137.045  0.00  0.00    +0.000 A 
BRANCH  51  54
ATOM     54  O   UNL     1     113.958 124.432 136.937  0.00  0.00    +0.000 OA
ATOM     55  C   UNL     1     114.649 124.738 137.268  0.00  0.00    +0.000 C 
ENDBRANCH  51  54
ENDBRANCH  46  48
ENDBRANCH  44  45
ENDBRANCH  42  44
ENDBRANCH  41  42
ENDBRANCH  40  41
ENDBRANCH  31  36
ENDBRANCH   4  31
TORSDOF 11
ENDMDL
