MODEL 1
REMARK VINA RESULT:      -8.3      0.000      0.000
REMARK  Name = null
REMARK  15 active torsions:
REMARK  status: ('A' for Active; 'I' for Inactive)
REMARK    1  A    between atoms: C_6  and  O_8
REMARK    2  A    between atoms: O_8  and  C_9
REMARK    3  A    between atoms: C_9  and  C_10
REMARK    4  A    between atoms: C_14  and  O_16
REMARK    5  A    between atoms: O_16  and  C_17
REMARK    6  A    between atoms: C_18  and  C_33
REMARK    7  A    between atoms: C_22  and  O_29
REMARK    8  A    between atoms: O_29  and  C_30
REMARK    9  A    between atoms: C_30  and  C_31
REMARK   10  A    between atoms: C_35  and  O_43
REMARK   11  A    between atoms: C_36  and  O_39
REMARK   12  A    between atoms: O_39  and  C_40
REMARK   13  A    between atoms: C_40  and  C_41
REMARK   14  A    between atoms: O_43  and  C_44
REMARK   15  A    between atoms: C_44  and  C_45
REMARK                            x       y       z     vdW  Elec       q    Type
REMARK                         _______ _______ _______ _____ _____    ______ ____
ROOT
ATOM      1  C   UNL     1     112.569 129.386 136.667  0.00  0.00    +0.000 A 
ATOM      2  C   UNL     1     112.309 129.902 137.258  0.00  0.00    +0.000 A 
ATOM      3  O   UNL     1     111.602 130.315 137.162  0.00  0.00    +0.000 OA
ATOM      4  C   UNL     1     111.154 130.213 136.478  0.00  0.00    +0.000 A 
ATOM      5  C   UNL     1     110.446 130.626 136.382  0.00  0.00    +0.000 A 
ATOM      6  C   UNL     1     109.998 130.525 135.697  0.00  0.00    +0.000 A 
ATOM      7  C   UNL     1     110.258 130.009 135.107  0.00  0.00    +0.000 A 
ATOM      8  C   UNL     1     110.965 129.596 135.202  0.00  0.00    +0.000 A 
ATOM      9  C   UNL     1     111.414 129.697 135.887  0.00  0.00    +0.000 A 
ATOM     10  C   UNL     1     112.121 129.285 135.983  0.00  0.00    +0.000 A 
ATOM     11  O   UNL     1     112.380 128.770 135.393  0.00  0.00    +0.000 OA
ATOM     12  O   UNL     1     111.225 129.081 134.612  0.00  0.00    +0.000 OA
ENDROOT
BRANCH   2  13
ATOM     13  C   UNL     1     112.758 130.003 137.943  0.00  0.00    +0.000 A 
ATOM     14  C   UNL     1     112.493 129.693 138.661  0.00  0.00    +0.000 A 
ATOM     15  C   UNL     1     112.941 129.795 139.345  0.00  0.00    +0.000 A 
ATOM     16  C   UNL     1     113.656 130.206 139.312  0.00  0.00    +0.000 A 
ATOM     17  C   UNL     1     113.921 130.516 138.596  0.00  0.00    +0.000 A 
ATOM     18  C   UNL     1     113.472 130.415 137.910  0.00  0.00    +0.000 A 
BRANCH  16  19
ATOM     19  O   UNL     1     114.105 130.308 139.996  0.00  0.00    +0.000 OA
BRANCH  19  20
ATOM     20  C   UNL     1     114.737 130.839 139.999  0.00  0.00    +0.000 C 
BRANCH  20  21
ATOM     21  C   UNL     1     115.202 130.923 140.675  0.00  0.00    +0.000 C 
ATOM     22  O   UNL     1     115.324 131.670 141.002  0.00  0.00    +0.000 OA
ENDBRANCH  20  21
ENDBRANCH  19  20
ENDBRANCH  16  19
BRANCH  15  23
ATOM     23  O   UNL     1     112.676 129.485 140.061  0.00  0.00    +0.000 OA
BRANCH  23  24
ATOM     24  C   UNL     1     111.868 129.395 140.199  0.00  0.00    +0.000 C 
BRANCH  24  25
ATOM     25  C   UNL     1     111.601 129.120 140.929  0.00  0.00    +0.000 C 
ATOM     26  O   UNL     1     110.796 128.986 141.052  0.00  0.00    +0.000 OA
ENDBRANCH  24  25
ENDBRANCH  23  24
ENDBRANCH  15  23
ENDBRANCH   2  13
BRANCH   1  27
ATOM     27  O   UNL     1     113.277 128.973 136.763  0.00  0.00    +0.000 OA
BRANCH  27  32
ATOM     28  C   UNL     1     112.654 126.895 137.003  0.00  0.00    +0.000 C 
ATOM     29  C   UNL     1     113.289 126.500 136.654  0.00  0.00    +0.000 C 
ATOM     30  C   UNL     1     113.920 126.931 136.341  0.00  0.00    +0.000 C 
ATOM     31  C   UNL     1     113.916 127.754 136.377  0.00  0.00    +0.000 C 
ATOM     32  C   UNL     1     113.281 128.149 136.727  0.00  0.00    +0.000 C 
ATOM     33  O   UNL     1     112.649 127.718 137.040  0.00  0.00    +0.000 OA
ATOM     34  O   UNL     1     114.547 128.184 136.065  0.00  0.00    +0.000 OA
ATOM     35  O   UNL     1     114.555 126.536 135.992  0.00  0.00    +0.000 OA
ATOM     36  O   UNL     1     113.293 125.676 136.618  0.00  0.00    +0.000 OA
BRANCH  28  37
ATOM     37  C   UNL     1     112.023 126.465 137.316  0.00  0.00    +0.000 C 
BRANCH  37  38
ATOM     38  O   UNL     1     111.842 126.521 138.119  0.00  0.00    +0.000 OA
BRANCH  38  44
ATOM     39  C   UNL     1     109.029 126.779 137.689  0.00  0.00    +0.000 C 
ATOM     40  C   UNL     1     109.661 126.536 138.161  0.00  0.00    +0.000 C 
ATOM     41  C   UNL     1     109.516 126.179 138.891  0.00  0.00    +0.000 C 
ATOM     42  C   UNL     1     110.147 125.936 139.363  0.00  0.00    +0.000 C 
ATOM     43  C   UNL     1     110.923 126.050 139.106  0.00  0.00    +0.000 C 
ATOM     44  C   UNL     1     111.067 126.407 138.376  0.00  0.00    +0.000 C 
ATOM     45  O   UNL     1     110.436 126.650 137.904  0.00  0.00    +0.000 OA
ATOM     46  O   UNL     1     111.554 125.807 139.578  0.00  0.00    +0.000 OA
ATOM     47  O   UNL     1     110.003 125.579 140.093  0.00  0.00    +0.000 OA
ATOM     48  O   UNL     1     108.740 126.065 139.148  0.00  0.00    +0.000 OA
ENDBRANCH  38  44
ENDBRANCH  37  38
ENDBRANCH  28  37
ENDBRANCH  27  32
ENDBRANCH   1  27
BRANCH   6  49
ATOM     49  O   UNL     1     109.290 130.938 135.602  0.00  0.00    +0.000 OA
BRANCH  49  50
ATOM     50  C   UNL     1     108.595 130.650 135.939  0.00  0.00    +0.000 C 
BRANCH  50  51
ATOM     51  C   UNL     1     107.921 131.126 135.966  0.00  0.00    +0.000 C 
ATOM     52  O   UNL     1     107.174 130.788 135.886  0.00  0.00    +0.000 OA
ENDBRANCH  50  51
ENDBRANCH  49  50
ENDBRANCH   6  49
TORSDOF 15
ENDMDL
MODEL 2
REMARK VINA RESULT:      -8.3      1.604      4.008
REMARK  Name = null
REMARK  15 active torsions:
REMARK  status: ('A' for Active; 'I' for Inactive)
REMARK    1  A    between atoms: C_6  and  O_8
REMARK    2  A    between atoms: O_8  and  C_9
REMARK    3  A    between atoms: C_9  and  C_10
REMARK    4  A    between atoms: C_14  and  O_16
REMARK    5  A    between atoms: O_16  and  C_17
REMARK    6  A    between atoms: C_18  and  C_33
REMARK    7  A    between atoms: C_22  and  O_29
REMARK    8  A    between atoms: O_29  and  C_30
REMARK    9  A    between atoms: C_30  and  C_31
REMARK   10  A    between atoms: C_35  and  O_43
REMARK   11  A    between atoms: C_36  and  O_39
REMARK   12  A    between atoms: O_39  and  C_40
REMARK   13  A    between atoms: C_40  and  C_41
REMARK   14  A    between atoms: O_43  and  C_44
REMARK   15  A    between atoms: C_44  and  C_45
REMARK                            x       y       z     vdW  Elec       q    Type
REMARK                         _______ _______ _______ _____ _____    ______ ____
ROOT
ATOM      1  C   UNL     1     111.819 127.251 139.711  0.00  0.00    +0.000 A 
ATOM      2  C   UNL     1     111.613 127.966 140.071  0.00  0.00    +0.000 A 
ATOM      3  O   UNL     1     110.873 128.052 140.422  0.00  0.00    +0.000 OA
ATOM      4  C   UNL     1     110.337 127.425 140.415  0.00  0.00    +0.000 A 
ATOM      5  C   UNL     1     109.596 127.510 140.767  0.00  0.00    +0.000 A 
ATOM      6  C   UNL     1     109.061 126.883 140.760  0.00  0.00    +0.000 A 
ATOM      7  C   UNL     1     109.267 126.169 140.401  0.00  0.00    +0.000 A 
ATOM      8  C   UNL     1     110.007 126.083 140.049  0.00  0.00    +0.000 A 
ATOM      9  C   UNL     1     110.543 126.710 140.056  0.00  0.00    +0.000 A 
ATOM     10  C   UNL     1     111.284 126.624 139.704  0.00  0.00    +0.000 A 
ATOM     11  O   UNL     1     111.489 125.911 139.345  0.00  0.00    +0.000 OA
ATOM     12  O   UNL     1     110.213 125.369 139.690  0.00  0.00    +0.000 OA
ENDROOT
BRANCH   2  13
ATOM     13  C   UNL     1     112.149 128.593 140.077  0.00  0.00    +0.000 A 
ATOM     14  C   UNL     1     112.017 129.255 139.603  0.00  0.00    +0.000 A 
ATOM     15  C   UNL     1     112.553 129.882 139.611  0.00  0.00    +0.000 A 
ATOM     16  C   UNL     1     113.222 129.847 140.092  0.00  0.00    +0.000 A 
ATOM     17  C   UNL     1     113.355 129.185 140.566  0.00  0.00    +0.000 A 
ATOM     18  C   UNL     1     112.818 128.558 140.559  0.00  0.00    +0.000 A 
BRANCH  16  19
ATOM     19  O   UNL     1     113.759 130.473 140.100  0.00  0.00    +0.000 OA
BRANCH  19  20
ATOM     20  C   UNL     1     114.343 130.508 140.682  0.00  0.00    +0.000 C 
BRANCH  20  21
ATOM     21  C   UNL     1     114.984 131.019 140.592  0.00  0.00    +0.000 C 
ATOM     22  O   UNL     1     115.100 131.634 141.127  0.00  0.00    +0.000 OA
ENDBRANCH  20  21
ENDBRANCH  19  20
ENDBRANCH  16  19
BRANCH  15  23
ATOM     23  O   UNL     1     112.421 130.543 139.137  0.00  0.00    +0.000 OA
BRANCH  23  24
ATOM     24  C   UNL     1     111.731 130.599 138.688  0.00  0.00    +0.000 C 
BRANCH  24  25
ATOM     25  C   UNL     1     111.673 131.161 138.087  0.00  0.00    +0.000 C 
ATOM     26  O   UNL     1     110.940 131.490 137.899  0.00  0.00    +0.000 OA
ENDBRANCH  24  25
ENDBRANCH  23  24
ENDBRANCH  15  23
ENDBRANCH   2  13
BRANCH   1  27
ATOM     27  O   UNL     1     112.560 127.166 139.359  0.00  0.00    +0.000 OA
BRANCH  27  32
ATOM     28  C   UNL     1     112.162 127.150 137.213  0.00  0.00    +0.000 C 
ATOM     29  C   UNL     1     112.730 126.610 136.953  0.00  0.00    +0.000 C 
ATOM     30  C   UNL     1     113.241 126.256 137.496  0.00  0.00    +0.000 C 
ATOM     31  C   UNL     1     113.185 126.441 138.297  0.00  0.00    +0.000 C 
ATOM     32  C   UNL     1     112.617 126.981 138.557  0.00  0.00    +0.000 C 
ATOM     33  O   UNL     1     112.105 127.335 138.014  0.00  0.00    +0.000 OA
ATOM     34  O   UNL     1     113.695 126.087 138.839  0.00  0.00    +0.000 OA
ATOM     35  O   UNL     1     113.808 125.716 137.235  0.00  0.00    +0.000 OA
ATOM     36  O   UNL     1     112.786 126.425 136.151  0.00  0.00    +0.000 OA
BRANCH  28  37
ATOM     37  C   UNL     1     111.651 127.504 136.671  0.00  0.00    +0.000 C 
BRANCH  37  38
ATOM     38  O   UNL     1     110.844 127.556 136.836  0.00  0.00    +0.000 OA
BRANCH  38  44
ATOM     39  C   UNL     1     110.550 129.607 134.867  0.00  0.00    +0.000 C 
ATOM     40  C   UNL     1     110.214 129.070 135.396  0.00  0.00    +0.000 C 
ATOM     41  C   UNL     1     109.393 129.023 135.470  0.00  0.00    +0.000 C 
ATOM     42  C   UNL     1     109.056 128.487 135.998  0.00  0.00    +0.000 C 
ATOM     43  C   UNL     1     109.540 127.997 136.454  0.00  0.00    +0.000 C 
ATOM     44  C   UNL     1     110.361 128.045 136.381  0.00  0.00    +0.000 C 
ATOM     45  O   UNL     1     110.697 128.581 135.852  0.00  0.00    +0.000 OA
ATOM     46  O   UNL     1     109.204 127.461 136.983  0.00  0.00    +0.000 OA
ATOM     47  O   UNL     1     108.236 128.439 136.071  0.00  0.00    +0.000 OA
ATOM     48  O   UNL     1     108.909 129.512 135.014  0.00  0.00    +0.000 OA
ENDBRANCH  38  44
ENDBRANCH  37  38
ENDBRANCH  28  37
ENDBRANCH  27  32
ENDBRANCH   1  27
BRANCH   6  49
ATOM     49  O   UNL     1     108.319 126.969 141.112  0.00  0.00    +0.000 OA
BRANCH  49  50
ATOM     50  C   UNL     1     108.209 126.754 141.901  0.00  0.00    +0.000 C 
BRANCH  50  51
ATOM     51  C   UNL     1     107.474 126.860 142.259  0.00  0.00    +0.000 C 
ATOM     52  O   UNL     1     107.341 126.578 143.022  0.00  0.00    +0.000 OA
ENDBRANCH  50  51
ENDBRANCH  49  50
ENDBRANCH   6  49
TORSDOF 15
ENDMDL
MODEL 3
REMARK VINA RESULT:      -8.3      1.844      4.295
REMARK  Name = null
REMARK  15 active torsions:
REMARK  status: ('A' for Active; 'I' for Inactive)
REMARK    1  A    between atoms: C_6  and  O_8
REMARK    2  A    between atoms: O_8  and  C_9
REMARK    3  A    between atoms: C_9  and  C_10
REMARK    4  A    between atoms: C_14  and  O_16
REMARK    5  A    between atoms: O_16  and  C_17
REMARK    6  A    between atoms: C_18  and  C_33
REMARK    7  A    between atoms: C_22  and  O_29
REMARK    8  A    between atoms: O_29  and  C_30
REMARK    9  A    between atoms: C_30  and  C_31
REMARK   10  A    between atoms: C_35  and  O_43
REMARK   11  A    between atoms: C_36  and  O_39
REMARK   12  A    between atoms: O_39  and  C_40
REMARK   13  A    between atoms: C_40  and  C_41
REMARK   14  A    between atoms: O_43  and  C_44
REMARK   15  A    between atoms: C_44  and  C_45
REMARK                            x       y       z     vdW  Elec       q    Type
REMARK                         _______ _______ _______ _____ _____    ______ ____
ROOT
ATOM      1  C   UNL     1     111.118 128.103 135.563  0.00  0.00    +0.000 A 
ATOM      2  C   UNL     1     111.888 127.930 135.806  0.00  0.00    +0.000 A 
ATOM      3  O   UNL     1     112.106 127.149 135.957  0.00  0.00    +0.000 OA
ATOM      4  C   UNL     1     111.556 126.542 135.866  0.00  0.00    +0.000 A 
ATOM      5  C   UNL     1     111.774 125.760 136.017  0.00  0.00    +0.000 A 
ATOM      6  C   UNL     1     111.224 125.153 135.925  0.00  0.00    +0.000 A 
ATOM      7  C   UNL     1     110.454 125.327 135.683  0.00  0.00    +0.000 A 
ATOM      8  C   UNL     1     110.236 126.108 135.532  0.00  0.00    +0.000 A 
ATOM      9  C   UNL     1     110.786 126.716 135.623  0.00  0.00    +0.000 A 
ATOM     10  C   UNL     1     110.568 127.496 135.472  0.00  0.00    +0.000 A 
ATOM     11  O   UNL     1     109.799 127.670 135.229  0.00  0.00    +0.000 OA
ATOM     12  O   UNL     1     109.467 126.281 135.289  0.00  0.00    +0.000 OA
ENDROOT
BRANCH   2  13
ATOM     13  C   UNL     1     112.439 128.538 135.898  0.00  0.00    +0.000 A 
ATOM     14  C   UNL     1     112.628 128.814 136.651  0.00  0.00    +0.000 A 
ATOM     15  C   UNL     1     113.178 129.422 136.742  0.00  0.00    +0.000 A 
ATOM     16  C   UNL     1     113.539 129.753 136.079  0.00  0.00    +0.000 A 
ATOM     17  C   UNL     1     113.350 129.478 135.325  0.00  0.00    +0.000 A 
ATOM     18  C   UNL     1     112.800 128.869 135.234  0.00  0.00    +0.000 A 
BRANCH  16  19
ATOM     19  O   UNL     1     114.090 130.361 136.169  0.00  0.00    +0.000 OA
BRANCH  19  20
ATOM     20  C   UNL     1     114.497 130.649 135.511  0.00  0.00    +0.000 C 
BRANCH  20  21
ATOM     21  C   UNL     1     115.157 131.133 135.614  0.00  0.00    +0.000 C 
ATOM     22  O   UNL     1     115.385 131.654 135.018  0.00  0.00    +0.000 OA
ENDBRANCH  20  21
ENDBRANCH  19  20
ENDBRANCH  16  19
BRANCH  15  23
ATOM     23  O   UNL     1     113.368 129.697 137.496  0.00  0.00    +0.000 OA
BRANCH  23  24
ATOM     24  C   UNL     1     113.231 129.222 138.156  0.00  0.00    +0.000 C 
BRANCH  24  25
ATOM     25  C   UNL     1     113.371 129.517 138.913  0.00  0.00    +0.000 C 
ATOM     26  O   UNL     1     113.220 129.047 139.574  0.00  0.00    +0.000 OA
ENDBRANCH  24  25
ENDBRANCH  23  24
ENDBRANCH  15  23
ENDBRANCH   2  13
BRANCH   1  27
ATOM     27  O   UNL     1     110.900 128.885 135.412  0.00  0.00    +0.000 OA
BRANCH  27  32
ATOM     28  C   UNL     1     109.580 129.450 137.056  0.00  0.00    +0.000 C 
ATOM     29  C   UNL     1     109.019 129.906 136.656  0.00  0.00    +0.000 C 
ATOM     30  C   UNL     1     109.087 130.021 135.841  0.00  0.00    +0.000 C 
ATOM     31  C   UNL     1     109.713 129.681 135.427  0.00  0.00    +0.000 C 
ATOM     32  C   UNL     1     110.273 129.225 135.827  0.00  0.00    +0.000 C 
ATOM     33  O   UNL     1     110.206 129.110 136.642  0.00  0.00    +0.000 OA
ATOM     34  O   UNL     1     109.780 129.796 134.613  0.00  0.00    +0.000 OA
ATOM     35  O   UNL     1     108.527 130.476 135.442  0.00  0.00    +0.000 OA
ATOM     36  O   UNL     1     108.393 130.246 137.070  0.00  0.00    +0.000 OA
BRANCH  28  37
ATOM     37  C   UNL     1     109.512 129.335 137.870  0.00  0.00    +0.000 C 
BRANCH  37  38
ATOM     38  O   UNL     1     109.566 128.575 138.185  0.00  0.00    +0.000 OA
BRANCH  38  44
ATOM     39  C   UNL     1     110.027 129.676 140.782  0.00  0.00    +0.000 C 
ATOM     40  C   UNL     1     109.895 129.023 140.296  0.00  0.00    +0.000 C 
ATOM     41  C   UNL     1     109.864 128.265 140.623  0.00  0.00    +0.000 C 
ATOM     42  C   UNL     1     109.733 127.612 140.137  0.00  0.00    +0.000 C 
ATOM     43  C   UNL     1     109.633 127.714 139.324  0.00  0.00    +0.000 C 
ATOM     44  C   UNL     1     109.665 128.472 138.997  0.00  0.00    +0.000 C 
ATOM     45  O   UNL     1     109.796 129.126 139.484  0.00  0.00    +0.000 OA
ATOM     46  O   UNL     1     109.502 127.061 138.839  0.00  0.00    +0.000 OA
ATOM     47  O   UNL     1     109.701 126.855 140.464  0.00  0.00    +0.000 OA
ATOM     48  O   UNL     1     109.963 128.162 141.435  0.00  0.00    +0.000 OA
ENDBRANCH  38  44
ENDBRANCH  37  38
ENDBRANCH  28  37
ENDBRANCH  27  32
ENDBRANCH   1  27
BRANCH   6  49
ATOM     49  O   UNL     1     111.442 124.372 136.076  0.00  0.00    +0.000 OA
BRANCH  49  50
ATOM     50  C   UNL     1     111.691 124.151 136.831  0.00  0.00    +0.000 C 
BRANCH  50  51
ATOM     51  C   UNL     1     112.043 123.415 136.950  0.00  0.00    +0.000 C 
ATOM     52  O   UNL     1     111.841 122.962 137.609  0.00  0.00    +0.000 OA
ENDBRANCH  50  51
ENDBRANCH  49  50
ENDBRANCH   6  49
TORSDOF 15
ENDMDL
MODEL 4
REMARK VINA RESULT:      -8.3      1.459      4.350
REMARK  Name = null
REMARK  15 active torsions:
REMARK  status: ('A' for Active; 'I' for Inactive)
REMARK    1  A    between atoms: C_6  and  O_8
REMARK    2  A    between atoms: O_8  and  C_9
REMARK    3  A    between atoms: C_9  and  C_10
REMARK    4  A    between atoms: C_14  and  O_16
REMARK    5  A    between atoms: O_16  and  C_17
REMARK    6  A    between atoms: C_18  and  C_33
REMARK    7  A    between atoms: C_22  and  O_29
REMARK    8  A    between atoms: O_29  and  C_30
REMARK    9  A    between atoms: C_30  and  C_31
REMARK   10  A    between atoms: C_35  and  O_43
REMARK   11  A    between atoms: C_36  and  O_39
REMARK   12  A    between atoms: O_39  and  C_40
REMARK   13  A    between atoms: C_40  and  C_41
REMARK   14  A    between atoms: O_43  and  C_44
REMARK   15  A    between atoms: C_44  and  C_45
REMARK                            x       y       z     vdW  Elec       q    Type
REMARK                         _______ _______ _______ _____ _____    ______ ____
ROOT
ATOM      1  C   UNL     1     112.583 130.490 137.958  0.00  0.00    +0.000 A 
ATOM      2  C   UNL     1     111.781 130.520 138.155  0.00  0.00    +0.000 A 
ATOM      3  O   UNL     1     111.542 130.387 138.933  0.00  0.00    +0.000 OA
ATOM      4  C   UNL     1     112.103 130.226 139.515  0.00  0.00    +0.000 A 
ATOM      5  C   UNL     1     111.865 130.094 140.293  0.00  0.00    +0.000 A 
ATOM      6  C   UNL     1     112.426 129.932 140.875  0.00  0.00    +0.000 A 
ATOM      7  C   UNL     1     113.228 129.903 140.679  0.00  0.00    +0.000 A 
ATOM      8  C   UNL     1     113.467 130.036 139.901  0.00  0.00    +0.000 A 
ATOM      9  C   UNL     1     112.905 130.197 139.318  0.00  0.00    +0.000 A 
ATOM     10  C   UNL     1     113.144 130.329 138.540  0.00  0.00    +0.000 A 
ATOM     11  O   UNL     1     113.945 130.300 138.344  0.00  0.00    +0.000 OA
ATOM     12  O   UNL     1     114.267 130.007 139.705  0.00  0.00    +0.000 OA
ENDROOT
BRANCH   2  13
ATOM     13  C   UNL     1     111.219 130.681 137.572  0.00  0.00    +0.000 A 
ATOM     14  C   UNL     1     110.736 130.077 137.285  0.00  0.00    +0.000 A 
ATOM     15  C   UNL     1     110.175 130.239 136.702  0.00  0.00    +0.000 A 
ATOM     16  C   UNL     1     110.097 131.005 136.406  0.00  0.00    +0.000 A 
ATOM     17  C   UNL     1     110.580 131.609 136.693  0.00  0.00    +0.000 A 
ATOM     18  C   UNL     1     111.142 131.447 137.276  0.00  0.00    +0.000 A 
BRANCH  16  19
ATOM     19  O   UNL     1     109.536 131.168 135.824  0.00  0.00    +0.000 OA
BRANCH  19  20
ATOM     20  C   UNL     1     109.328 131.950 135.660  0.00  0.00    +0.000 C 
BRANCH  20  21
ATOM     21  C   UNL     1     108.898 132.126 134.978  0.00  0.00    +0.000 C 
ATOM     22  O   UNL     1     108.140 132.444 135.039  0.00  0.00    +0.000 OA
ENDBRANCH  20  21
ENDBRANCH  19  20
ENDBRANCH  16  19
BRANCH  15  23
ATOM     23  O   UNL     1     109.692 129.635 136.416  0.00  0.00    +0.000 OA
BRANCH  23  24
ATOM     24  C   UNL     1     109.600 128.939 136.848  0.00  0.00    +0.000 C 
BRANCH  24  25
ATOM     25  C   UNL     1     109.209 128.294 136.515  0.00  0.00    +0.000 C 
ATOM     26  O   UNL     1     108.952 127.674 136.994  0.00  0.00    +0.000 OA
ENDBRANCH  24  25
ENDBRANCH  23  24
ENDBRANCH  15  23
ENDBRANCH   2  13
BRANCH   1  27
ATOM     27  O   UNL     1     112.821 130.623 137.179  0.00  0.00    +0.000 OA
BRANCH  27  32
ATOM     28  C   UNL     1     113.404 128.660 136.423  0.00  0.00    +0.000 C 
ATOM     29  C   UNL     1     114.047 128.862 135.946  0.00  0.00    +0.000 C 
ATOM     30  C   UNL     1     114.282 129.651 135.881  0.00  0.00    +0.000 C 
ATOM     31  C   UNL     1     113.873 130.237 136.292  0.00  0.00    +0.000 C 
ATOM     32  C   UNL     1     113.230 130.036 136.768  0.00  0.00    +0.000 C 
ATOM     33  O   UNL     1     112.995 129.247 136.833  0.00  0.00    +0.000 OA
ATOM     34  O   UNL     1     114.107 131.026 136.228  0.00  0.00    +0.000 OA
ATOM     35  O   UNL     1     114.925 129.852 135.405  0.00  0.00    +0.000 OA
ATOM     36  O   UNL     1     114.456 128.275 135.535  0.00  0.00    +0.000 OA
BRANCH  28  37
ATOM     37  C   UNL     1     113.170 127.872 136.487  0.00  0.00    +0.000 C 
BRANCH  37  38
ATOM     38  O   UNL     1     112.996 127.552 137.227  0.00  0.00    +0.000 OA
BRANCH  38  44
ATOM     39  C   UNL     1     111.589 125.404 135.972  0.00  0.00    +0.000 C 
ATOM     40  C   UNL     1     111.876 125.769 136.654  0.00  0.00    +0.000 C 
ATOM     41  C   UNL     1     111.745 125.423 137.393  0.00  0.00    +0.000 C 
ATOM     42  C   UNL     1     112.031 125.787 138.075  0.00  0.00    +0.000 C 
ATOM     43  C   UNL     1     112.449 126.497 138.021  0.00  0.00    +0.000 C 
ATOM     44  C   UNL     1     112.579 126.843 137.282  0.00  0.00    +0.000 C 
ATOM     45  O   UNL     1     112.293 126.478 136.600  0.00  0.00    +0.000 OA
ATOM     46  O   UNL     1     112.735 126.861 138.703  0.00  0.00    +0.000 OA
ATOM     47  O   UNL     1     111.901 125.441 138.813  0.00  0.00    +0.000 OA
ATOM     48  O   UNL     1     111.328 124.713 137.447  0.00  0.00    +0.000 OA
ENDBRANCH  38  44
ENDBRANCH  37  38
ENDBRANCH  28  37
ENDBRANCH  27  32
ENDBRANCH   1  27
BRANCH   6  49
ATOM     49  O   UNL     1     112.188 129.800 141.654  0.00  0.00    +0.000 OA
BRANCH  49  50
ATOM     50  C   UNL     1     112.023 129.034 141.911  0.00  0.00    +0.000 C 
BRANCH  50  51
ATOM     51  C   UNL     1     111.836 128.895 142.703  0.00  0.00    +0.000 C 
ATOM     52  O   UNL     1     111.443 128.204 142.919  0.00  0.00    +0.000 OA
ENDBRANCH  50  51
ENDBRANCH  49  50
ENDBRANCH   6  49
TORSDOF 15
ENDMDL
MODEL 5
REMARK VINA RESULT:      -8.2      1.796      5.060
REMARK  Name = null
REMARK  15 active torsions:
REMARK  status: ('A' for Active; 'I' for Inactive)
REMARK    1  A    between atoms: C_6  and  O_8
REMARK    2  A    between atoms: O_8  and  C_9
REMARK    3  A    between atoms: C_9  and  C_10
REMARK    4  A    between atoms: C_14  and  O_16
REMARK    5  A    between atoms: O_16  and  C_17
REMARK    6  A    between atoms: C_18  and  C_33
REMARK    7  A    between atoms: C_22  and  O_29
REMARK    8  A    between atoms: O_29  and  C_30
REMARK    9  A    between atoms: C_30  and  C_31
REMARK   10  A    between atoms: C_35  and  O_43
REMARK   11  A    between atoms: C_36  and  O_39
REMARK   12  A    between atoms: O_39  and  C_40
REMARK   13  A    between atoms: C_40  and  C_41
REMARK   14  A    between atoms: O_43  and  C_44
REMARK   15  A    between atoms: C_44  and  C_45
REMARK                            x       y       z     vdW  Elec       q    Type
REMARK                         _______ _______ _______ _____ _____    ______ ____
ROOT
ATOM      1  C   UNL     1     110.696 128.385 139.575  0.00  0.00    +0.000 A 
ATOM      2  C   UNL     1     111.433 128.389 139.202  0.00  0.00    +0.000 A 
ATOM      3  O   UNL     1     111.598 127.841 138.608  0.00  0.00    +0.000 OA
ATOM      4  C   UNL     1     111.027 127.289 138.387  0.00  0.00    +0.000 A 
ATOM      5  C   UNL     1     111.191 126.740 137.793  0.00  0.00    +0.000 A 
ATOM      6  C   UNL     1     110.620 126.188 137.572  0.00  0.00    +0.000 A 
ATOM      7  C   UNL     1     109.883 126.184 137.945  0.00  0.00    +0.000 A 
ATOM      8  C   UNL     1     109.718 126.733 138.538  0.00  0.00    +0.000 A 
ATOM      9  C   UNL     1     110.290 127.285 138.760  0.00  0.00    +0.000 A 
ATOM     10  C   UNL     1     110.125 127.833 139.354  0.00  0.00    +0.000 A 
ATOM     11  O   UNL     1     109.389 127.830 139.726  0.00  0.00    +0.000 OA
ATOM     12  O   UNL     1     108.982 126.729 138.911  0.00  0.00    +0.000 OA
ENDROOT
BRANCH   2  13
ATOM     13  C   UNL     1     112.004 128.942 139.424  0.00  0.00    +0.000 A 
ATOM     14  C   UNL     1     112.186 129.573 138.924  0.00  0.00    +0.000 A 
ATOM     15  C   UNL     1     112.756 130.125 139.146  0.00  0.00    +0.000 A 
ATOM     16  C   UNL     1     113.147 130.046 139.868  0.00  0.00    +0.000 A 
ATOM     17  C   UNL     1     112.967 129.416 140.369  0.00  0.00    +0.000 A 
ATOM     18  C   UNL     1     112.395 128.863 140.146  0.00  0.00    +0.000 A 
BRANCH  16  19
ATOM     19  O   UNL     1     113.718 130.598 140.091  0.00  0.00    +0.000 OA
BRANCH  19  20
ATOM     20  C   UNL     1     114.140 130.494 140.793  0.00  0.00    +0.000 C 
BRANCH  20  21
ATOM     21  C   UNL     1     114.842 130.909 140.917  0.00  0.00    +0.000 C 
ATOM     22  O   UNL     1     114.848 131.572 141.407  0.00  0.00    +0.000 OA
ENDBRANCH  20  21
ENDBRANCH  19  20
ENDBRANCH  16  19
BRANCH  15  23
ATOM     23  O   UNL     1     112.937 130.755 138.646  0.00  0.00    +0.000 OA
BRANCH  23  24
ATOM     24  C   UNL     1     112.751 130.713 137.843  0.00  0.00    +0.000 C 
BRANCH  24  25
ATOM     25  C   UNL     1     112.926 131.345 137.345  0.00  0.00    +0.000 C 
ATOM     26  O   UNL     1     112.799 131.279 136.532  0.00  0.00    +0.000 OA
ENDBRANCH  24  25
ENDBRANCH  23  24
ENDBRANCH  15  23
ENDBRANCH   2  13
BRANCH   1  27
ATOM     27  O   UNL     1     110.532 128.934 140.169  0.00  0.00    +0.000 OA
BRANCH  27  32
ATOM     28  C   UNL     1     109.164 130.356 139.235  0.00  0.00    +0.000 C 
ATOM     29  C   UNL     1     108.685 130.555 139.878  0.00  0.00    +0.000 C 
ATOM     30  C   UNL     1     108.822 130.214 140.617  0.00  0.00    +0.000 C 
ATOM     31  C   UNL     1     109.437 129.674 140.714  0.00  0.00    +0.000 C 
ATOM     32  C   UNL     1     109.916 129.475 140.072  0.00  0.00    +0.000 C 
ATOM     33  O   UNL     1     109.779 129.816 139.332  0.00  0.00    +0.000 OA
ATOM     34  O   UNL     1     109.575 129.333 141.452  0.00  0.00    +0.000 OA
ATOM     35  O   UNL     1     108.343 130.414 141.258  0.00  0.00    +0.000 OA
ATOM     36  O   UNL     1     108.069 131.096 139.780  0.00  0.00    +0.000 OA
BRANCH  28  37
ATOM     37  C   UNL     1     109.027 130.697 138.497  0.00  0.00    +0.000 C 
BRANCH  37  38
ATOM     38  O   UNL     1     109.022 130.227 137.819  0.00  0.00    +0.000 OA
BRANCH  38  44
ATOM     39  C   UNL     1     109.530 132.506 136.172  0.00  0.00    +0.000 C 
ATOM     40  C   UNL     1     109.298 131.718 136.250  0.00  0.00    +0.000 C 
ATOM     41  C   UNL     1     109.089 131.281 135.581  0.00  0.00    +0.000 C 
ATOM     42  C   UNL     1     108.858 130.494 135.659  0.00  0.00    +0.000 C 
ATOM     43  C   UNL     1     108.835 130.141 136.405  0.00  0.00    +0.000 C 
ATOM     44  C   UNL     1     109.044 130.578 137.074  0.00  0.00    +0.000 C 
ATOM     45  O   UNL     1     109.276 131.366 136.996  0.00  0.00    +0.000 OA
ATOM     46  O   UNL     1     108.604 129.354 136.483  0.00  0.00    +0.000 OA
ATOM     47  O   UNL     1     108.649 130.057 134.991  0.00  0.00    +0.000 OA
ATOM     48  O   UNL     1     109.112 131.633 134.835  0.00  0.00    +0.000 OA
ENDBRANCH  38  44
ENDBRANCH  37  38
ENDBRANCH  28  37
ENDBRANCH  27  32
ENDBRANCH   1  27
BRANCH   6  49
ATOM     49  O   UNL     1     110.784 125.639 136.978  0.00  0.00    +0.000 OA
BRANCH  49  50
ATOM     50  C   UNL     1     111.271 124.993 137.136  0.00  0.00    +0.000 C 
BRANCH  50  51
ATOM     51  C   UNL     1     111.491 124.483 136.526  0.00  0.00    +0.000 C 
ATOM     52  O   UNL     1     111.876 123.775 136.698  0.00  0.00    +0.000 OA
ENDBRANCH  50  51
ENDBRANCH  49  50
ENDBRANCH   6  49
TORSDOF 15
ENDMDL
MODEL 6
REMARK VINA RESULT:      -8.2      1.659      5.047
REMARK  Name = null
REMARK  15 active torsions:
REMARK  status: ('A' for Active; 'I' for Inactive)
REMARK    1  A    between atoms: C_6  and  O_8
REMARK    2  A    between atoms: O_8  and  C_9
REMARK    3  A    between atoms: C_9  and  C_10
REMARK    4  A    between atoms: C_14  and  O_16
REMARK    5  A    between atoms: O_16  and  C_17
REMARK    6  A    between atoms: C_18  and  C_33
REMARK    7  A    between atoms: C_22  and  O_29
REMARK    8  A    between atoms: O_29  and  C_30
REMARK    9  A    between atoms: C_30  and  C_31
REMARK   10  A    between atoms: C_35  and  O_43
REMARK   11  A    between atoms: C_36  and  O_39
REMARK   12  A    between atoms: O_39  and  C_40
REMARK   13  A    between atoms: C_40  and  C_41
REMARK   14  A    between atoms: O_43  and  C_44
REMARK   15  A    between atoms: C_44  and  C_45
REMARK                            x       y       z     vdW  Elec       q    Type
REMARK                         _______ _______ _______ _____ _____    ______ ____
ROOT
ATOM      1  C   UNL     1     111.179 131.073 137.728  0.00  0.00    +0.000 A 
ATOM      2  C   UNL     1     111.001 130.849 136.953  0.00  0.00    +0.000 A 
ATOM      3  O   UNL     1     111.601 130.590 136.451  0.00  0.00    +0.000 OA
ATOM      4  C   UNL     1     112.379 130.555 136.721  0.00  0.00    +0.000 A 
ATOM      5  C   UNL     1     112.980 130.296 136.219  0.00  0.00    +0.000 A 
ATOM      6  C   UNL     1     113.758 130.261 136.489  0.00  0.00    +0.000 A 
ATOM      7  C   UNL     1     113.936 130.485 137.264  0.00  0.00    +0.000 A 
ATOM      8  C   UNL     1     113.336 130.744 137.766  0.00  0.00    +0.000 A 
ATOM      9  C   UNL     1     112.557 130.779 137.496  0.00  0.00    +0.000 A 
ATOM     10  C   UNL     1     111.957 131.038 137.999  0.00  0.00    +0.000 A 
ATOM     11  O   UNL     1     112.135 131.262 138.772  0.00  0.00    +0.000 OA
ATOM     12  O   UNL     1     113.514 130.967 138.540  0.00  0.00    +0.000 OA
ENDROOT
BRANCH   2  13
ATOM     13  C   UNL     1     110.222 130.885 136.683  0.00  0.00    +0.000 A 
ATOM     14  C   UNL     1     109.793 130.190 136.564  0.00  0.00    +0.000 A 
ATOM     15  C   UNL     1     109.015 130.226 136.294  0.00  0.00    +0.000 A 
ATOM     16  C   UNL     1     108.664 130.957 136.143  0.00  0.00    +0.000 A 
ATOM     17  C   UNL     1     109.092 131.653 136.261  0.00  0.00    +0.000 A 
ATOM     18  C   UNL     1     109.871 131.616 136.532  0.00  0.00    +0.000 A 
BRANCH  16  19
ATOM     19  O   UNL     1     107.886 130.994 135.873  0.00  0.00    +0.000 OA
BRANCH  19  20
ATOM     20  C   UNL     1     107.549 131.724 135.684  0.00  0.00    +0.000 C 
BRANCH  20  21
ATOM     21  C   UNL     1     106.731 131.791 135.601  0.00  0.00    +0.000 C 
ATOM     22  O   UNL     1     106.410 132.075 134.897  0.00  0.00    +0.000 OA
ENDBRANCH  20  21
ENDBRANCH  19  20
ENDBRANCH  16  19
BRANCH  15  23
ATOM     23  O   UNL     1     108.587 129.531 136.175  0.00  0.00    +0.000 OA
BRANCH  23  24
ATOM     24  C   UNL     1     108.983 128.819 136.045  0.00  0.00    +0.000 C 
BRANCH  24  25
ATOM     25  C   UNL     1     108.562 128.148 135.817  0.00  0.00    +0.000 C 
ATOM     26  O   UNL     1     108.931 127.410 135.810  0.00  0.00    +0.000 OA
ENDBRANCH  24  25
ENDBRANCH  23  24
ENDBRANCH  15  23
ENDBRANCH   2  13
BRANCH   1  27
ATOM     27  O   UNL     1     110.578 131.332 138.231  0.00  0.00    +0.000 OA
BRANCH  27  32
ATOM     28  C   UNL     1     110.445 129.755 139.733  0.00  0.00    +0.000 C 
ATOM     29  C   UNL     1     110.194 130.187 140.391  0.00  0.00    +0.000 C 
ATOM     30  C   UNL     1     110.072 131.001 140.328  0.00  0.00    +0.000 C 
ATOM     31  C   UNL     1     110.199 131.382 139.609  0.00  0.00    +0.000 C 
ATOM     32  C   UNL     1     110.450 130.950 138.951  0.00  0.00    +0.000 C 
ATOM     33  O   UNL     1     110.573 130.136 139.014  0.00  0.00    +0.000 OA
ATOM     34  O   UNL     1     110.077 132.195 139.545  0.00  0.00    +0.000 OA
ATOM     35  O   UNL     1     109.821 131.432 140.985  0.00  0.00    +0.000 OA
ATOM     36  O   UNL     1     110.066 129.805 141.111  0.00  0.00    +0.000 OA
BRANCH  28  37
ATOM     37  C   UNL     1     110.567 128.942 139.797  0.00  0.00    +0.000 C 
BRANCH  37  38
ATOM     38  O   UNL     1     110.170 128.423 139.293  0.00  0.00    +0.000 OA
BRANCH  38  44
ATOM     39  C   UNL     1     112.381 126.662 138.869  0.00  0.00    +0.000 C 
ATOM     40  C   UNL     1     111.569 126.783 138.956  0.00  0.00    +0.000 C 
ATOM     41  C   UNL     1     111.051 126.141 138.919  0.00  0.00    +0.000 C 
ATOM     42  C   UNL     1     110.240 126.260 139.007  0.00  0.00    +0.000 C 
ATOM     43  C   UNL     1     109.945 127.021 139.131  0.00  0.00    +0.000 C 
ATOM     44  C   UNL     1     110.464 127.663 139.168  0.00  0.00    +0.000 C 
ATOM     45  O   UNL     1     111.275 127.543 139.081  0.00  0.00    +0.000 OA
ATOM     46  O   UNL     1     109.134 127.141 139.219  0.00  0.00    +0.000 OA
ATOM     47  O   UNL     1     109.722 125.619 138.970  0.00  0.00    +0.000 OA
ATOM     48  O   UNL     1     111.345 125.380 138.795  0.00  0.00    +0.000 OA
ENDBRANCH  38  44
ENDBRANCH  37  38
ENDBRANCH  28  37
ENDBRANCH  27  32
ENDBRANCH   1  27
BRANCH   6  49
ATOM     49  O   UNL     1     114.358 130.002 135.986  0.00  0.00    +0.000 OA
BRANCH  49  50
ATOM     50  C   UNL     1     114.311 129.257 135.636  0.00  0.00    +0.000 C 
BRANCH  50  51
ATOM     51  C   UNL     1     114.856 129.038 135.056  0.00  0.00    +0.000 C 
ATOM     52  O   UNL     1     115.042 128.243 134.943  0.00  0.00    +0.000 OA
ENDBRANCH  50  51
ENDBRANCH  49  50
ENDBRANCH   6  49
TORSDOF 15
ENDMDL
MODEL 7
REMARK VINA RESULT:      -8.2      1.456      5.240
REMARK  Name = null
REMARK  15 active torsions:
REMARK  status: ('A' for Active; 'I' for Inactive)
REMARK    1  A    between atoms: C_6  and  O_8
REMARK    2  A    between atoms: O_8  and  C_9
REMARK    3  A    between atoms: C_9  and  C_10
REMARK    4  A    between atoms: C_14  and  O_16
REMARK    5  A    between atoms: O_16  and  C_17
REMARK    6  A    between atoms: C_18  and  C_33
REMARK    7  A    between atoms: C_22  and  O_29
REMARK    8  A    between atoms: O_29  and  C_30
REMARK    9  A    between atoms: C_30  and  C_31
REMARK   10  A    between atoms: C_35  and  O_43
REMARK   11  A    between atoms: C_36  and  O_39
REMARK   12  A    between atoms: O_39  and  C_40
REMARK   13  A    between atoms: C_40  and  C_41
REMARK   14  A    between atoms: O_43  and  C_44
REMARK   15  A    between atoms: C_44  and  C_45
REMARK                            x       y       z     vdW  Elec       q    Type
REMARK                         _______ _______ _______ _____ _____    ______ ____
ROOT
ATOM      1  C   UNL     1     110.940 128.678 139.706  0.00  0.00    +0.000 A 
ATOM      2  C   UNL     1     111.208 129.185 139.111  0.00  0.00    +0.000 A 
ATOM      3  O   UNL     1     111.959 129.519 139.163  0.00  0.00    +0.000 OA
ATOM      4  C   UNL     1     112.444 129.348 139.807  0.00  0.00    +0.000 A 
ATOM      5  C   UNL     1     113.196 129.683 139.859  0.00  0.00    +0.000 A 
ATOM      6  C   UNL     1     113.680 129.511 140.504  0.00  0.00    +0.000 A 
ATOM      7  C   UNL     1     113.412 129.004 141.099  0.00  0.00    +0.000 A 
ATOM      8  C   UNL     1     112.661 128.670 141.047  0.00  0.00    +0.000 A 
ATOM      9  C   UNL     1     112.176 128.841 140.402  0.00  0.00    +0.000 A 
ATOM     10  C   UNL     1     111.424 128.507 140.350  0.00  0.00    +0.000 A 
ATOM     11  O   UNL     1     111.156 128.000 140.944  0.00  0.00    +0.000 OA
ATOM     12  O   UNL     1     112.393 128.164 141.641  0.00  0.00    +0.000 OA
ENDROOT
BRANCH   2  13
ATOM     13  C   UNL     1     110.722 129.356 138.466  0.00  0.00    +0.000 A 
ATOM     14  C   UNL     1     110.878 129.018 137.730  0.00  0.00    +0.000 A 
ATOM     15  C   UNL     1     110.393 129.189 137.085  0.00  0.00    +0.000 A 
ATOM     16  C   UNL     1     109.751 129.700 137.177  0.00  0.00    +0.000 A 
ATOM     17  C   UNL     1     109.595 130.038 137.912  0.00  0.00    +0.000 A 
ATOM     18  C   UNL     1     110.081 129.867 138.557  0.00  0.00    +0.000 A 
BRANCH  16  19
ATOM     19  O   UNL     1     109.266 129.872 136.533  0.00  0.00    +0.000 OA
BRANCH  19  20
ATOM     20  C   UNL     1     108.623 130.382 136.625  0.00  0.00    +0.000 C 
BRANCH  20  21
ATOM     21  C   UNL     1     108.239 130.685 135.962  0.00  0.00    +0.000 C 
ATOM     22  O   UNL     1     107.426 130.581 135.873  0.00  0.00    +0.000 OA
ENDBRANCH  20  21
ENDBRANCH  19  20
ENDBRANCH  16  19
BRANCH  15  23
ATOM     23  O   UNL     1     110.549 128.851 136.350  0.00  0.00    +0.000 OA
BRANCH  23  24
ATOM     24  C   UNL     1     111.273 128.480 136.211  0.00  0.00    +0.000 C 
BRANCH  24  25
ATOM     25  C   UNL     1     111.379 128.023 135.533  0.00  0.00    +0.000 C 
ATOM     26  O   UNL     1     112.131 127.747 135.335  0.00  0.00    +0.000 OA
ENDBRANCH  24  25
ENDBRANCH  23  24
ENDBRANCH  15  23
ENDBRANCH   2  13
BRANCH   1  27
ATOM     27  O   UNL     1     110.187 128.344 139.653  0.00  0.00    +0.000 OA
BRANCH  27  32
ATOM     28  C   UNL     1     110.521 126.232 139.214  0.00  0.00    +0.000 C 
ATOM     29  C   UNL     1     109.925 125.883 139.666  0.00  0.00    +0.000 C 
ATOM     30  C   UNL     1     109.416 126.354 140.113  0.00  0.00    +0.000 C 
ATOM     31  C   UNL     1     109.503 127.174 140.109  0.00  0.00    +0.000 C 
ATOM     32  C   UNL     1     110.100 127.523 139.657  0.00  0.00    +0.000 C 
ATOM     33  O   UNL     1     110.609 127.052 139.210  0.00  0.00    +0.000 OA
ATOM     34  O   UNL     1     108.995 127.645 140.556  0.00  0.00    +0.000 OA
ATOM     35  O   UNL     1     108.821 126.004 140.564  0.00  0.00    +0.000 OA
ATOM     36  O   UNL     1     109.838 125.062 139.670  0.00  0.00    +0.000 OA
BRANCH  28  37
ATOM     37  C   UNL     1     111.029 125.761 138.767  0.00  0.00    +0.000 C 
BRANCH  37  38
ATOM     38  O   UNL     1     111.832 125.947 138.720  0.00  0.00    +0.000 OA
BRANCH  38  44
ATOM     39  C   UNL     1     112.120 124.201 136.476  0.00  0.00    +0.000 C 
ATOM     40  C   UNL     1     112.456 124.692 137.048  0.00  0.00    +0.000 C 
ATOM     41  C   UNL     1     113.275 124.799 137.069  0.00  0.00    +0.000 C 
ATOM     42  C   UNL     1     113.611 125.289 137.641  0.00  0.00    +0.000 C 
ATOM     43  C   UNL     1     113.131 125.672 138.191  0.00  0.00    +0.000 C 
ATOM     44  C   UNL     1     112.312 125.565 138.170  0.00  0.00    +0.000 C 
ATOM     45  O   UNL     1     111.976 125.074 137.598  0.00  0.00    +0.000 OA
ATOM     46  O   UNL     1     113.467 126.162 138.763  0.00  0.00    +0.000 OA
ATOM     47  O   UNL     1     114.429 125.396 137.662  0.00  0.00    +0.000 OA
ATOM     48  O   UNL     1     113.755 124.416 136.518  0.00  0.00    +0.000 OA
ENDBRANCH  38  44
ENDBRANCH  37  38
ENDBRANCH  28  37
ENDBRANCH  27  32
ENDBRANCH   1  27
BRANCH   6  49
ATOM     49  O   UNL     1     114.433 129.846 140.556  0.00  0.00    +0.000 OA
BRANCH  49  50
ATOM     50  C   UNL     1     114.519 130.640 140.759  0.00  0.00    +0.000 C 
BRANCH  50  51
ATOM     51  C   UNL     1     115.269 130.983 140.780  0.00  0.00    +0.000 C 
ATOM     52  O   UNL     1     115.366 131.747 141.075  0.00  0.00    +0.000 OA
ENDBRANCH  50  51
ENDBRANCH  49  50
ENDBRANCH   6  49
TORSDOF 15
ENDMDL
MODEL 8
REMARK VINA RESULT:      -8.2      1.537      4.554
REMARK  Name = null
REMARK  15 active torsions:
REMARK  status: ('A' for Active; 'I' for Inactive)
REMARK    1  A    between atoms: C_6  and  O_8
REMARK    2  A    between atoms: O_8  and  C_9
REMARK    3  A    between atoms: C_9  and  C_10
REMARK    4  A    between atoms: C_14  and  O_16
REMARK    5  A    between atoms: O_16  and  C_17
REMARK    6  A    between atoms: C_18  and  C_33
REMARK    7  A    between atoms: C_22  and  O_29
REMARK    8  A    between atoms: O_29  and  C_30
REMARK    9  A    between atoms: C_30  and  C_31
REMARK   10  A    between atoms: C_35  and  O_43
REMARK   11  A    between atoms: C_36  and  O_39
REMARK   12  A    between atoms: O_39  and  C_40
REMARK   13  A    between atoms: C_40  and  C_41
REMARK   14  A    between atoms: O_43  and  C_44
REMARK   15  A    between atoms: C_44  and  C_45
REMARK                            x       y       z     vdW  Elec       q    Type
REMARK                         _______ _______ _______ _____ _____    ______ ____
ROOT
ATOM      1  C   UNL     1     112.059 128.487 136.595  0.00  0.00    +0.000 A 
ATOM      2  C   UNL     1     111.276 128.226 136.600  0.00  0.00    +0.000 A 
ATOM      3  O   UNL     1     111.110 127.419 136.554  0.00  0.00    +0.000 OA
ATOM      4  C   UNL     1     111.726 126.874 136.503  0.00  0.00    +0.000 A 
ATOM      5  C   UNL     1     111.560 126.067 136.458  0.00  0.00    +0.000 A 
ATOM      6  C   UNL     1     112.176 125.521 136.407  0.00  0.00    +0.000 A 
ATOM      7  C   UNL     1     112.960 125.783 136.403  0.00  0.00    +0.000 A 
ATOM      8  C   UNL     1     113.126 126.589 136.448  0.00  0.00    +0.000 A 
ATOM      9  C   UNL     1     112.509 127.135 136.499  0.00  0.00    +0.000 A 
ATOM     10  C   UNL     1     112.675 127.941 136.545  0.00  0.00    +0.000 A 
ATOM     11  O   UNL     1     113.458 128.202 136.540  0.00  0.00    +0.000 OA
ATOM     12  O   UNL     1     113.908 126.850 136.444  0.00  0.00    +0.000 OA
ENDROOT
BRANCH   2  13
ATOM     13  C   UNL     1     110.659 128.772 136.650  0.00  0.00    +0.000 A 
ATOM     14  C   UNL     1     110.243 128.863 137.357  0.00  0.00    +0.000 A 
ATOM     15  C   UNL     1     109.628 129.409 137.407  0.00  0.00    +0.000 A 
ATOM     16  C   UNL     1     109.427 129.865 136.750  0.00  0.00    +0.000 A 
ATOM     17  C   UNL     1     109.842 129.776 136.043  0.00  0.00    +0.000 A 
ATOM     18  C   UNL     1     110.459 129.229 135.993  0.00  0.00    +0.000 A 
BRANCH  16  19
ATOM     19  O   UNL     1     108.811 130.412 136.799  0.00  0.00    +0.000 OA
BRANCH  19  20
ATOM     20  C   UNL     1     108.438 130.674 136.111  0.00  0.00    +0.000 C 
BRANCH  20  21
ATOM     21  C   UNL     1     107.905 131.303 136.147  0.00  0.00    +0.000 C 
ATOM     22  O   UNL     1     107.157 131.229 135.809  0.00  0.00    +0.000 OA
ENDBRANCH  20  21
ENDBRANCH  19  20
ENDBRANCH  16  19
BRANCH  15  23
ATOM     23  O   UNL     1     109.212 129.499 138.113  0.00  0.00    +0.000 OA
BRANCH  23  24
ATOM     24  C   UNL     1     109.415 129.046 138.773  0.00  0.00    +0.000 C 
BRANCH  24  25
ATOM     25  C   UNL     1     109.141 129.259 139.520  0.00  0.00    +0.000 C 
ATOM     26  O   UNL     1     108.924 128.676 140.063  0.00  0.00    +0.000 OA
ENDBRANCH  24  25
ENDBRANCH  23  24
ENDBRANCH  15  23
ENDBRANCH   2  13
BRANCH   1  27
ATOM     27  O   UNL     1     112.225 129.294 136.641  0.00  0.00    +0.000 OA
BRANCH  27  32
ATOM     28  C   UNL     1     113.080 129.600 138.625  0.00  0.00    +0.000 C 
ATOM     29  C   UNL     1     113.664 130.159 138.459  0.00  0.00    +0.000 C 
ATOM     30  C   UNL     1     113.768 130.430 137.686  0.00  0.00    +0.000 C 
ATOM     31  C   UNL     1     113.288 130.142 137.080  0.00  0.00    +0.000 C 
ATOM     32  C   UNL     1     112.704 129.583 137.247  0.00  0.00    +0.000 C 
ATOM     33  O   UNL     1     112.601 129.312 138.020  0.00  0.00    +0.000 OA
ATOM     34  O   UNL     1     113.392 130.412 136.308  0.00  0.00    +0.000 OA
ATOM     35  O   UNL     1     114.351 130.989 137.520  0.00  0.00    +0.000 OA
ATOM     36  O   UNL     1     114.144 130.448 139.065  0.00  0.00    +0.000 OA
BRANCH  28  37
ATOM     37  C   UNL     1     112.977 129.330 139.398  0.00  0.00    +0.000 C 
BRANCH  37  38
ATOM     38  O   UNL     1     112.866 128.525 139.543  0.00  0.00    +0.000 OA
BRANCH  38  44
ATOM     39  C   UNL     1     111.941 129.127 142.179  0.00  0.00    +0.000 C 
ATOM     40  C   UNL     1     112.105 128.576 141.587  0.00  0.00    +0.000 C 
ATOM     41  C   UNL     1     111.970 127.772 141.723  0.00  0.00    +0.000 C 
ATOM     42  C   UNL     1     112.133 127.221 141.132  0.00  0.00    +0.000 C 
ATOM     43  C   UNL     1     112.432 127.471 140.405  0.00  0.00    +0.000 C 
ATOM     44  C   UNL     1     112.567 128.275 140.269  0.00  0.00    +0.000 C 
ATOM     45  O   UNL     1     112.403 128.826 140.861  0.00  0.00    +0.000 OA
ATOM     46  O   UNL     1     112.595 126.920 139.814  0.00  0.00    +0.000 OA
ATOM     47  O   UNL     1     111.998 126.419 141.268  0.00  0.00    +0.000 OA
ATOM     48  O   UNL     1     111.671 127.522 142.451  0.00  0.00    +0.000 OA
ENDBRANCH  38  44
ENDBRANCH  37  38
ENDBRANCH  28  37
ENDBRANCH  27  32
ENDBRANCH   1  27
BRANCH   6  49
ATOM     49  O   UNL     1     112.011 124.714 136.361  0.00  0.00    +0.000 OA
BRANCH  49  50
ATOM     50  C   UNL     1     112.013 124.253 137.045  0.00  0.00    +0.000 C 
BRANCH  50  51
ATOM     51  C   UNL     1     111.936 123.433 136.990  0.00  0.00    +0.000 C 
ATOM     52  O   UNL     1     111.760 122.989 137.662  0.00  0.00    +0.000 OA
ENDBRANCH  50  51
ENDBRANCH  49  50
ENDBRANCH   6  49
TORSDOF 15
ENDMDL
MODEL 9
REMARK VINA RESULT:      -8.1      1.787      5.176
REMARK  Name = null
REMARK  15 active torsions:
REMARK  status: ('A' for Active; 'I' for Inactive)
REMARK    1  A    between atoms: C_6  and  O_8
REMARK    2  A    between atoms: O_8  and  C_9
REMARK    3  A    between atoms: C_9  and  C_10
REMARK    4  A    between atoms: C_14  and  O_16
REMARK    5  A    between atoms: O_16  and  C_17
REMARK    6  A    between atoms: C_18  and  C_33
REMARK    7  A    between atoms: C_22  and  O_29
REMARK    8  A    between atoms: O_29  and  C_30
REMARK    9  A    between atoms: C_30  and  C_31
REMARK   10  A    between atoms: C_35  and  O_43
REMARK   11  A    between atoms: C_36  and  O_39
REMARK   12  A    between atoms: O_39  and  C_40
REMARK   13  A    between atoms: C_40  and  C_41
REMARK   14  A    between atoms: O_43  and  C_44
REMARK   15  A    between atoms: C_44  and  C_45
REMARK                            x       y       z     vdW  Elec       q    Type
REMARK                         _______ _______ _______ _____ _____    ______ ____
ROOT
ATOM      1  C   UNL     1     110.244 127.730 139.467  0.00  0.00    +0.000 A 
ATOM      2  C   UNL     1     110.873 127.398 139.886  0.00  0.00    +0.000 A 
ATOM      3  O   UNL     1     111.246 126.720 139.602  0.00  0.00    +0.000 OA
ATOM      4  C   UNL     1     110.990 126.373 138.900  0.00  0.00    +0.000 A 
ATOM      5  C   UNL     1     111.363 125.694 138.615  0.00  0.00    +0.000 A 
ATOM      6  C   UNL     1     111.107 125.347 137.912  0.00  0.00    +0.000 A 
ATOM      7  C   UNL     1     110.478 125.679 137.492  0.00  0.00    +0.000 A 
ATOM      8  C   UNL     1     110.106 126.357 137.776  0.00  0.00    +0.000 A 
ATOM      9  C   UNL     1     110.361 126.705 138.480  0.00  0.00    +0.000 A 
ATOM     10  C   UNL     1     109.989 127.383 138.764  0.00  0.00    +0.000 A 
ATOM     11  O   UNL     1     109.361 127.715 138.345  0.00  0.00    +0.000 OA
ATOM     12  O   UNL     1     109.478 126.689 137.357  0.00  0.00    +0.000 OA
ENDROOT
BRANCH   2  13
ATOM     13  C   UNL     1     111.129 127.746 140.590  0.00  0.00    +0.000 A 
ATOM     14  C   UNL     1     111.832 128.176 140.607  0.00  0.00    +0.000 A 
ATOM     15  C   UNL     1     112.087 128.524 141.310  0.00  0.00    +0.000 A 
ATOM     16  C   UNL     1     111.638 128.441 141.997  0.00  0.00    +0.000 A 
ATOM     17  C   UNL     1     110.934 128.011 141.981  0.00  0.00    +0.000 A 
ATOM     18  C   UNL     1     110.680 127.663 141.277  0.00  0.00    +0.000 A 
BRANCH  16  19
ATOM     19  O   UNL     1     111.892 128.788 142.701  0.00  0.00    +0.000 OA
BRANCH  19  20
ATOM     20  C   UNL     1     111.433 128.719 143.384  0.00  0.00    +0.000 C 
BRANCH  20  21
ATOM     21  C   UNL     1     111.641 129.136 144.064  0.00  0.00    +0.000 C 
ATOM     22  O   UNL     1     111.606 128.768 144.801  0.00  0.00    +0.000 OA
ENDBRANCH  20  21
ENDBRANCH  19  20
ENDBRANCH  16  19
BRANCH  15  23
ATOM     23  O   UNL     1     112.790 128.954 141.327  0.00  0.00    +0.000 OA
BRANCH  23  24
ATOM     24  C   UNL     1     113.416 128.741 140.833  0.00  0.00    +0.000 C 
BRANCH  24  25
ATOM     25  C   UNL     1     114.082 129.224 140.780  0.00  0.00    +0.000 C 
ATOM     26  O   UNL     1     114.832 128.888 140.700  0.00  0.00    +0.000 OA
ENDBRANCH  24  25
ENDBRANCH  23  24
ENDBRANCH  15  23
ENDBRANCH   2  13
BRANCH   1  27
ATOM     27  O   UNL     1     109.872 128.410 139.751  0.00  0.00    +0.000 OA
BRANCH  27  32
ATOM     28  C   UNL     1     110.432 129.941 138.301  0.00  0.00    +0.000 C 
ATOM     29  C   UNL     1     109.784 130.449 138.352  0.00  0.00    +0.000 C 
ATOM     30  C   UNL     1     109.164 130.277 138.870  0.00  0.00    +0.000 C 
ATOM     31  C   UNL     1     109.194 129.598 139.336  0.00  0.00    +0.000 C 
ATOM     32  C   UNL     1     109.843 129.089 139.285  0.00  0.00    +0.000 C 
ATOM     33  O   UNL     1     110.462 129.262 138.767  0.00  0.00    +0.000 OA
ATOM     34  O   UNL     1     108.575 129.425 139.854  0.00  0.00    +0.000 OA
ATOM     35  O   UNL     1     108.516 130.785 138.921  0.00  0.00    +0.000 OA
ATOM     36  O   UNL     1     109.754 131.129 137.886  0.00  0.00    +0.000 OA
BRANCH  28  37
ATOM     37  C   UNL     1     111.051 130.114 137.783  0.00  0.00    +0.000 C 
BRANCH  37  38
ATOM     38  O   UNL     1     111.826 130.151 138.063  0.00  0.00    +0.000 OA
BRANCH  38  44
ATOM     39  C   UNL     1     113.049 128.458 136.113  0.00  0.00    +0.000 C 
ATOM     40  C   UNL     1     113.067 129.135 136.583  0.00  0.00    +0.000 C 
ATOM     41  C   UNL     1     113.716 129.645 136.547  0.00  0.00    +0.000 C 
ATOM     42  C   UNL     1     113.734 130.323 137.017  0.00  0.00    +0.000 C 
ATOM     43  C   UNL     1     113.104 130.492 137.523  0.00  0.00    +0.000 C 
ATOM     44  C   UNL     1     112.455 129.982 137.558  0.00  0.00    +0.000 C 
ATOM     45  O   UNL     1     112.437 129.304 137.088  0.00  0.00    +0.000 OA
ATOM     46  O   UNL     1     113.122 131.169 137.992  0.00  0.00    +0.000 OA
ATOM     47  O   UNL     1     114.382 130.832 136.981  0.00  0.00    +0.000 OA
ATOM     48  O   UNL     1     114.345 129.476 136.042  0.00  0.00    +0.000 OA
ENDBRANCH  38  44
ENDBRANCH  37  38
ENDBRANCH  28  37
ENDBRANCH  27  32
ENDBRANCH   1  27
BRANCH   6  49
ATOM     49  O   UNL     1     111.480 124.667 137.627  0.00  0.00    +0.000 OA
BRANCH  49  50
ATOM     50  C   UNL     1     112.141 124.733 137.140  0.00  0.00    +0.000 C 
BRANCH  50  51
ATOM     51  C   UNL     1     112.496 124.054 136.831  0.00  0.00    +0.000 C 
ATOM     52  O   UNL     1     113.227 124.106 136.455  0.00  0.00    +0.000 OA
ENDBRANCH  50  51
ENDBRANCH  49  50
ENDBRANCH   6  49
TORSDOF 15
ENDMDL
MODEL 10
REMARK VINA RESULT:      -8.1      1.628      4.398
REMARK  Name = null
REMARK  15 active torsions:
REMARK  status: ('A' for Active; 'I' for Inactive)
REMARK    1  A    between atoms: C_6  and  O_8
REMARK    2  A    between atoms: O_8  and  C_9
REMARK    3  A    between atoms: C_9  and  C_10
REMARK    4  A    between atoms: C_14  and  O_16
REMARK    5  A    between atoms: O_16  and  C_17
REMARK    6  A    between atoms: C_18  and  C_33
REMARK    7  A    between atoms: C_22  and  O_29
REMARK    8  A    between atoms: O_29  and  C_30
REMARK    9  A    between atoms: C_30  and  C_31
REMARK   10  A    between atoms: C_35  and  O_43
REMARK   11  A    between atoms: C_36  and  O_39
REMARK   12  A    between atoms: O_39  and  C_40
REMARK   13  A    between atoms: C_40  and  C_41
REMARK   14  A    between atoms: O_43  and  C_44
REMARK   15  A    between atoms: C_44  and  C_45
REMARK                            x       y       z     vdW  Elec       q    Type
REMARK                         _______ _______ _______ _____ _____    ______ ____
ROOT
ATOM      1  C   UNL     1     112.626 128.270 138.441  0.00  0.00    +0.000 A 
ATOM      2  C   UNL     1     112.151 127.821 138.946  0.00  0.00    +0.000 A 
ATOM      3  O   UNL     1     111.878 127.081 138.706  0.00  0.00    +0.000 OA
ATOM      4  C   UNL     1     112.080 126.788 137.963  0.00  0.00    +0.000 A 
ATOM      5  C   UNL     1     111.808 126.047 137.722  0.00  0.00    +0.000 A 
ATOM      6  C   UNL     1     112.010 125.754 136.979  0.00  0.00    +0.000 A 
ATOM      7  C   UNL     1     112.485 126.203 136.474  0.00  0.00    +0.000 A 
ATOM      8  C   UNL     1     112.758 126.943 136.713  0.00  0.00    +0.000 A 
ATOM      9  C   UNL     1     112.556 127.237 137.458  0.00  0.00    +0.000 A 
ATOM     10  C   UNL     1     112.828 127.977 137.697  0.00  0.00    +0.000 A 
ATOM     11  O   UNL     1     113.303 128.425 137.193  0.00  0.00    +0.000 OA
ATOM     12  O   UNL     1     113.233 127.391 136.209  0.00  0.00    +0.000 OA
ENDROOT
BRANCH   2  13
ATOM     13  C   UNL     1     111.949 128.115 139.690  0.00  0.00    +0.000 A 
ATOM     14  C   UNL     1     111.169 128.329 139.853  0.00  0.00    +0.000 A 
ATOM     15  C   UNL     1     110.968 128.622 140.597  0.00  0.00    +0.000 A 
ATOM     16  C   UNL     1     111.546 128.702 141.179  0.00  0.00    +0.000 A 
ATOM     17  C   UNL     1     112.327 128.488 141.018  0.00  0.00    +0.000 A 
ATOM     18  C   UNL     1     112.528 128.194 140.273  0.00  0.00    +0.000 A 
BRANCH  16  19
ATOM     19  O   UNL     1     111.346 128.995 141.924  0.00  0.00    +0.000 OA
BRANCH  19  20
ATOM     20  C   UNL     1     111.798 128.789 142.583  0.00  0.00    +0.000 C 
BRANCH  20  21
ATOM     21  C   UNL     1     111.636 129.130 143.316  0.00  0.00    +0.000 C 
ATOM     22  O   UNL     1     111.615 128.662 143.994  0.00  0.00    +0.000 OA
ENDBRANCH  20  21
ENDBRANCH  19  20
ENDBRANCH  16  19
BRANCH  15  23
ATOM     23  O   UNL     1     110.188 128.836 140.759  0.00  0.00    +0.000 OA
BRANCH  23  24
ATOM     24  C   UNL     1     109.692 129.084 140.148  0.00  0.00    +0.000 C 
BRANCH  24  25
ATOM     25  C   UNL     1     108.907 129.281 140.307  0.00  0.00    +0.000 C 
ATOM     26  O   UNL     1     108.480 129.743 139.773  0.00  0.00    +0.000 OA
ENDBRANCH  24  25
ENDBRANCH  23  24
ENDBRANCH  15  23
ENDBRANCH   2  13
BRANCH   1  27
ATOM     27  O   UNL     1     112.899 129.011 138.681  0.00  0.00    +0.000 OA
BRANCH  27  32
ATOM     28  C   UNL     1     111.834 130.465 137.450  0.00  0.00    +0.000 C 
ATOM     29  C   UNL     1     112.437 131.007 137.293  0.00  0.00    +0.000 C 
ATOM     30  C   UNL     1     113.194 130.883 137.600  0.00  0.00    +0.000 C 
ATOM     31  C   UNL     1     113.347 130.218 138.062  0.00  0.00    +0.000 C 
ATOM     32  C   UNL     1     112.745 129.676 138.219  0.00  0.00    +0.000 C 
ATOM     33  O   UNL     1     111.988 129.800 137.913  0.00  0.00    +0.000 OA
ATOM     34  O   UNL     1     114.103 130.094 138.368  0.00  0.00    +0.000 OA
ATOM     35  O   UNL     1     113.795 131.425 137.442  0.00  0.00    +0.000 OA
ATOM     36  O   UNL     1     112.283 131.673 136.831  0.00  0.00    +0.000 OA
BRANCH  28  37
ATOM     37  C   UNL     1     111.079 130.589 137.144  0.00  0.00    +0.000 C 
BRANCH  37  38
ATOM     38  O   UNL     1     110.622 129.948 136.897  0.00  0.00    +0.000 OA
BRANCH  38  44
ATOM     39  C   UNL     1     108.392 131.688 136.488  0.00  0.00    +0.000 C 
ATOM     40  C   UNL     1     108.731 130.937 136.443  0.00  0.00    +0.000 C 
ATOM     41  C   UNL     1     108.290 130.303 136.149  0.00  0.00    +0.000 C 
ATOM     42  C   UNL     1     108.627 129.552 136.104  0.00  0.00    +0.000 C 
ATOM     43  C   UNL     1     109.405 129.433 136.353  0.00  0.00    +0.000 C 
ATOM     44  C   UNL     1     109.846 130.067 136.648  0.00  0.00    +0.000 C 
ATOM     45  O   UNL     1     109.507 130.818 136.692  0.00  0.00    +0.000 OA
ATOM     46  O   UNL     1     109.742 128.682 136.309  0.00  0.00    +0.000 OA
ATOM     47  O   UNL     1     108.187 128.919 135.810  0.00  0.00    +0.000 OA
ATOM     48  O   UNL     1     107.512 130.422 135.900  0.00  0.00    +0.000 OA
ENDBRANCH  38  44
ENDBRANCH  37  38
ENDBRANCH  28  37
ENDBRANCH  27  32
ENDBRANCH   1  27
BRANCH   6  49
ATOM     49  O   UNL     1     111.738 125.014 136.738  0.00  0.00    +0.000 OA
BRANCH  49  50
ATOM     50  C   UNL     1     112.102 124.329 137.018  0.00  0.00    +0.000 C 
BRANCH  50  51
ATOM     51  C   UNL     1     111.892 123.593 136.708  0.00  0.00    +0.000 C 
ATOM     52  O   UNL     1     111.990 122.912 137.162  0.00  0.00    +0.000 OA
ENDBRANCH  50  51
ENDBRANCH  49  50
ENDBRANCH   6  49
TORSDOF 15
ENDMDL
