MODEL 1
REMARK VINA RESULT:      -8.6      0.000      0.000
REMARK  Name = 5360930
REMARK  2 active torsions:
REMARK  status: ('A' for Active; 'I' for Inactive)
REMARK    1  A    between atoms: O_2  and  C_10
REMARK    2  A    between atoms: C_9  and  C_14
REMARK                            x       y       z     vdW  Elec       q    Type
REMARK                         _______ _______ _______ _____ _____    ______ ____
ROOT
ATOM      1  O   UNL     1     105.546 124.458 147.796  0.00  0.00    +0.000 OA
ATOM      2  O   UNL     1     108.086 125.532 146.935  0.00  0.00    +0.000 OA
ATOM      3  O   UNL     1     106.199 124.056 149.287  0.00  0.00    +0.000 OA
ATOM      4  O   UNL     1     106.937 125.546 146.063  0.00  0.00    +0.000 OA
ATOM      5  O   UNL     1     107.822 124.395 149.612  0.00  0.00    +0.000 OA
ATOM      6  C   UNL     1     106.802 124.989 147.372  0.00  0.00    +0.000 A 
ATOM      7  C   UNL     1     106.339 124.626 147.950  0.00  0.00    +0.000 A 
ATOM      8  C   UNL     1     105.216 124.652 147.066  0.00  0.00    +0.000 A 
ATOM      9  C   UNL     1     105.680 125.015 146.488  0.00  0.00    +0.000 A 
ATOM     10  C   UNL     1     106.473 125.183 146.641  0.00  0.00    +0.000 A 
ATOM     11  C   UNL     1     107.630 125.169 147.519  0.00  0.00    +0.000 A 
ATOM     12  C   UNL     1     106.671 124.418 148.715  0.00  0.00    +0.000 A 
ATOM     13  C   UNL     1     107.496 124.591 148.880  0.00  0.00    +0.000 A 
ATOM     14  C   UNL     1     107.978 124.969 148.278  0.00  0.00    +0.000 A 
ENDROOT
BRANCH   8  15
ATOM     15  C   UNL     1     104.424 124.485 146.912  0.00  0.00    +0.000 A 
ATOM     16  C   UNL     1     104.217 123.783 146.528  0.00  0.00    +0.000 A 
ATOM     17  C   UNL     1     103.837 125.017 147.143  0.00  0.00    +0.000 A 
ATOM     18  C   UNL     1     103.424 123.616 146.375  0.00  0.00    +0.000 A 
ATOM     19  C   UNL     1     103.044 124.849 146.990  0.00  0.00    +0.000 A 
ATOM     20  C   UNL     1     102.838 124.147 146.605  0.00  0.00    +0.000 A 
ENDBRANCH   8  15
BRANCH   9  21
ATOM     21  O   UNL     1     105.351 125.210 145.757  0.00  0.00    +0.000 OA
ATOM     22  C   UNL     1     105.838 125.451 145.136  0.00  0.00    +0.000 C 
ENDBRANCH   9  21
TORSDOF 2
ENDMDL
MODEL 2
REMARK VINA RESULT:      -8.4     12.389     13.365
REMARK  Name = 5360930
REMARK  2 active torsions:
REMARK  status: ('A' for Active; 'I' for Inactive)
REMARK    1  A    between atoms: O_2  and  C_10
REMARK    2  A    between atoms: C_9  and  C_14
REMARK                            x       y       z     vdW  Elec       q    Type
REMARK                         _______ _______ _______ _____ _____    ______ ____
ROOT
ATOM      1  O   UNL     1     112.462 126.400 136.214  0.00  0.00    +0.000 OA
ATOM      2  O   UNL     1     109.980 125.419 135.109  0.00  0.00    +0.000 OA
ATOM      3  O   UNL     1     112.088 127.958 135.724  0.00  0.00    +0.000 OA
ATOM      4  O   UNL     1     110.907 124.528 135.761  0.00  0.00    +0.000 OA
ATOM      5  O   UNL     1     110.636 128.257 134.912  0.00  0.00    +0.000 OA
ATOM      6  C   UNL     1     111.234 125.916 135.668  0.00  0.00    +0.000 A 
ATOM      7  C   UNL     1     111.752 126.540 135.819  0.00  0.00    +0.000 A 
ATOM      8  C   UNL     1     112.654 125.636 136.460  0.00  0.00    +0.000 A 
ATOM      9  C   UNL     1     112.136 125.012 136.309  0.00  0.00    +0.000 A 
ATOM     10  C   UNL     1     111.426 125.153 135.913  0.00  0.00    +0.000 A 
ATOM     11  C   UNL     1     110.491 126.049 135.256  0.00  0.00    +0.000 A 
ATOM     12  C   UNL     1     111.563 127.341 135.568  0.00  0.00    +0.000 A 
ATOM     13  C   UNL     1     110.826 127.492 135.156  0.00  0.00    +0.000 A 
ATOM     14  C   UNL     1     110.286 126.843 134.998  0.00  0.00    +0.000 A 
ENDROOT
BRANCH   8  15
ATOM     15  C   UNL     1     113.364 125.496 136.855  0.00  0.00    +0.000 A 
ATOM     16  C   UNL     1     114.025 125.231 136.437  0.00  0.00    +0.000 A 
ATOM     17  C   UNL     1     113.415 125.620 137.670  0.00  0.00    +0.000 A 
ATOM     18  C   UNL     1     114.735 125.091 136.833  0.00  0.00    +0.000 A 
ATOM     19  C   UNL     1     114.124 125.480 138.065  0.00  0.00    +0.000 A 
ATOM     20  C   UNL     1     114.785 125.215 137.647  0.00  0.00    +0.000 A 
ENDBRANCH   8  15
BRANCH   9  21
ATOM     21  O   UNL     1     112.328 124.249 136.554  0.00  0.00    +0.000 OA
ATOM     22  C   UNL     1     111.731 123.690 136.671  0.00  0.00    +0.000 C 
ENDBRANCH   9  21
TORSDOF 2
ENDMDL
MODEL 3
REMARK VINA RESULT:      -8.4      1.353      3.897
REMARK  Name = 5360930
REMARK  2 active torsions:
REMARK  status: ('A' for Active; 'I' for Inactive)
REMARK    1  A    between atoms: O_2  and  C_10
REMARK    2  A    between atoms: C_9  and  C_14
REMARK                            x       y       z     vdW  Elec       q    Type
REMARK                         _______ _______ _______ _____ _____    ______ ____
ROOT
ATOM      1  O   UNL     1     105.505 124.423 147.374  0.00  0.00    +0.000 OA
ATOM      2  O   UNL     1     102.892 125.562 147.841  0.00  0.00    +0.000 OA
ATOM      3  O   UNL     1     104.893 123.474 146.136  0.00  0.00    +0.000 OA
ATOM      4  O   UNL     1     104.030 125.963 148.630  0.00  0.00    +0.000 OA
ATOM      5  O   UNL     1     103.252 123.566 145.740  0.00  0.00    +0.000 OA
ATOM      6  C   UNL     1     104.212 124.986 147.604  0.00  0.00    +0.000 A 
ATOM      7  C   UNL     1     104.704 124.472 147.185  0.00  0.00    +0.000 A 
ATOM      8  C   UNL     1     105.816 124.887 147.982  0.00  0.00    +0.000 A 
ATOM      9  C   UNL     1     105.324 125.400 148.401  0.00  0.00    +0.000 A 
ATOM     10  C   UNL     1     104.522 125.449 148.211  0.00  0.00    +0.000 A 
ATOM     11  C   UNL     1     103.376 125.046 147.416  0.00  0.00    +0.000 A 
ATOM     12  C   UNL     1     104.393 123.984 146.549  0.00  0.00    +0.000 A 
ATOM     13  C   UNL     1     103.559 124.031 146.348  0.00  0.00    +0.000 A 
ATOM     14  C   UNL     1     103.047 124.565 146.784  0.00  0.00    +0.000 A 
ENDROOT
BRANCH   8  15
ATOM     15  C   UNL     1     106.617 124.838 148.171  0.00  0.00    +0.000 A 
ATOM     16  C   UNL     1     106.860 124.393 148.823  0.00  0.00    +0.000 A 
ATOM     17  C   UNL     1     107.175 125.232 147.709  0.00  0.00    +0.000 A 
ATOM     18  C   UNL     1     107.662 124.344 149.012  0.00  0.00    +0.000 A 
ATOM     19  C   UNL     1     107.976 125.183 147.898  0.00  0.00    +0.000 A 
ATOM     20  C   UNL     1     108.220 124.739 148.550  0.00  0.00    +0.000 A 
ENDBRANCH   8  15
BRANCH   9  21
ATOM     21  O   UNL     1     105.634 125.864 149.008  0.00  0.00    +0.000 OA
ATOM     22  C   UNL     1     105.273 126.580 149.205  0.00  0.00    +0.000 C 
ENDBRANCH   9  21
TORSDOF 2
ENDMDL
MODEL 4
REMARK VINA RESULT:      -8.3     12.601     13.459
REMARK  Name = 5360930
REMARK  2 active torsions:
REMARK  status: ('A' for Active; 'I' for Inactive)
REMARK    1  A    between atoms: O_2  and  C_10
REMARK    2  A    between atoms: C_9  and  C_14
REMARK                            x       y       z     vdW  Elec       q    Type
REMARK                         _______ _______ _______ _____ _____    ______ ____
ROOT
ATOM      1  O   UNL     1     112.121 125.732 136.158  0.00  0.00    +0.000 OA
ATOM      2  O   UNL     1     110.861 128.128 135.149  0.00  0.00    +0.000 OA
ATOM      3  O   UNL     1     110.842 124.802 135.604  0.00  0.00    +0.000 OA
ATOM      4  O   UNL     1     112.136 128.184 135.822  0.00  0.00    +0.000 OA
ATOM      5  O   UNL     1     109.547 125.543 134.809  0.00  0.00    +0.000 OA
ATOM      6  C   UNL     1     111.498 126.916 135.659  0.00  0.00    +0.000 A 
ATOM      7  C   UNL     1     111.493 126.099 135.770  0.00  0.00    +0.000 A 
ATOM      8  C   UNL     1     112.756 126.182 136.434  0.00  0.00    +0.000 A 
ATOM      9  C   UNL     1     112.761 126.999 136.322  0.00  0.00    +0.000 A 
ATOM     10  C   UNL     1     112.131 127.366 135.934  0.00  0.00    +0.000 A 
ATOM     11  C   UNL     1     110.848 127.310 135.256  0.00  0.00    +0.000 A 
ATOM     12  C   UNL     1     110.838 125.619 135.488  0.00  0.00    +0.000 A 
ATOM     13  C   UNL     1     110.180 125.995 135.084  0.00  0.00    +0.000 A 
ATOM     14  C   UNL     1     110.185 126.847 134.967  0.00  0.00    +0.000 A 
ENDROOT
BRANCH   8  15
ATOM     15  C   UNL     1     113.384 125.815 136.821  0.00  0.00    +0.000 A 
ATOM     16  C   UNL     1     113.397 125.780 137.646  0.00  0.00    +0.000 A 
ATOM     17  C   UNL     1     114.002 125.484 136.385  0.00  0.00    +0.000 A 
ATOM     18  C   UNL     1     114.027 125.413 138.033  0.00  0.00    +0.000 A 
ATOM     19  C   UNL     1     114.630 125.117 136.772  0.00  0.00    +0.000 A 
ATOM     20  C   UNL     1     114.643 125.082 137.597  0.00  0.00    +0.000 A 
ENDBRANCH   8  15
BRANCH   9  21
ATOM     21  O   UNL     1     113.394 127.449 136.597  0.00  0.00    +0.000 OA
ATOM     22  C   UNL     1     113.549 128.190 136.267  0.00  0.00    +0.000 C 
ENDBRANCH   9  21
TORSDOF 2
ENDMDL
MODEL 5
REMARK VINA RESULT:      -8.1     11.081     12.505
REMARK  Name = 5360930
REMARK  2 active torsions:
REMARK  status: ('A' for Active; 'I' for Inactive)
REMARK    1  A    between atoms: O_2  and  C_10
REMARK    2  A    between atoms: C_9  and  C_14
REMARK                            x       y       z     vdW  Elec       q    Type
REMARK                         _______ _______ _______ _____ _____    ______ ____
ROOT
ATOM      1  O   UNL     1     112.469 125.554 136.306  0.00  0.00    +0.000 OA
ATOM      2  O   UNL     1     113.400 126.397 138.908  0.00  0.00    +0.000 OA
ATOM      3  O   UNL     1     113.840 124.613 136.098  0.00  0.00    +0.000 OA
ATOM      4  O   UNL     1     112.145 126.870 138.378  0.00  0.00    +0.000 OA
ATOM      5  O   UNL     1     115.014 124.559 137.312  0.00  0.00    +0.000 OA
ATOM      6  C   UNL     1     112.930 125.970 137.592  0.00  0.00    +0.000 A 
ATOM      7  C   UNL     1     113.038 125.532 136.902  0.00  0.00    +0.000 A 
ATOM      8  C   UNL     1     111.790 126.015 136.400  0.00  0.00    +0.000 A 
ATOM      9  C   UNL     1     111.683 126.454 137.091  0.00  0.00    +0.000 A 
ATOM     10  C   UNL     1     112.253 126.431 137.687  0.00  0.00    +0.000 A 
ATOM     11  C   UNL     1     113.517 125.955 138.221  0.00  0.00    +0.000 A 
ATOM     12  C   UNL     1     113.740 125.048 136.792  0.00  0.00    +0.000 A 
ATOM     13  C   UNL     1     114.337 125.021 137.409  0.00  0.00    +0.000 A 
ATOM     14  C   UNL     1     114.225 125.478 138.128  0.00  0.00    +0.000 A 
ENDROOT
BRANCH   8  15
ATOM     15  C   UNL     1     111.221 126.038 135.805  0.00  0.00    +0.000 A 
ATOM     16  C   UNL     1     110.666 125.429 135.741  0.00  0.00    +0.000 A 
ATOM     17  C   UNL     1     111.204 126.668 135.272  0.00  0.00    +0.000 A 
ATOM     18  C   UNL     1     110.096 125.452 135.145  0.00  0.00    +0.000 A 
ATOM     19  C   UNL     1     110.635 126.690 134.677  0.00  0.00    +0.000 A 
ATOM     20  C   UNL     1     110.080 126.081 134.613  0.00  0.00    +0.000 A 
ENDBRANCH   8  15
BRANCH   9  21
ATOM     21  O   UNL     1     111.005 126.914 137.185  0.00  0.00    +0.000 OA
ATOM     22  C   UNL     1     110.784 127.173 137.937  0.00  0.00    +0.000 C 
ENDBRANCH   9  21
TORSDOF 2
ENDMDL
MODEL 6
REMARK VINA RESULT:      -8.0      9.795     11.631
REMARK  Name = 5360930
REMARK  2 active torsions:
REMARK  status: ('A' for Active; 'I' for Inactive)
REMARK    1  A    between atoms: O_2  and  C_10
REMARK    2  A    between atoms: C_9  and  C_14
REMARK                            x       y       z     vdW  Elec       q    Type
REMARK                         _______ _______ _______ _____ _____    ______ ____
ROOT
ATOM      1  O   UNL     1     113.604 126.306 138.857  0.00  0.00    +0.000 OA
ATOM      2  O   UNL     1     110.970 126.228 140.039  0.00  0.00    +0.000 OA
ATOM      3  O   UNL     1     114.189 127.169 140.169  0.00  0.00    +0.000 OA
ATOM      4  O   UNL     1     111.230 125.613 138.761  0.00  0.00    +0.000 OA
ATOM      5  O   UNL     1     113.151 127.571 141.441  0.00  0.00    +0.000 OA
ATOM      6  C   UNL     1     112.302 126.268 139.442  0.00  0.00    +0.000 A 
ATOM      7  C   UNL     1     113.093 126.499 139.474  0.00  0.00    +0.000 A 
ATOM      8  C   UNL     1     113.325 125.882 138.206  0.00  0.00    +0.000 A 
ATOM      9  C   UNL     1     112.534 125.651 138.174  0.00  0.00    +0.000 A 
ATOM     10  C   UNL     1     112.023 125.844 138.793  0.00  0.00    +0.000 A 
ATOM     11  C   UNL     1     111.759 126.464 140.080  0.00  0.00    +0.000 A 
ATOM     12  C   UNL     1     113.397 126.942 140.146  0.00  0.00    +0.000 A 
ATOM     13  C   UNL     1     112.869 127.146 140.792  0.00  0.00    +0.000 A 
ATOM     14  C   UNL     1     112.045 126.905 140.759  0.00  0.00    +0.000 A 
ENDROOT
BRANCH   8  15
ATOM     15  C   UNL     1     113.836 125.689 137.589  0.00  0.00    +0.000 A 
ATOM     16  C   UNL     1     113.887 126.179 136.927  0.00  0.00    +0.000 A 
ATOM     17  C   UNL     1     114.297 125.005 137.632  0.00  0.00    +0.000 A 
ATOM     18  C   UNL     1     114.399 125.986 136.309  0.00  0.00    +0.000 A 
ATOM     19  C   UNL     1     114.808 124.812 137.015  0.00  0.00    +0.000 A 
ATOM     20  C   UNL     1     114.859 125.303 136.352  0.00  0.00    +0.000 A 
ENDBRANCH   8  15
BRANCH   9  21
ATOM     21  O   UNL     1     112.254 125.226 137.525  0.00  0.00    +0.000 OA
ATOM     22  C   UNL     1     111.571 124.768 137.595  0.00  0.00    +0.000 C 
ENDBRANCH   9  21
TORSDOF 2
ENDMDL
MODEL 7
REMARK VINA RESULT:      -7.9      1.972      3.675
REMARK  Name = 5360930
REMARK  2 active torsions:
REMARK  status: ('A' for Active; 'I' for Inactive)
REMARK    1  A    between atoms: O_2  and  C_10
REMARK    2  A    between atoms: C_9  and  C_14
REMARK                            x       y       z     vdW  Elec       q    Type
REMARK                         _______ _______ _______ _____ _____    ______ ____
ROOT
ATOM      1  O   UNL     1     106.518 125.074 146.522  0.00  0.00    +0.000 OA
ATOM      2  O   UNL     1     105.220 127.395 145.395  0.00  0.00    +0.000 OA
ATOM      3  O   UNL     1     106.434 124.285 145.046  0.00  0.00    +0.000 OA
ATOM      4  O   UNL     1     105.623 127.367 146.779  0.00  0.00    +0.000 OA
ATOM      5  O   UNL     1     105.732 125.060 143.718  0.00  0.00    +0.000 OA
ATOM      6  C   UNL     1     105.876 126.221 145.964  0.00  0.00    +0.000 A 
ATOM      7  C   UNL     1     106.175 125.456 145.878  0.00  0.00    +0.000 A 
ATOM      8  C   UNL     1     106.564 125.454 147.253  0.00  0.00    +0.000 A 
ATOM      9  C   UNL     1     106.265 126.218 147.339  0.00  0.00    +0.000 A 
ATOM     10  C   UNL     1     105.922 126.601 146.693  0.00  0.00    +0.000 A 
ATOM     11  C   UNL     1     105.516 126.631 145.299  0.00  0.00    +0.000 A 
ATOM     12  C   UNL     1     106.133 125.049 145.122  0.00  0.00    +0.000 A 
ATOM     13  C   UNL     1     105.776 125.443 144.447  0.00  0.00    +0.000 A 
ATOM     14  C   UNL     1     105.466 126.239 144.536  0.00  0.00    +0.000 A 
ENDROOT
BRANCH   8  15
ATOM     15  C   UNL     1     106.907 125.071 147.897  0.00  0.00    +0.000 A 
ATOM     16  C   UNL     1     106.437 124.633 148.416  0.00  0.00    +0.000 A 
ATOM     17  C   UNL     1     107.721 125.125 148.024  0.00  0.00    +0.000 A 
ATOM     18  C   UNL     1     106.781 124.250 149.061  0.00  0.00    +0.000 A 
ATOM     19  C   UNL     1     108.064 124.742 148.668  0.00  0.00    +0.000 A 
ATOM     20  C   UNL     1     107.594 124.304 149.187  0.00  0.00    +0.000 A 
ENDBRANCH   8  15
BRANCH   9  21
ATOM     21  O   UNL     1     106.311 126.599 148.068  0.00  0.00    +0.000 OA
ATOM     22  C   UNL     1     105.736 127.153 148.282  0.00  0.00    +0.000 C 
ENDBRANCH   9  21
TORSDOF 2
ENDMDL
MODEL 8
REMARK VINA RESULT:      -7.9      1.385      2.303
REMARK  Name = 5360930
REMARK  2 active torsions:
REMARK  status: ('A' for Active; 'I' for Inactive)
REMARK    1  A    between atoms: O_2  and  C_10
REMARK    2  A    between atoms: C_9  and  C_14
REMARK                            x       y       z     vdW  Elec       q    Type
REMARK                         _______ _______ _______ _____ _____    ______ ____
ROOT
ATOM      1  O   UNL     1     103.567 124.313 147.584  0.00  0.00    +0.000 OA
ATOM      2  O   UNL     1     106.150 124.551 146.313  0.00  0.00    +0.000 OA
ATOM      3  O   UNL     1     104.163 125.032 148.976  0.00  0.00    +0.000 OA
ATOM      4  O   UNL     1     105.032 123.959 145.621  0.00  0.00    +0.000 OA
ATOM      5  O   UNL     1     105.780 125.520 149.043  0.00  0.00    +0.000 OA
ATOM      6  C   UNL     1     104.845 124.431 146.957  0.00  0.00    +0.000 A 
ATOM      7  C   UNL     1     104.356 124.549 147.611  0.00  0.00    +0.000 A 
ATOM      8  C   UNL     1     103.265 123.959 146.903  0.00  0.00    +0.000 A 
ATOM      9  C   UNL     1     103.753 123.841 146.248  0.00  0.00    +0.000 A 
ATOM     10  C   UNL     1     104.543 124.077 146.276  0.00  0.00    +0.000 A 
ATOM     11  C   UNL     1     105.670 124.673 146.973  0.00  0.00    +0.000 A 
ATOM     12  C   UNL     1     104.659 124.918 148.326  0.00  0.00    +0.000 A 
ATOM     13  C   UNL     1     105.481 125.166 148.360  0.00  0.00    +0.000 A 
ATOM     14  C   UNL     1     105.989 125.043 147.679  0.00  0.00    +0.000 A 
ENDROOT
BRANCH   8  15
ATOM     15  C   UNL     1     102.475 123.723 146.876  0.00  0.00    +0.000 A 
ATOM     16  C   UNL     1     101.902 124.234 146.573  0.00  0.00    +0.000 A 
ATOM     17  C   UNL     1     102.257 122.976 147.151  0.00  0.00    +0.000 A 
ATOM     18  C   UNL     1     101.112 123.997 146.546  0.00  0.00    +0.000 A 
ATOM     19  C   UNL     1     101.468 122.740 147.124  0.00  0.00    +0.000 A 
ATOM     20  C   UNL     1     100.894 123.251 146.821  0.00  0.00    +0.000 A 
ENDBRANCH   8  15
BRANCH   9  21
ATOM     21  O   UNL     1     103.451 123.486 145.568  0.00  0.00    +0.000 OA
ATOM     22  C   UNL     1     103.953 123.067 145.064  0.00  0.00    +0.000 C 
ENDBRANCH   9  21
TORSDOF 2
ENDMDL
MODEL 9
REMARK VINA RESULT:      -7.8      1.617      3.812
REMARK  Name = 5360930
REMARK  2 active torsions:
REMARK  status: ('A' for Active; 'I' for Inactive)
REMARK    1  A    between atoms: O_2  and  C_10
REMARK    2  A    between atoms: C_9  and  C_14
REMARK                            x       y       z     vdW  Elec       q    Type
REMARK                         _______ _______ _______ _____ _____    ______ ____
ROOT
ATOM      1  O   UNL     1     104.084 124.276 147.381  0.00  0.00    +0.000 OA
ATOM      2  O   UNL     1     103.250 123.037 144.908  0.00  0.00    +0.000 OA
ATOM      3  O   UNL     1     102.656 123.806 148.122  0.00  0.00    +0.000 OA
ATOM      4  O   UNL     1     104.522 123.708 145.012  0.00  0.00    +0.000 OA
ATOM      5  O   UNL     1     101.501 122.937 147.245  0.00  0.00    +0.000 OA
ATOM      6  C   UNL     1     103.670 123.663 146.159  0.00  0.00    +0.000 A 
ATOM      7  C   UNL     1     103.524 123.852 146.949  0.00  0.00    +0.000 A 
ATOM      8  C   UNL     1     104.790 124.511 147.025  0.00  0.00    +0.000 A 
ATOM      9  C   UNL     1     104.936 124.322 146.235  0.00  0.00    +0.000 A 
ATOM     10  C   UNL     1     104.376 123.898 145.803  0.00  0.00    +0.000 A 
ATOM     11  C   UNL     1     103.095 123.221 145.697  0.00  0.00    +0.000 A 
ATOM     12  C   UNL     1     102.793 123.613 147.331  0.00  0.00    +0.000 A 
ATOM     13  C   UNL     1     102.206 123.171 146.886  0.00  0.00    +0.000 A 
ATOM     14  C   UNL     1     102.358 122.974 146.063  0.00  0.00    +0.000 A 
ENDROOT
BRANCH   8  15
ATOM     15  C   UNL     1     105.350 124.934 147.457  0.00  0.00    +0.000 A 
ATOM     16  C   UNL     1     105.301 125.758 147.501  0.00  0.00    +0.000 A 
ATOM     17  C   UNL     1     105.959 124.537 147.847  0.00  0.00    +0.000 A 
ATOM     18  C   UNL     1     105.861 126.181 147.934  0.00  0.00    +0.000 A 
ATOM     19  C   UNL     1     106.518 124.960 148.280  0.00  0.00    +0.000 A 
ATOM     20  C   UNL     1     106.469 125.784 148.323  0.00  0.00    +0.000 A 
ENDBRANCH   8  15
BRANCH   9  21
ATOM     21  O   UNL     1     105.641 124.557 145.879  0.00  0.00    +0.000 OA
ATOM     22  C   UNL     1     105.672 124.675 145.062  0.00  0.00    +0.000 C 
ENDBRANCH   9  21
TORSDOF 2
ENDMDL
MODEL 10
REMARK VINA RESULT:      -7.8      1.450      2.884
REMARK  Name = 5360930
REMARK  2 active torsions:
REMARK  status: ('A' for Active; 'I' for Inactive)
REMARK    1  A    between atoms: O_2  and  C_10
REMARK    2  A    between atoms: C_9  and  C_14
REMARK                            x       y       z     vdW  Elec       q    Type
REMARK                         _______ _______ _______ _____ _____    ______ ____
ROOT
ATOM      1  O   UNL     1     103.908 124.265 146.091  0.00  0.00    +0.000 OA
ATOM      2  O   UNL     1     106.046 125.168 147.809  0.00  0.00    +0.000 OA
ATOM      3  O   UNL     1     104.859 124.526 144.736  0.00  0.00    +0.000 OA
ATOM      4  O   UNL     1     104.783 124.738 148.357  0.00  0.00    +0.000 OA
ATOM      5  O   UNL     1     106.432 125.119 144.915  0.00  0.00    +0.000 OA
ATOM      6  C   UNL     1     104.966 124.712 146.940  0.00  0.00    +0.000 A 
ATOM      7  C   UNL     1     104.674 124.554 146.184  0.00  0.00    +0.000 A 
ATOM      8  C   UNL     1     103.432 124.133 146.752  0.00  0.00    +0.000 A 
ATOM      9  C   UNL     1     103.724 124.291 147.507  0.00  0.00    +0.000 A 
ATOM     10  C   UNL     1     104.491 124.580 147.600  0.00  0.00    +0.000 A 
ATOM     11  C   UNL     1     105.763 125.014 147.050  0.00  0.00    +0.000 A 
ATOM     12  C   UNL     1     105.160 124.687 145.487  0.00  0.00    +0.000 A 
ATOM     13  C   UNL     1     105.959 124.988 145.579  0.00  0.00    +0.000 A 
ATOM     14  C   UNL     1     106.263 125.152 146.365  0.00  0.00    +0.000 A 
ENDROOT
BRANCH   8  15
ATOM     15  C   UNL     1     102.666 123.844 146.658  0.00  0.00    +0.000 A 
ATOM     16  C   UNL     1     102.535 123.030 146.610  0.00  0.00    +0.000 A 
ATOM     17  C   UNL     1     102.029 124.367 146.613  0.00  0.00    +0.000 A 
ATOM     18  C   UNL     1     101.767 122.741 146.517  0.00  0.00    +0.000 A 
ATOM     19  C   UNL     1     101.263 124.078 146.519  0.00  0.00    +0.000 A 
ATOM     20  C   UNL     1     101.132 123.264 146.471  0.00  0.00    +0.000 A 
ENDBRANCH   8  15
BRANCH   9  21
ATOM     21  O   UNL     1     103.249 124.160 148.168  0.00  0.00    +0.000 OA
ATOM     22  C   UNL     1     103.429 124.528 148.886  0.00  0.00    +0.000 C 
ENDBRANCH   9  21
TORSDOF 2
ENDMDL
