MODEL 1
REMARK VINA RESULT:     -10.4      0.000      0.000
REMARK  Name = 42607976
REMARK  3 active torsions:
REMARK  status: ('A' for Active; 'I' for Inactive)
REMARK    1  A    between atoms: C_13  and  C_17
REMARK    2  A    between atoms: C_16  and  C_18
REMARK    3  A    between atoms: C_23  and  C_27
REMARK                            x       y       z     vdW  Elec       q    Type
REMARK                         _______ _______ _______ _____ _____    ______ ____
ROOT
ATOM      1  O   UNL     1     104.300 124.852 139.274  0.00  0.00    +0.000 OA
ATOM      2  O   UNL     1     106.137 124.327 141.448  0.00  0.00    +0.000 OA
ATOM      3  O   UNL     1     105.198 126.987 140.988  0.00  0.00    +0.000 OA
ATOM      4  O   UNL     1     105.712 123.231 140.613  0.00  0.00    +0.000 OA
ATOM      5  C   UNL     1     105.668 125.657 141.219  0.00  0.00    +0.000 A 
ATOM      6  C   UNL     1     105.678 124.858 141.014  0.00  0.00    +0.000 A 
ATOM      7  C   UNL     1     105.209 126.188 140.784  0.00  0.00    +0.000 A 
ATOM      8  C   UNL     1     105.230 124.589 140.376  0.00  0.00    +0.000 A 
ATOM      9  C   UNL     1     104.772 125.120 139.942  0.00  0.00    +0.000 A 
ATOM     10  C   UNL     1     104.308 124.021 139.057  0.00  0.00    +0.000 C 
ATOM     11  C   UNL     1     104.760 125.919 140.145  0.00  0.00    +0.000 A 
ATOM     12  C   UNL     1     104.785 123.468 139.509  0.00  0.00    +0.000 C 
ATOM     13  C   UNL     1     105.250 123.754 140.173  0.00  0.00    +0.000 C 
ENDROOT
BRANCH   5  19
ATOM     14  O   UNL     1     105.808 125.890 142.622  0.00  0.00    +0.000 OA
ATOM     15  O   UNL     1     107.179 126.268 140.966  0.00  0.00    +0.000 OA
ATOM     16  O   UNL     1     108.076 126.806 142.243  0.00  0.00    +0.000 OA
ATOM     17  O   UNL     1     107.460 126.733 143.771  0.00  0.00    +0.000 OA
ATOM     18  C   UNL     1     106.871 126.231 141.730  0.00  0.00    +0.000 C 
ATOM     19  C   UNL     1     106.115 125.926 141.857  0.00  0.00    +0.000 C 
ATOM     20  C   UNL     1     107.320 126.501 142.369  0.00  0.00    +0.000 C 
ATOM     21  C   UNL     1     107.012 126.464 143.133  0.00  0.00    +0.000 C 
ATOM     22  C   UNL     1     106.256 126.158 143.259  0.00  0.00    +0.000 C 
BRANCH  22  24
ATOM     23  O   UNL     1     105.209 126.451 144.188  0.00  0.00    +0.000 OA
ATOM     24  C   UNL     1     105.948 126.122 144.023  0.00  0.00    +0.000 C 
ENDBRANCH  22  24
ENDBRANCH   5  19
BRANCH  10  27
ATOM     25  O   UNL     1     101.762 123.488 137.870  0.00  0.00    +0.000 OA
ATOM     26  O   UNL     1     102.511 122.959 136.499  0.00  0.00    +0.000 OA
ATOM     27  C   UNL     1     103.858 123.755 138.418  0.00  0.00    +0.000 A 
ATOM     28  C   UNL     1     103.034 123.754 138.464  0.00  0.00    +0.000 A 
ATOM     29  C   UNL     1     104.233 123.491 137.732  0.00  0.00    +0.000 A 
ATOM     30  C   UNL     1     102.586 123.489 137.824  0.00  0.00    +0.000 A 
ATOM     31  C   UNL     1     103.785 123.225 137.093  0.00  0.00    +0.000 A 
ATOM     32  C   UNL     1     102.961 123.224 137.139  0.00  0.00    +0.000 A 
ENDBRANCH  10  27
TORSDOF 3
ENDMDL
MODEL 2
REMARK VINA RESULT:      -9.8      4.331      6.185
REMARK  Name = 42607976
REMARK  3 active torsions:
REMARK  status: ('A' for Active; 'I' for Inactive)
REMARK    1  A    between atoms: C_13  and  C_17
REMARK    2  A    between atoms: C_16  and  C_18
REMARK    3  A    between atoms: C_23  and  C_27
REMARK                            x       y       z     vdW  Elec       q    Type
REMARK                         _______ _______ _______ _____ _____    ______ ____
ROOT
ATOM      1  O   UNL     1     106.209 127.212 144.767  0.00  0.00    +0.000 OA
ATOM      2  O   UNL     1     106.519 124.641 146.059  0.00  0.00    +0.000 OA
ATOM      3  O   UNL     1     106.781 127.043 147.586  0.00  0.00    +0.000 OA
ATOM      4  O   UNL     1     106.233 124.683 144.646  0.00  0.00    +0.000 OA
ATOM      5  C   UNL     1     106.650 125.842 146.823  0.00  0.00    +0.000 A 
ATOM      6  C   UNL     1     106.512 125.465 146.102  0.00  0.00    +0.000 A 
ATOM      7  C   UNL     1     106.643 126.666 146.865  0.00  0.00    +0.000 A 
ATOM      8  C   UNL     1     106.366 125.912 145.424  0.00  0.00    +0.000 A 
ATOM      9  C   UNL     1     106.359 126.735 145.467  0.00  0.00    +0.000 A 
ATOM     10  C   UNL     1     106.065 126.825 144.014  0.00  0.00    +0.000 C 
ATOM     11  C   UNL     1     106.497 127.113 146.187  0.00  0.00    +0.000 A 
ATOM     12  C   UNL     1     106.072 125.967 143.969  0.00  0.00    +0.000 C 
ATOM     13  C   UNL     1     106.224 125.507 144.679  0.00  0.00    +0.000 C 
ENDROOT
BRANCH   5  19
ATOM     14  O   UNL     1     106.165 125.125 147.961  0.00  0.00    +0.000 OA
ATOM     15  O   UNL     1     108.201 125.488 147.261  0.00  0.00    +0.000 OA
ATOM     16  O   UNL     1     108.492 124.595 148.617  0.00  0.00    +0.000 OA
ATOM     17  O   UNL     1     107.232 124.056 149.535  0.00  0.00    +0.000 OA
ATOM     18  C   UNL     1     107.571 125.219 147.719  0.00  0.00    +0.000 C 
ATOM     19  C   UNL     1     106.795 125.396 147.501  0.00  0.00    +0.000 C 
ATOM     20  C   UNL     1     107.716 124.772 148.398  0.00  0.00    +0.000 C 
ATOM     21  C   UNL     1     107.086 124.502 148.857  0.00  0.00    +0.000 C 
ATOM     22  C   UNL     1     106.311 124.679 148.638  0.00  0.00    +0.000 C 
BRANCH  22  24
ATOM     23  O   UNL     1     104.935 124.752 149.018  0.00  0.00    +0.000 OA
ATOM     24  C   UNL     1     105.681 124.410 149.097  0.00  0.00    +0.000 C 
ENDBRANCH  22  24
ENDBRANCH   5  19
BRANCH  10  27
ATOM     25  O   UNL     1     106.959 127.923 141.531  0.00  0.00    +0.000 OA
ATOM     26  O   UNL     1     105.483 128.625 141.309  0.00  0.00    +0.000 OA
ATOM     27  C   UNL     1     105.919 127.275 143.337  0.00  0.00    +0.000 A 
ATOM     28  C   UNL     1     106.512 127.374 142.772  0.00  0.00    +0.000 A 
ATOM     29  C   UNL     1     105.181 127.626 143.227  0.00  0.00    +0.000 A 
ATOM     30  C   UNL     1     106.366 127.824 142.096  0.00  0.00    +0.000 A 
ATOM     31  C   UNL     1     105.035 128.076 142.551  0.00  0.00    +0.000 A 
ATOM     32  C   UNL     1     105.628 128.175 141.986  0.00  0.00    +0.000 A 
ENDBRANCH  10  27
TORSDOF 3
ENDMDL
MODEL 3
REMARK VINA RESULT:      -9.7      7.808      9.003
REMARK  Name = 42607976
REMARK  3 active torsions:
REMARK  status: ('A' for Active; 'I' for Inactive)
REMARK    1  A    between atoms: C_13  and  C_17
REMARK    2  A    between atoms: C_16  and  C_18
REMARK    3  A    between atoms: C_23  and  C_27
REMARK                            x       y       z     vdW  Elec       q    Type
REMARK                         _______ _______ _______ _____ _____    ______ ____
ROOT
ATOM      1  O   UNL     1     113.409 126.338 138.909  0.00  0.00    +0.000 OA
ATOM      2  O   UNL     1     112.996 129.198 139.060  0.00  0.00    +0.000 OA
ATOM      3  O   UNL     1     114.156 127.809 141.271  0.00  0.00    +0.000 OA
ATOM      4  O   UNL     1     112.609 128.499 137.859  0.00  0.00    +0.000 OA
ATOM      5  C   UNL     1     113.576 128.504 140.166  0.00  0.00    +0.000 A 
ATOM      6  C   UNL     1     113.258 128.496 139.404  0.00  0.00    +0.000 A 
ATOM      7  C   UNL     1     113.838 127.802 140.510  0.00  0.00    +0.000 A 
ATOM      8  C   UNL     1     113.201 127.787 138.988  0.00  0.00    +0.000 A 
ATOM      9  C   UNL     1     113.463 127.084 139.333  0.00  0.00    +0.000 A 
ATOM     10  C   UNL     1     113.079 126.324 138.116  0.00  0.00    +0.000 C 
ATOM     11  C   UNL     1     113.781 127.091 140.094  0.00  0.00    +0.000 A 
ATOM     12  C   UNL     1     112.807 127.056 137.757  0.00  0.00    +0.000 C 
ATOM     13  C   UNL     1     112.868 127.792 138.196  0.00  0.00    +0.000 C 
ENDROOT
BRANCH   5  19
ATOM     14  O   UNL     1     114.281 129.711 140.465  0.00  0.00    +0.000 OA
ATOM     15  O   UNL     1     112.393 128.930 141.234  0.00  0.00    +0.000 OA
ATOM     16  O   UNL     1     112.506 130.350 142.067  0.00  0.00    +0.000 OA
ATOM     17  O   UNL     1     113.802 131.343 141.832  0.00  0.00    +0.000 OA
ATOM     18  C   UNL     1     113.041 129.426 141.116  0.00  0.00    +0.000 C 
ATOM     19  C   UNL     1     113.633 129.214 140.582  0.00  0.00    +0.000 C 
ATOM     20  C   UNL     1     113.098 130.137 141.533  0.00  0.00    +0.000 C 
ATOM     21  C   UNL     1     113.746 130.633 141.415  0.00  0.00    +0.000 C 
ATOM     22  C   UNL     1     114.337 130.420 140.881  0.00  0.00    +0.000 C 
BRANCH  22  24
ATOM     23  O   UNL     1     115.709 130.602 140.524  0.00  0.00    +0.000 OA
ATOM     24  C   UNL     1     114.985 130.917 140.764  0.00  0.00    +0.000 C 
ENDBRANCH  22  24
ENDBRANCH   5  19
BRANCH  10  27
ATOM     25  O   UNL     1     111.540 124.078 137.246  0.00  0.00    +0.000 OA
ATOM     26  O   UNL     1     112.860 123.476 136.461  0.00  0.00    +0.000 OA
ATOM     27  C   UNL     1     113.024 125.612 137.702  0.00  0.00    +0.000 A 
ATOM     28  C   UNL     1     112.309 125.201 137.681  0.00  0.00    +0.000 A 
ATOM     29  C   UNL     1     113.685 125.312 137.310  0.00  0.00    +0.000 A 
ATOM     30  C   UNL     1     112.255 124.489 137.267  0.00  0.00    +0.000 A 
ATOM     31  C   UNL     1     113.630 124.600 136.896  0.00  0.00    +0.000 A 
ATOM     32  C   UNL     1     112.915 124.189 136.875  0.00  0.00    +0.000 A 
ENDBRANCH  10  27
TORSDOF 3
ENDMDL
MODEL 4
REMARK VINA RESULT:      -9.7      3.739      5.645
REMARK  Name = 42607976
REMARK  3 active torsions:
REMARK  status: ('A' for Active; 'I' for Inactive)
REMARK    1  A    between atoms: C_13  and  C_17
REMARK    2  A    between atoms: C_16  and  C_18
REMARK    3  A    between atoms: C_23  and  C_27
REMARK                            x       y       z     vdW  Elec       q    Type
REMARK                         _______ _______ _______ _____ _____    ______ ____
ROOT
ATOM      1  O   UNL     1     103.709 129.947 142.328  0.00  0.00    +0.000 OA
ATOM      2  O   UNL     1     104.679 127.526 141.074  0.00  0.00    +0.000 OA
ATOM      3  O   UNL     1     105.746 128.351 143.594  0.00  0.00    +0.000 OA
ATOM      4  O   UNL     1     103.658 128.297 140.408  0.00  0.00    +0.000 OA
ATOM      5  C   UNL     1     105.213 127.938 142.334  0.00  0.00    +0.000 A 
ATOM      6  C   UNL     1     104.698 128.062 141.701  0.00  0.00    +0.000 A 
ATOM      7  C   UNL     1     105.232 128.474 142.961  0.00  0.00    +0.000 A 
ATOM      8  C   UNL     1     104.202 128.721 141.695  0.00  0.00    +0.000 A 
ATOM      9  C   UNL     1     104.221 129.257 142.322  0.00  0.00    +0.000 A 
ATOM     10  C   UNL     1     103.171 130.081 141.672  0.00  0.00    +0.000 C 
ATOM     11  C   UNL     1     104.735 129.134 142.955  0.00  0.00    +0.000 A 
ATOM     12  C   UNL     1     103.151 129.523 141.019  0.00  0.00    +0.000 C 
ATOM     13  C   UNL     1     103.670 128.838 141.030  0.00  0.00    +0.000 C 
ENDROOT
BRANCH   5  19
ATOM     14  O   UNL     1     105.447 126.568 142.666  0.00  0.00    +0.000 OA
ATOM     15  O   UNL     1     106.730 128.042 141.693  0.00  0.00    +0.000 OA
ATOM     16  O   UNL     1     107.722 126.723 141.705  0.00  0.00    +0.000 OA
ATOM     17  O   UNL     1     107.197 125.303 142.357  0.00  0.00    +0.000 OA
ATOM     18  C   UNL     1     106.467 127.331 142.019  0.00  0.00    +0.000 C 
ATOM     19  C   UNL     1     105.708 127.279 142.340  0.00  0.00    +0.000 C 
ATOM     20  C   UNL     1     106.964 126.672 142.025  0.00  0.00    +0.000 C 
ATOM     21  C   UNL     1     106.701 125.961 142.352  0.00  0.00    +0.000 C 
ATOM     22  C   UNL     1     105.942 125.909 142.672  0.00  0.00    +0.000 C 
BRANCH  22  24
ATOM     23  O   UNL     1     105.272 125.199 143.715  0.00  0.00    +0.000 OA
ATOM     24  C   UNL     1     105.681 125.199 142.998  0.00  0.00    +0.000 C 
ENDBRANCH  22  24
ENDBRANCH   5  19
BRANCH  10  27
ATOM     25  O   UNL     1     102.750 132.858 141.141  0.00  0.00    +0.000 OA
ATOM     26  O   UNL     1     101.191 132.722 141.662  0.00  0.00    +0.000 OA
ATOM     27  C   UNL     1     102.676 130.742 141.669  0.00  0.00    +0.000 A 
ATOM     28  C   UNL     1     102.960 131.470 141.406  0.00  0.00    +0.000 A 
ATOM     29  C   UNL     1     101.896 130.673 141.930  0.00  0.00    +0.000 A 
ATOM     30  C   UNL     1     102.465 132.130 141.404  0.00  0.00    +0.000 A 
ATOM     31  C   UNL     1     101.401 131.333 141.928  0.00  0.00    +0.000 A 
ATOM     32  C   UNL     1     101.685 132.061 141.665  0.00  0.00    +0.000 A 
ENDBRANCH  10  27
TORSDOF 3
ENDMDL
MODEL 5
REMARK VINA RESULT:      -9.7      7.976      9.077
REMARK  Name = 42607976
REMARK  3 active torsions:
REMARK  status: ('A' for Active; 'I' for Inactive)
REMARK    1  A    between atoms: C_13  and  C_17
REMARK    2  A    between atoms: C_16  and  C_18
REMARK    3  A    between atoms: C_23  and  C_27
REMARK                            x       y       z     vdW  Elec       q    Type
REMARK                         _______ _______ _______ _____ _____    ______ ____
ROOT
ATOM      1  O   UNL     1     113.190 127.276 138.422  0.00  0.00    +0.000 OA
ATOM      2  O   UNL     1     114.082 128.274 140.987  0.00  0.00    +0.000 OA
ATOM      3  O   UNL     1     112.866 130.055 139.111  0.00  0.00    +0.000 OA
ATOM      4  O   UNL     1     114.263 126.877 140.680  0.00  0.00    +0.000 OA
ATOM      5  C   UNL     1     113.474 129.165 140.050  0.00  0.00    +0.000 A 
ATOM      6  C   UNL     1     113.732 128.408 140.252  0.00  0.00    +0.000 A 
ATOM      7  C   UNL     1     113.124 129.298 139.314  0.00  0.00    +0.000 A 
ATOM      8  C   UNL     1     113.641 127.784 139.720  0.00  0.00    +0.000 A 
ATOM      9  C   UNL     1     113.291 127.918 138.985  0.00  0.00    +0.000 A 
ATOM     10  C   UNL     1     113.457 126.486 138.627  0.00  0.00    +0.000 C 
ATOM     11  C   UNL     1     113.032 128.674 138.782  0.00  0.00    +0.000 A 
ATOM     12  C   UNL     1     113.821 126.347 139.393  0.00  0.00    +0.000 C 
ATOM     13  C   UNL     1     113.914 127.000 139.943  0.00  0.00    +0.000 C 
ENDROOT
BRANCH   5  19
ATOM     14  O   UNL     1     112.994 129.925 141.160  0.00  0.00    +0.000 OA
ATOM     15  O   UNL     1     114.802 130.140 139.957  0.00  0.00    +0.000 OA
ATOM     16  O   UNL     1     114.986 131.387 141.021  0.00  0.00    +0.000 OA
ATOM     17  O   UNL     1     113.841 131.659 142.178  0.00  0.00    +0.000 OA
ATOM     18  C   UNL     1     114.230 130.275 140.535  0.00  0.00    +0.000 C 
ATOM     19  C   UNL     1     113.566 129.788 140.581  0.00  0.00    +0.000 C 
ATOM     20  C   UNL     1     114.322 130.900 141.068  0.00  0.00    +0.000 C 
ATOM     21  C   UNL     1     113.749 131.036 141.646  0.00  0.00    +0.000 C 
ATOM     22  C   UNL     1     113.085 130.548 141.692  0.00  0.00    +0.000 C 
BRANCH  22  24
ATOM     23  O   UNL     1     111.744 130.406 142.164  0.00  0.00    +0.000 OA
ATOM     24  C   UNL     1     112.513 130.684 142.270  0.00  0.00    +0.000 C 
ENDBRANCH  22  24
ENDBRANCH   5  19
BRANCH  10  27
ATOM     25  O   UNL     1     111.786 124.560 137.335  0.00  0.00    +0.000 OA
ATOM     26  O   UNL     1     113.085 124.000 136.487  0.00  0.00    +0.000 OA
ATOM     27  C   UNL     1     113.364 125.864 138.092  0.00  0.00    +0.000 A 
ATOM     28  C   UNL     1     112.621 125.523 137.981  0.00  0.00    +0.000 A 
ATOM     29  C   UNL     1     114.014 125.585 137.668  0.00  0.00    +0.000 A 
ATOM     30  C   UNL     1     112.528 124.902 137.446  0.00  0.00    +0.000 A 
ATOM     31  C   UNL     1     113.921 124.964 137.133  0.00  0.00    +0.000 A 
ATOM     32  C   UNL     1     113.179 124.622 137.022  0.00  0.00    +0.000 A 
ENDBRANCH  10  27
TORSDOF 3
ENDMDL
MODEL 6
REMARK VINA RESULT:      -9.6      7.962     10.321
REMARK  Name = 42607976
REMARK  3 active torsions:
REMARK  status: ('A' for Active; 'I' for Inactive)
REMARK    1  A    between atoms: C_13  and  C_17
REMARK    2  A    between atoms: C_16  and  C_18
REMARK    3  A    between atoms: C_23  and  C_27
REMARK                            x       y       z     vdW  Elec       q    Type
REMARK                         _______ _______ _______ _____ _____    ______ ____
ROOT
ATOM      1  O   UNL     1     113.203 128.922 139.666  0.00  0.00    +0.000 OA
ATOM      2  O   UNL     1     113.852 126.117 139.371  0.00  0.00    +0.000 OA
ATOM      3  O   UNL     1     112.458 127.483 137.284  0.00  0.00    +0.000 OA
ATOM      4  O   UNL     1     114.243 126.801 140.579  0.00  0.00    +0.000 OA
ATOM      5  C   UNL     1     113.155 126.800 138.327  0.00  0.00    +0.000 A 
ATOM      6  C   UNL     1     113.512 126.806 139.071  0.00  0.00    +0.000 A 
ATOM      7  C   UNL     1     112.815 127.489 138.027  0.00  0.00    +0.000 A 
ATOM      8  C   UNL     1     113.530 127.501 139.514  0.00  0.00    +0.000 A 
ATOM      9  C   UNL     1     113.191 128.191 139.214  0.00  0.00    +0.000 A 
ATOM     10  C   UNL     1     113.574 128.934 140.441  0.00  0.00    +0.000 C 
ATOM     11  C   UNL     1     112.833 128.185 138.471  0.00  0.00    +0.000 A 
ATOM     12  C   UNL     1     113.928 128.216 140.754  0.00  0.00    +0.000 C 
ATOM     13  C   UNL     1     113.906 127.495 140.288  0.00  0.00    +0.000 C 
ENDROOT
BRANCH   5  19
ATOM     14  O   UNL     1     113.772 125.910 137.395  0.00  0.00    +0.000 OA
ATOM     15  O   UNL     1     111.848 125.796 138.420  0.00  0.00    +0.000 OA
ATOM     16  O   UNL     1     111.812 124.405 137.533  0.00  0.00    +0.000 OA
ATOM     17  O   UNL     1     113.082 124.018 136.555  0.00  0.00    +0.000 OA
ATOM     18  C   UNL     1     112.484 125.603 137.930  0.00  0.00    +0.000 C 
ATOM     19  C   UNL     1     113.137 126.105 137.884  0.00  0.00    +0.000 C 
ATOM     20  C   UNL     1     112.465 124.907 137.487  0.00  0.00    +0.000 C 
ATOM     21  C   UNL     1     113.101 124.714 136.998  0.00  0.00    +0.000 C 
ATOM     22  C   UNL     1     113.754 125.215 136.951  0.00  0.00    +0.000 C 
BRANCH  22  24
ATOM     23  O   UNL     1     114.951 125.593 136.269  0.00  0.00    +0.000 OA
ATOM     24  C   UNL     1     114.388 125.021 136.462  0.00  0.00    +0.000 C 
ENDBRANCH  22  24
ENDBRANCH   5  19
BRANCH  10  27
ATOM     25  O   UNL     1     114.852 131.395 141.138  0.00  0.00    +0.000 OA
ATOM     26  O   UNL     1     113.637 131.724 142.204  0.00  0.00    +0.000 OA
ATOM     27  C   UNL     1     113.590 129.632 140.882  0.00  0.00    +0.000 A 
ATOM     28  C   UNL     1     114.213 130.165 140.790  0.00  0.00    +0.000 A 
ATOM     29  C   UNL     1     112.982 129.796 141.415  0.00  0.00    +0.000 A 
ATOM     30  C   UNL     1     114.229 130.862 141.230  0.00  0.00    +0.000 A 
ATOM     31  C   UNL     1     112.998 130.493 141.856  0.00  0.00    +0.000 A 
ATOM     32  C   UNL     1     113.621 131.026 141.764  0.00  0.00    +0.000 A 
ENDBRANCH  10  27
TORSDOF 3
ENDMDL
MODEL 7
REMARK VINA RESULT:      -9.5      4.273      7.089
REMARK  Name = 42607976
REMARK  3 active torsions:
REMARK  status: ('A' for Active; 'I' for Inactive)
REMARK    1  A    between atoms: C_13  and  C_17
REMARK    2  A    between atoms: C_16  and  C_18
REMARK    3  A    between atoms: C_23  and  C_27
REMARK                            x       y       z     vdW  Elec       q    Type
REMARK                         _______ _______ _______ _____ _____    ______ ____
ROOT
ATOM      1  O   UNL     1     106.471 125.421 146.170  0.00  0.00    +0.000 OA
ATOM      2  O   UNL     1     106.767 127.911 144.727  0.00  0.00    +0.000 OA
ATOM      3  O   UNL     1     105.579 125.652 143.440  0.00  0.00    +0.000 OA
ATOM      4  O   UNL     1     107.226 127.836 146.092  0.00  0.00    +0.000 OA
ATOM      5  C   UNL     1     106.173 126.782 144.083  0.00  0.00    +0.000 A 
ATOM      6  C   UNL     1     106.520 127.124 144.749  0.00  0.00    +0.000 A 
ATOM      7  C   UNL     1     105.926 125.996 144.106  0.00  0.00    +0.000 A 
ATOM      8  C   UNL     1     106.619 126.681 145.437  0.00  0.00    +0.000 A 
ATOM      9  C   UNL     1     106.372 125.894 145.459  0.00  0.00    +0.000 A 
ATOM     10  C   UNL     1     106.831 125.772 146.866  0.00  0.00    +0.000 C 
ATOM     11  C   UNL     1     106.025 125.551 144.794  0.00  0.00    +0.000 A 
ATOM     12  C   UNL     1     107.088 126.591 146.843  0.00  0.00    +0.000 C 
ATOM     13  C   UNL     1     106.982 127.049 146.124  0.00  0.00    +0.000 C 
ENDROOT
BRANCH   5  19
ATOM     14  O   UNL     1     105.385 127.669 143.285  0.00  0.00    +0.000 OA
ATOM     15  O   UNL     1     107.349 126.786 142.926  0.00  0.00    +0.000 OA
ATOM     16  O   UNL     1     107.150 127.674 141.550  0.00  0.00    +0.000 OA
ATOM     17  O   UNL     1     105.775 128.558 141.331  0.00  0.00    +0.000 OA
ATOM     18  C   UNL     1     106.661 127.228 142.817  0.00  0.00    +0.000 C 
ATOM     19  C   UNL     1     106.073 127.226 143.396  0.00  0.00    +0.000 C 
ATOM     20  C   UNL     1     106.562 127.672 142.128  0.00  0.00    +0.000 C 
ATOM     21  C   UNL     1     105.874 128.114 142.019  0.00  0.00    +0.000 C 
ATOM     22  C   UNL     1     105.286 128.112 142.598  0.00  0.00    +0.000 C 
BRANCH  22  24
ATOM     23  O   UNL     1     104.286 128.995 143.112  0.00  0.00    +0.000 OA
ATOM     24  C   UNL     1     104.598 128.554 142.488  0.00  0.00    +0.000 C 
ENDBRANCH  22  24
ENDBRANCH   5  19
BRANCH  10  27
ATOM     25  O   UNL     1     105.714 124.445 149.139  0.00  0.00    +0.000 OA
ATOM     26  O   UNL     1     107.225 123.982 149.612  0.00  0.00    +0.000 OA
ATOM     27  C   UNL     1     106.929 125.324 147.553  0.00  0.00    +0.000 A 
ATOM     28  C   UNL     1     106.272 125.108 148.003  0.00  0.00    +0.000 A 
ATOM     29  C   UNL     1     107.685 125.093 147.789  0.00  0.00    +0.000 A 
ATOM     30  C   UNL     1     106.371 124.661 148.689  0.00  0.00    +0.000 A 
ATOM     31  C   UNL     1     107.784 124.646 148.476  0.00  0.00    +0.000 A 
ATOM     32  C   UNL     1     107.127 124.430 148.925  0.00  0.00    +0.000 A 
ENDBRANCH  10  27
TORSDOF 3
ENDMDL
MODEL 8
REMARK VINA RESULT:      -9.5      7.072      8.404
REMARK  Name = 42607976
REMARK  3 active torsions:
REMARK  status: ('A' for Active; 'I' for Inactive)
REMARK    1  A    between atoms: C_13  and  C_17
REMARK    2  A    between atoms: C_16  and  C_18
REMARK    3  A    between atoms: C_23  and  C_27
REMARK                            x       y       z     vdW  Elec       q    Type
REMARK                         _______ _______ _______ _____ _____    ______ ____
ROOT
ATOM      1  O   UNL     1     110.825 126.826 136.859  0.00  0.00    +0.000 OA
ATOM      2  O   UNL     1     110.195 129.059 135.128  0.00  0.00    +0.000 OA
ATOM      3  O   UNL     1     109.213 129.016 137.812  0.00  0.00    +0.000 OA
ATOM      4  O   UNL     1     111.005 127.982 134.613  0.00  0.00    +0.000 OA
ATOM      5  C   UNL     1     109.704 129.038 136.470  0.00  0.00    +0.000 A 
ATOM      6  C   UNL     1     110.135 128.685 135.861  0.00  0.00    +0.000 A 
ATOM      7  C   UNL     1     109.644 128.664 137.203  0.00  0.00    +0.000 A 
ATOM      8  C   UNL     1     110.504 127.958 135.985  0.00  0.00    +0.000 A 
ATOM      9  C   UNL     1     110.444 127.584 136.718  0.00  0.00    +0.000 A 
ATOM     10  C   UNL     1     111.274 126.454 136.229  0.00  0.00    +0.000 C 
ATOM     11  C   UNL     1     110.014 127.937 137.327  0.00  0.00    +0.000 A 
ATOM     12  C   UNL     1     111.337 126.844 135.466  0.00  0.00    +0.000 C 
ATOM     13  C   UNL     1     110.950 127.600 135.342  0.00  0.00    +0.000 C 
ENDROOT
BRANCH   5  19
ATOM     14  O   UNL     1     109.750 130.466 136.472  0.00  0.00    +0.000 OA
ATOM     15  O   UNL     1     108.132 129.089 135.970  0.00  0.00    +0.000 OA
ATOM     16  O   UNL     1     107.392 130.543 135.723  0.00  0.00    +0.000 OA
ATOM     17  O   UNL     1     108.223 131.945 135.975  0.00  0.00    +0.000 OA
ATOM     18  C   UNL     1     108.548 129.790 136.097  0.00  0.00    +0.000 C 
ATOM     19  C   UNL     1     109.334 129.765 136.346  0.00  0.00    +0.000 C 
ATOM     20  C   UNL     1     108.178 130.517 135.973  0.00  0.00    +0.000 C 
ATOM     21  C   UNL     1     108.594 131.218 136.099  0.00  0.00    +0.000 C 
ATOM     22  C   UNL     1     109.380 131.193 136.349  0.00  0.00    +0.000 C 
BRANCH  22  24
ATOM     23  O   UNL     1     110.517 131.880 136.875  0.00  0.00    +0.000 OA
ATOM     24  C   UNL     1     109.795 131.894 136.475  0.00  0.00    +0.000 C 
ENDBRANCH  22  24
ENDBRANCH   5  19
BRANCH  10  27
ATOM     25  O   UNL     1     113.524 124.944 137.138  0.00  0.00    +0.000 OA
ATOM     26  O   UNL     1     112.748 123.545 136.738  0.00  0.00    +0.000 OA
ATOM     27  C   UNL     1     111.643 125.727 136.356  0.00  0.00    +0.000 A 
ATOM     28  C   UNL     1     112.400 125.699 136.684  0.00  0.00    +0.000 A 
ATOM     29  C   UNL     1     111.254 125.027 136.155  0.00  0.00    +0.000 A 
ATOM     30  C   UNL     1     112.767 124.972 136.811  0.00  0.00    +0.000 A 
ATOM     31  C   UNL     1     111.622 124.300 136.283  0.00  0.00    +0.000 A 
ATOM     32  C   UNL     1     112.379 124.272 136.610  0.00  0.00    +0.000 A 
ENDBRANCH  10  27
TORSDOF 3
ENDMDL
MODEL 9
REMARK VINA RESULT:      -9.5      4.673      6.122
REMARK  Name = 42607976
REMARK  3 active torsions:
REMARK  status: ('A' for Active; 'I' for Inactive)
REMARK    1  A    between atoms: C_13  and  C_17
REMARK    2  A    between atoms: C_16  and  C_18
REMARK    3  A    between atoms: C_23  and  C_27
REMARK                            x       y       z     vdW  Elec       q    Type
REMARK                         _______ _______ _______ _____ _____    ______ ____
ROOT
ATOM      1  O   UNL     1     105.578 127.014 143.860  0.00  0.00    +0.000 OA
ATOM      2  O   UNL     1     105.940 127.077 146.730  0.00  0.00    +0.000 OA
ATOM      3  O   UNL     1     106.305 124.629 145.302  0.00  0.00    +0.000 OA
ATOM      4  O   UNL     1     105.576 128.293 146.045  0.00  0.00    +0.000 OA
ATOM      5  C   UNL     1     106.123 125.853 146.017  0.00  0.00    +0.000 A 
ATOM      6  C   UNL     1     105.941 126.658 146.020  0.00  0.00    +0.000 A 
ATOM      7  C   UNL     1     106.124 125.433 145.306  0.00  0.00    +0.000 A 
ATOM      8  C   UNL     1     105.762 127.043 145.313  0.00  0.00    +0.000 A 
ATOM      9  C   UNL     1     105.764 126.624 144.603  0.00  0.00    +0.000 A 
ATOM     10  C   UNL     1     105.389 127.852 143.857  0.00  0.00    +0.000 C 
ATOM     11  C   UNL     1     105.945 125.819 144.599  0.00  0.00    +0.000 A 
ATOM     12  C   UNL     1     105.387 128.289 144.597  0.00  0.00    +0.000 C 
ATOM     13  C   UNL     1     105.575 127.882 145.330  0.00  0.00    +0.000 C 
ENDROOT
BRANCH   5  19
ATOM     14  O   UNL     1     107.075 125.474 147.013  0.00  0.00    +0.000 OA
ATOM     15  O   UNL     1     104.936 125.069 146.853  0.00  0.00    +0.000 OA
ATOM     16  O   UNL     1     105.294 124.298 148.267  0.00  0.00    +0.000 OA
ATOM     17  O   UNL     1     106.839 124.311 148.844  0.00  0.00    +0.000 OA
ATOM     18  C   UNL     1     105.708 125.076 147.141  0.00  0.00    +0.000 C 
ATOM     19  C   UNL     1     106.302 125.468 146.723  0.00  0.00    +0.000 C 
ATOM     20  C   UNL     1     105.888 124.690 147.849  0.00  0.00    +0.000 C 
ATOM     21  C   UNL     1     106.660 124.696 148.137  0.00  0.00    +0.000 C 
ATOM     22  C   UNL     1     107.254 125.088 147.719  0.00  0.00    +0.000 C 
BRANCH  22  24
ATOM     23  O   UNL     1     108.661 125.172 147.487  0.00  0.00    +0.000 OA
ATOM     24  C   UNL     1     108.026 125.094 148.008  0.00  0.00    +0.000 C 
ENDBRANCH  22  24
ENDBRANCH   5  19
BRANCH  10  27
ATOM     25  O   UNL     1     106.230 128.958 141.358  0.00  0.00    +0.000 OA
ATOM     26  O   UNL     1     104.672 129.381 141.021  0.00  0.00    +0.000 OA
ATOM     27  C   UNL     1     105.210 128.235 143.148  0.00  0.00    +0.000 A 
ATOM     28  C   UNL     1     105.810 128.405 142.607  0.00  0.00    +0.000 A 
ATOM     29  C   UNL     1     104.431 128.446 142.979  0.00  0.00    +0.000 A 
ATOM     30  C   UNL     1     105.630 128.787 141.899  0.00  0.00    +0.000 A 
ATOM     31  C   UNL     1     104.251 128.829 142.271  0.00  0.00    +0.000 A 
ATOM     32  C   UNL     1     104.851 128.999 141.730  0.00  0.00    +0.000 A 
ENDBRANCH  10  27
TORSDOF 3
ENDMDL
MODEL 10
REMARK VINA RESULT:      -9.4      2.869      6.558
REMARK  Name = 42607976
REMARK  3 active torsions:
REMARK  status: ('A' for Active; 'I' for Inactive)
REMARK    1  A    between atoms: C_13  and  C_17
REMARK    2  A    between atoms: C_16  and  C_18
REMARK    3  A    between atoms: C_23  and  C_27
REMARK                            x       y       z     vdW  Elec       q    Type
REMARK                         _______ _______ _______ _____ _____    ______ ____
ROOT
ATOM      1  O   UNL     1     105.849 125.519 145.931  0.00  0.00    +0.000 OA
ATOM      2  O   UNL     1     105.199 124.319 143.380  0.00  0.00    +0.000 OA
ATOM      3  O   UNL     1     107.031 126.509 143.498  0.00  0.00    +0.000 OA
ATOM      4  O   UNL     1     104.585 123.794 144.575  0.00  0.00    +0.000 OA
ATOM      5  C   UNL     1     106.115 125.414 143.438  0.00  0.00    +0.000 A 
ATOM      6  C   UNL     1     105.612 124.882 143.819  0.00  0.00    +0.000 A 
ATOM      7  C   UNL     1     106.528 125.977 143.877  0.00  0.00    +0.000 A 
ATOM      8  C   UNL     1     105.521 124.913 144.638  0.00  0.00    +0.000 A 
ATOM      9  C   UNL     1     105.934 125.477 145.077  0.00  0.00    +0.000 A 
ATOM     10  C   UNL     1     105.326 124.968 146.333  0.00  0.00    +0.000 C 
ATOM     11  C   UNL     1     106.438 126.009 144.697  0.00  0.00    +0.000 A 
ATOM     12  C   UNL     1     104.896 124.382 145.875  0.00  0.00    +0.000 C 
ATOM     13  C   UNL     1     104.994 124.354 145.023  0.00  0.00    +0.000 C 
ENDROOT
BRANCH   5  19
ATOM     14  O   UNL     1     106.734 124.846 142.282  0.00  0.00    +0.000 OA
ATOM     15  O   UNL     1     105.238 126.425 142.472  0.00  0.00    +0.000 OA
ATOM     16  O   UNL     1     105.419 126.362 140.833  0.00  0.00    +0.000 OA
ATOM     17  O   UNL     1     106.476 125.289 140.161  0.00  0.00    +0.000 OA
ATOM     18  C   UNL     1     105.767 125.888 142.136  0.00  0.00    +0.000 C 
ATOM     19  C   UNL     1     106.205 125.382 142.619  0.00  0.00    +0.000 C 
ATOM     20  C   UNL     1     105.857 125.857 141.316  0.00  0.00    +0.000 C 
ATOM     21  C   UNL     1     106.386 125.320 140.980  0.00  0.00    +0.000 C 
ATOM     22  C   UNL     1     106.824 124.815 141.463  0.00  0.00    +0.000 C 
BRANCH  22  24
ATOM     23  O   UNL     1     108.117 124.208 141.427  0.00  0.00    +0.000 OA
ATOM     24  C   UNL     1     107.352 124.279 141.126  0.00  0.00    +0.000 C 
ENDBRANCH  22  24
ENDBRANCH   5  19
BRANCH  10  27
ATOM     25  O   UNL     1     106.270 124.327 148.954  0.00  0.00    +0.000 OA
ATOM     26  O   UNL     1     104.973 125.107 149.612  0.00  0.00    +0.000 OA
ATOM     27  C   UNL     1     105.238 125.003 147.153  0.00  0.00    +0.000 A 
ATOM     28  C   UNL     1     105.798 124.648 147.644  0.00  0.00    +0.000 A 
ATOM     29  C   UNL     1     104.590 125.392 147.482  0.00  0.00    +0.000 A 
ATOM     30  C   UNL     1     105.710 124.682 148.463  0.00  0.00    +0.000 A 
ATOM     31  C   UNL     1     104.501 125.427 148.301  0.00  0.00    +0.000 A 
ATOM     32  C   UNL     1     105.061 125.072 148.792  0.00  0.00    +0.000 A 
ENDBRANCH  10  27
TORSDOF 3
ENDMDL
