MODEL 1
REMARK VINA RESULT:      -9.2      0.000      0.000
REMARK  Name = 44258963
REMARK  11 active torsions:
REMARK  status: ('A' for Active; 'I' for Inactive)
REMARK    1  A    between atoms: O_2  and  C_15
REMARK    2  A    between atoms: O_2  and  C_22
REMARK    3  A    between atoms: O_3  and  C_16
REMARK    4  A    between atoms: O_3  and  C_23
REMARK    5  A    between atoms: O_4  and  C_17
REMARK    6  A    between atoms: O_4  and  C_24
REMARK    7  A    between atoms: O_5  and  C_19
REMARK    8  A    between atoms: O_5  and  C_21
REMARK    9  A    between atoms: C_23  and  C_30
REMARK   10  A    between atoms: C_25  and  C_32
REMARK   11  A    between atoms: C_35  and  C_40
REMARK                            x       y       z     vdW  Elec       q    Type
REMARK                         _______ _______ _______ _____ _____    ______ ____
ROOT
ATOM      1  O   UNL     1     111.799 128.558 138.046  0.00  0.00    +0.000 OA
ATOM      2  C   UNL     1     112.397 130.077 137.808  0.00  0.00    +0.000 C 
ATOM      3  C   UNL     1     111.668 129.867 137.486  0.00  0.00    +0.000 C 
ATOM      4  C   UNL     1     112.828 129.529 138.249  0.00  0.00    +0.000 C 
ATOM      5  C   UNL     1     111.369 129.107 137.605  0.00  0.00    +0.000 C 
ATOM      6  C   UNL     1     112.529 128.770 138.369  0.00  0.00    +0.000 C 
ATOM      7  C   UNL     1     110.638 128.896 137.283  0.00  0.00    +0.000 C 
ENDROOT
BRANCH   2   8
ATOM      8  O   UNL     1     112.696 130.837 137.689  0.00  0.00    +0.000 OA
BRANCH   8  10
ATOM      9  O   UNL     1     113.294 130.414 136.461  0.00  0.00    +0.000 OA
ATOM     10  C   UNL     1     113.106 131.015 136.994  0.00  0.00    +0.000 C 
ATOM     11  C   UNL     1     113.325 131.794 136.833  0.00  0.00    +0.000 C 
ENDBRANCH   8  10
ENDBRANCH   2   8
BRANCH   3  12
ATOM     12  O   UNL     1     111.237 130.415 137.045  0.00  0.00    +0.000 OA
BRANCH  12  14
ATOM     13  O   UNL     1     110.383 130.801 138.124  0.00  0.00    +0.000 OA
ATOM     14  C   UNL     1     110.504 130.677 137.317  0.00  0.00    +0.000 C 
BRANCH  14  15
ATOM     15  C   UNL     1     109.891 130.817 136.782  0.00  0.00    +0.000 C 
ATOM     16  C   UNL     1     109.533 131.560 136.749  0.00  0.00    +0.000 C 
BRANCH  16  18
ATOM     17  O   UNL     1     107.080 132.114 134.612  0.00  0.00    +0.000 OA
ATOM     18  C   UNL     1     108.920 131.699 136.215  0.00  0.00    +0.000 A 
ATOM     19  C   UNL     1     108.138 131.568 136.442  0.00  0.00    +0.000 A 
ATOM     20  C   UNL     1     109.089 131.968 135.454  0.00  0.00    +0.000 A 
ATOM     21  C   UNL     1     107.525 131.706 135.908  0.00  0.00    +0.000 A 
ATOM     22  C   UNL     1     108.476 132.106 134.919  0.00  0.00    +0.000 A 
ATOM     23  C   UNL     1     107.694 131.976 135.146  0.00  0.00    +0.000 A 
ENDBRANCH  16  18
ENDBRANCH  14  15
ENDBRANCH  12  14
ENDBRANCH   3  12
BRANCH   4  24
ATOM     24  O   UNL     1     113.557 129.740 138.571  0.00  0.00    +0.000 OA
BRANCH  24  26
ATOM     25  O   UNL     1     112.896 130.360 139.676  0.00  0.00    +0.000 OA
ATOM     26  C   UNL     1     113.592 130.121 139.302  0.00  0.00    +0.000 C 
ATOM     27  C   UNL     1     114.321 130.264 139.660  0.00  0.00    +0.000 C 
ENDBRANCH  24  26
ENDBRANCH   4  24
BRANCH   6  28
ATOM     28  O   UNL     1     112.959 128.221 138.810  0.00  0.00    +0.000 OA
BRANCH  28  33
ATOM     29  O   UNL     1     112.783 126.046 138.833  0.00  0.00    +0.000 OA
ATOM     30  O   UNL     1     113.529 127.847 137.307  0.00  0.00    +0.000 OA
ATOM     31  O   UNL     1     113.862 126.883 136.286  0.00  0.00    +0.000 OA
ATOM     32  O   UNL     1     113.432 124.044 136.819  0.00  0.00    +0.000 OA
ATOM     33  C   UNL     1     112.995 127.434 138.567  0.00  0.00    +0.000 A 
ATOM     34  C   UNL     1     112.746 126.834 139.076  0.00  0.00    +0.000 A 
ATOM     35  C   UNL     1     113.280 127.247 137.816  0.00  0.00    +0.000 A 
ATOM     36  C   UNL     1     113.317 126.459 137.573  0.00  0.00    +0.000 A 
ATOM     37  C   UNL     1     113.068 125.858 138.081  0.00  0.00    +0.000 A 
ATOM     38  C   UNL     1     113.616 126.276 136.788  0.00  0.00    +0.000 A 
ATOM     39  C   UNL     1     113.101 125.034 137.841  0.00  0.00    +0.000 A 
ATOM     40  C   UNL     1     113.656 125.458 136.529  0.00  0.00    +0.000 A 
ATOM     41  C   UNL     1     113.397 124.832 137.059  0.00  0.00    +0.000 A 
BRANCH  34  43
ATOM     42  O   UNL     1     111.606 127.582 142.081  0.00  0.00    +0.000 OA
ATOM     43  C   UNL     1     112.461 127.021 139.826  0.00  0.00    +0.000 A 
ATOM     44  C   UNL     1     112.989 127.154 140.446  0.00  0.00    +0.000 A 
ATOM     45  C   UNL     1     111.648 127.074 139.958  0.00  0.00    +0.000 A 
ATOM     46  C   UNL     1     112.704 127.342 141.198  0.00  0.00    +0.000 A 
ATOM     47  C   UNL     1     111.363 127.261 140.709  0.00  0.00    +0.000 A 
ATOM     48  C   UNL     1     111.891 127.395 141.329  0.00  0.00    +0.000 A 
ENDBRANCH  34  43
ENDBRANCH  28  33
ENDBRANCH   6  28
TORSDOF 11
ENDMDL
MODEL 2
REMARK VINA RESULT:      -9.0      7.710     10.232
REMARK  Name = 44258963
REMARK  11 active torsions:
REMARK  status: ('A' for Active; 'I' for Inactive)
REMARK    1  A    between atoms: O_2  and  C_15
REMARK    2  A    between atoms: O_2  and  C_22
REMARK    3  A    between atoms: O_3  and  C_16
REMARK    4  A    between atoms: O_3  and  C_23
REMARK    5  A    between atoms: O_4  and  C_17
REMARK    6  A    between atoms: O_4  and  C_24
REMARK    7  A    between atoms: O_5  and  C_19
REMARK    8  A    between atoms: O_5  and  C_21
REMARK    9  A    between atoms: C_23  and  C_30
REMARK   10  A    between atoms: C_25  and  C_32
REMARK   11  A    between atoms: C_35  and  C_40
REMARK                            x       y       z     vdW  Elec       q    Type
REMARK                         _______ _______ _______ _____ _____    ______ ____
ROOT
ATOM      1  O   UNL     1     105.497 126.583 145.683  0.00  0.00    +0.000 OA
ATOM      2  C   UNL     1     106.090 126.998 144.200  0.00  0.00    +0.000 C 
ATOM      3  C   UNL     1     105.786 127.579 144.700  0.00  0.00    +0.000 C 
ATOM      4  C   UNL     1     106.097 126.209 144.441  0.00  0.00    +0.000 C 
ATOM      5  C   UNL     1     105.490 127.372 145.442  0.00  0.00    +0.000 C 
ATOM      6  C   UNL     1     105.801 126.001 145.182  0.00  0.00    +0.000 C 
ATOM      7  C   UNL     1     105.186 127.954 145.942  0.00  0.00    +0.000 C 
ENDROOT
BRANCH   2   8
ATOM      8  O   UNL     1     106.386 127.206 143.459  0.00  0.00    +0.000 OA
BRANCH   8  10
ATOM      9  O   UNL     1     107.668 127.467 144.034  0.00  0.00    +0.000 OA
ATOM     10  C   UNL     1     107.155 127.500 143.389  0.00  0.00    +0.000 C 
ATOM     11  C   UNL     1     107.408 127.825 142.675  0.00  0.00    +0.000 C 
ENDBRANCH   8  10
ENDBRANCH   2   8
BRANCH   3  12
ATOM     12  O   UNL     1     105.779 128.369 144.460  0.00  0.00    +0.000 OA
BRANCH  12  14
ATOM     13  O   UNL     1     104.667 128.963 145.134  0.00  0.00    +0.000 OA
ATOM     14  C   UNL     1     105.067 128.785 144.434  0.00  0.00    +0.000 C 
BRANCH  14  15
ATOM     15  C   UNL     1     104.754 129.023 143.709  0.00  0.00    +0.000 C 
ATOM     16  C   UNL     1     104.445 129.782 143.621  0.00  0.00    +0.000 C 
BRANCH  16  18
ATOM     17  O   UNL     1     103.195 130.730 140.718  0.00  0.00    +0.000 OA
ATOM     18  C   UNL     1     104.132 130.019 142.895  0.00  0.00    +0.000 A 
ATOM     19  C   UNL     1     104.611 130.405 142.346  0.00  0.00    +0.000 A 
ATOM     20  C   UNL     1     103.340 129.870 142.719  0.00  0.00    +0.000 A 
ATOM     21  C   UNL     1     104.300 130.642 141.620  0.00  0.00    +0.000 A 
ATOM     22  C   UNL     1     103.027 130.107 141.993  0.00  0.00    +0.000 A 
ATOM     23  C   UNL     1     103.507 130.493 141.444  0.00  0.00    +0.000 A 
ENDBRANCH  16  18
ENDBRANCH  14  15
ENDBRANCH  12  14
ENDBRANCH   3  12
BRANCH   4  24
ATOM     24  O   UNL     1     106.400 125.628 143.941  0.00  0.00    +0.000 OA
BRANCH  24  26
ATOM     25  O   UNL     1     105.150 125.563 143.253  0.00  0.00    +0.000 OA
ATOM     26  C   UNL     1     105.919 125.285 143.365  0.00  0.00    +0.000 C 
ATOM     27  C   UNL     1     106.205 124.667 142.902  0.00  0.00    +0.000 C 
ENDBRANCH  24  26
ENDBRANCH   4  24
BRANCH   6  28
ATOM     28  O   UNL     1     105.807 125.213 145.424  0.00  0.00    +0.000 OA
BRANCH  28  33
ATOM     29  O   UNL     1     105.743 124.395 147.447  0.00  0.00    +0.000 OA
ATOM     30  O   UNL     1     107.282 125.683 145.997  0.00  0.00    +0.000 OA
ATOM     31  O   UNL     1     108.271 125.739 147.046  0.00  0.00    +0.000 OA
ATOM     32  O   UNL     1     107.692 124.468 149.611  0.00  0.00    +0.000 OA
ATOM     33  C   UNL     1     106.032 125.019 146.194  0.00  0.00    +0.000 A 
ATOM     34  C   UNL     1     105.519 124.589 146.677  0.00  0.00    +0.000 A 
ATOM     35  C   UNL     1     106.769 125.253 146.480  0.00  0.00    +0.000 A 
ATOM     36  C   UNL     1     106.993 125.059 147.249  0.00  0.00    +0.000 A 
ATOM     37  C   UNL     1     106.481 124.630 147.733  0.00  0.00    +0.000 A 
ATOM     38  C   UNL     1     107.764 125.309 147.537  0.00  0.00    +0.000 A 
ATOM     39  C   UNL     1     106.703 124.421 148.537  0.00  0.00    +0.000 A 
ATOM     40  C   UNL     1     108.004 125.111 148.337  0.00  0.00    +0.000 A 
ATOM     41  C   UNL     1     107.470 124.663 148.841  0.00  0.00    +0.000 A 
BRANCH  34  43
ATOM     42  O   UNL     1     102.570 123.649 145.532  0.00  0.00    +0.000 OA
ATOM     43  C   UNL     1     104.782 124.355 146.391  0.00  0.00    +0.000 A 
ATOM     44  C   UNL     1     104.720 123.687 145.911  0.00  0.00    +0.000 A 
ATOM     45  C   UNL     1     104.106 124.787 146.585  0.00  0.00    +0.000 A 
ATOM     46  C   UNL     1     103.982 123.451 145.624  0.00  0.00    +0.000 A 
ATOM     47  C   UNL     1     103.370 124.552 146.299  0.00  0.00    +0.000 A 
ATOM     48  C   UNL     1     103.308 123.884 145.819  0.00  0.00    +0.000 A 
ENDBRANCH  34  43
ENDBRANCH  28  33
ENDBRANCH   6  28
TORSDOF 11
ENDMDL
MODEL 3
REMARK VINA RESULT:      -8.9      2.188      6.287
REMARK  Name = 44258963
REMARK  11 active torsions:
REMARK  status: ('A' for Active; 'I' for Inactive)
REMARK    1  A    between atoms: O_2  and  C_15
REMARK    2  A    between atoms: O_2  and  C_22
REMARK    3  A    between atoms: O_3  and  C_16
REMARK    4  A    between atoms: O_3  and  C_23
REMARK    5  A    between atoms: O_4  and  C_17
REMARK    6  A    between atoms: O_4  and  C_24
REMARK    7  A    between atoms: O_5  and  C_19
REMARK    8  A    between atoms: O_5  and  C_21
REMARK    9  A    between atoms: C_23  and  C_30
REMARK   10  A    between atoms: C_25  and  C_32
REMARK   11  A    between atoms: C_35  and  C_40
REMARK                            x       y       z     vdW  Elec       q    Type
REMARK                         _______ _______ _______ _____ _____    ______ ____
ROOT
ATOM      1  O   UNL     1     110.588 129.323 137.924  0.00  0.00    +0.000 OA
ATOM      2  C   UNL     1     109.908 128.388 136.747  0.00  0.00    +0.000 C 
ATOM      3  C   UNL     1     110.621 128.161 137.093  0.00  0.00    +0.000 C 
ATOM      4  C   UNL     1     109.533 129.082 136.990  0.00  0.00    +0.000 C 
ATOM      5  C   UNL     1     110.961 128.629 137.681  0.00  0.00    +0.000 C 
ATOM      6  C   UNL     1     109.873 129.549 137.578  0.00  0.00    +0.000 C 
ATOM      7  C   UNL     1     111.676 128.402 138.027  0.00  0.00    +0.000 C 
ENDROOT
BRANCH   2   8
ATOM      8  O   UNL     1     109.567 127.920 136.159  0.00  0.00    +0.000 OA
BRANCH   8  10
ATOM      9  O   UNL     1     108.854 127.166 137.142  0.00  0.00    +0.000 OA
ATOM     10  C   UNL     1     109.117 127.260 136.365  0.00  0.00    +0.000 C 
ATOM     11  C   UNL     1     108.930 126.693 135.795  0.00  0.00    +0.000 C 
ENDBRANCH   8  10
ENDBRANCH   2   8
BRANCH   3  12
ATOM     12  O   UNL     1     110.996 127.467 136.850  0.00  0.00    +0.000 OA
BRANCH  12  14
ATOM     13  O   UNL     1     111.976 128.067 136.000  0.00  0.00    +0.000 OA
ATOM     14  C   UNL     1     111.767 127.496 136.558  0.00  0.00    +0.000 C 
BRANCH  14  15
ATOM     15  C   UNL     1     112.329 126.953 136.823  0.00  0.00    +0.000 C 
ATOM     16  C   UNL     1     112.659 126.410 136.296  0.00  0.00    +0.000 C 
BRANCH  16  18
ATOM     17  O   UNL     1     114.906 124.241 137.361  0.00  0.00    +0.000 OA
ATOM     18  C   UNL     1     113.221 125.868 136.562  0.00  0.00    +0.000 A 
ATOM     19  C   UNL     1     112.985 125.118 136.811  0.00  0.00    +0.000 A 
ATOM     20  C   UNL     1     114.019 126.076 136.580  0.00  0.00    +0.000 A 
ATOM     21  C   UNL     1     113.546 124.575 137.078  0.00  0.00    +0.000 A 
ATOM     22  C   UNL     1     114.582 125.534 136.846  0.00  0.00    +0.000 A 
ATOM     23  C   UNL     1     114.345 124.783 137.095  0.00  0.00    +0.000 A 
ENDBRANCH  16  18
ENDBRANCH  14  15
ENDBRANCH  12  14
ENDBRANCH   3  12
BRANCH   4  24
ATOM     24  O   UNL     1     108.819 129.308 136.645  0.00  0.00    +0.000 OA
BRANCH  24  26
ATOM     25  O   UNL     1     109.511 129.838 135.512  0.00  0.00    +0.000 OA
ATOM     26  C   UNL     1     108.819 129.762 135.955  0.00  0.00    +0.000 C 
ATOM     27  C   UNL     1     108.129 130.138 135.708  0.00  0.00    +0.000 C 
ENDBRANCH  24  26
ENDBRANCH   4  24
BRANCH   6  28
ATOM     28  O   UNL     1     109.500 130.244 137.822  0.00  0.00    +0.000 OA
BRANCH  28  33
ATOM     29  O   UNL     1     109.833 131.414 139.633  0.00  0.00    +0.000 OA
ATOM     30  O   UNL     1     108.908 129.216 138.969  0.00  0.00    +0.000 OA
ATOM     31  O   UNL     1     108.611 128.893 140.344  0.00  0.00    +0.000 OA
ATOM     32  O   UNL     1     109.262 130.831 142.430  0.00  0.00    +0.000 OA
ATOM     33  C   UNL     1     109.512 130.462 138.617  0.00  0.00    +0.000 A 
ATOM     34  C   UNL     1     109.821 131.195 138.838  0.00  0.00    +0.000 A 
ATOM     35  C   UNL     1     109.216 129.949 139.190  0.00  0.00    +0.000 A 
ATOM     36  C   UNL     1     109.229 130.168 139.986  0.00  0.00    +0.000 A 
ATOM     37  C   UNL     1     109.537 130.900 140.208  0.00  0.00    +0.000 A 
ATOM     38  C   UNL     1     108.917 129.624 140.575  0.00  0.00    +0.000 A 
ATOM     39  C   UNL     1     109.556 131.140 141.032  0.00  0.00    +0.000 A 
ATOM     40  C   UNL     1     108.927 129.846 141.404  0.00  0.00    +0.000 A 
ATOM     41  C   UNL     1     109.249 130.609 141.635  0.00  0.00    +0.000 A 
BRANCH  34  43
ATOM     42  O   UNL     1     111.005 133.250 136.544  0.00  0.00    +0.000 OA
ATOM     43  C   UNL     1     110.116 131.708 138.265  0.00  0.00    +0.000 A 
ATOM     44  C   UNL     1     110.918 131.692 138.070  0.00  0.00    +0.000 A 
ATOM     45  C   UNL     1     109.611 132.239 137.885  0.00  0.00    +0.000 A 
ATOM     46  C   UNL     1     111.215 132.206 137.496  0.00  0.00    +0.000 A 
ATOM     47  C   UNL     1     109.907 132.753 137.312  0.00  0.00    +0.000 A 
ATOM     48  C   UNL     1     110.709 132.736 137.118  0.00  0.00    +0.000 A 
ENDBRANCH  34  43
ENDBRANCH  28  33
ENDBRANCH   6  28
TORSDOF 11
ENDMDL
MODEL 4
REMARK VINA RESULT:      -8.7      1.277      3.197
REMARK  Name = 44258963
REMARK  11 active torsions:
REMARK  status: ('A' for Active; 'I' for Inactive)
REMARK    1  A    between atoms: O_2  and  C_15
REMARK    2  A    between atoms: O_2  and  C_22
REMARK    3  A    between atoms: O_3  and  C_16
REMARK    4  A    between atoms: O_3  and  C_23
REMARK    5  A    between atoms: O_4  and  C_17
REMARK    6  A    between atoms: O_4  and  C_24
REMARK    7  A    between atoms: O_5  and  C_19
REMARK    8  A    between atoms: O_5  and  C_21
REMARK    9  A    between atoms: C_23  and  C_30
REMARK   10  A    between atoms: C_25  and  C_32
REMARK   11  A    between atoms: C_35  and  C_40
REMARK                            x       y       z     vdW  Elec       q    Type
REMARK                         _______ _______ _______ _____ _____    ______ ____
ROOT
ATOM      1  O   UNL     1     111.852 129.165 138.557  0.00  0.00    +0.000 OA
ATOM      2  C   UNL     1     111.984 128.491 137.057  0.00  0.00    +0.000 C 
ATOM      3  C   UNL     1     111.454 129.109 137.185  0.00  0.00    +0.000 C 
ATOM      4  C   UNL     1     112.449 128.209 137.677  0.00  0.00    +0.000 C 
ATOM      5  C   UNL     1     111.388 129.446 137.936  0.00  0.00    +0.000 C 
ATOM      6  C   UNL     1     112.383 128.546 138.427  0.00  0.00    +0.000 C 
ATOM      7  C   UNL     1     110.857 130.065 138.065  0.00  0.00    +0.000 C 
ENDROOT
BRANCH   2   8
ATOM      8  O   UNL     1     112.050 128.154 136.307  0.00  0.00    +0.000 OA
BRANCH   8  10
ATOM      9  O   UNL     1     113.009 129.144 135.930  0.00  0.00    +0.000 OA
ATOM     10  C   UNL     1     112.502 128.526 135.725  0.00  0.00    +0.000 C 
ATOM     11  C   UNL     1     112.448 128.280 134.939  0.00  0.00    +0.000 C 
ENDBRANCH   8  10
ENDBRANCH   2   8
BRANCH   3  12
ATOM     12  O   UNL     1     110.989 129.391 136.565  0.00  0.00    +0.000 OA
BRANCH  12  14
ATOM     13  O   UNL     1     109.762 128.858 137.071  0.00  0.00    +0.000 OA
ATOM     14  C   UNL     1     110.170 129.442 136.654  0.00  0.00    +0.000 C 
BRANCH  14  15
ATOM     15  C   UNL     1     109.758 130.078 136.326  0.00  0.00    +0.000 C 
ATOM     16  C   UNL     1     109.045 129.948 135.932  0.00  0.00    +0.000 C 
BRANCH  16  18
ATOM     17  O   UNL     1     107.400 132.493 134.625  0.00  0.00    +0.000 OA
ATOM     18  C   UNL     1     108.634 130.585 135.604  0.00  0.00    +0.000 A 
ATOM     19  C   UNL     1     107.924 130.834 135.942  0.00  0.00    +0.000 A 
ATOM     20  C   UNL     1     108.933 130.971 134.940  0.00  0.00    +0.000 A 
ATOM     21  C   UNL     1     107.512 131.470 135.616  0.00  0.00    +0.000 A 
ATOM     22  C   UNL     1     108.522 131.608 134.613  0.00  0.00    +0.000 A 
ATOM     23  C   UNL     1     107.812 131.857 134.951  0.00  0.00    +0.000 A 
ENDBRANCH  16  18
ENDBRANCH  14  15
ENDBRANCH  12  14
ENDBRANCH   3  12
BRANCH   4  24
ATOM     24  O   UNL     1     112.979 127.591 137.549  0.00  0.00    +0.000 OA
BRANCH  24  26
ATOM     25  O   UNL     1     111.917 126.643 137.677  0.00  0.00    +0.000 OA
ATOM     26  C   UNL     1     112.721 126.808 137.598  0.00  0.00    +0.000 C 
ATOM     27  C   UNL     1     113.267 126.191 137.568  0.00  0.00    +0.000 C 
ENDBRANCH  24  26
ENDBRANCH   4  24
BRANCH   6  28
ATOM     28  O   UNL     1     112.847 128.265 139.049  0.00  0.00    +0.000 OA
BRANCH  28  33
ATOM     29  O   UNL     1     113.275 129.210 140.969  0.00  0.00    +0.000 OA
ATOM     30  O   UNL     1     113.801 129.523 138.570  0.00  0.00    +0.000 OA
ATOM     31  O   UNL     1     114.594 130.692 138.866  0.00  0.00    +0.000 OA
ATOM     32  O   UNL     1     114.859 131.560 141.643  0.00  0.00    +0.000 OA
ATOM     33  C   UNL     1     113.149 128.790 139.609  0.00  0.00    +0.000 A 
ATOM     34  C   UNL     1     112.973 128.685 140.408  0.00  0.00    +0.000 A 
ATOM     35  C   UNL     1     113.625 129.418 139.370  0.00  0.00    +0.000 A 
ATOM     36  C   UNL     1     113.927 129.943 139.930  0.00  0.00    +0.000 A 
ATOM     37  C   UNL     1     113.753 129.840 140.729  0.00  0.00    +0.000 A 
ATOM     38  C   UNL     1     114.424 130.595 139.668  0.00  0.00    +0.000 A 
ATOM     39  C   UNL     1     114.061 130.379 141.323  0.00  0.00    +0.000 A 
ATOM     40  C   UNL     1     114.741 131.145 140.247  0.00  0.00    +0.000 A 
ATOM     41  C   UNL     1     114.559 131.037 141.080  0.00  0.00    +0.000 A 
BRANCH  34  43
ATOM     42  O   UNL     1     111.064 126.169 141.366  0.00  0.00    +0.000 OA
ATOM     43  C   UNL     1     112.496 128.057 140.648  0.00  0.00    +0.000 A 
ATOM     44  C   UNL     1     111.688 128.173 140.764  0.00  0.00    +0.000 A 
ATOM     45  C   UNL     1     112.827 127.311 140.771  0.00  0.00    +0.000 A 
ATOM     46  C   UNL     1     111.210 127.544 141.004  0.00  0.00    +0.000 A 
ATOM     47  C   UNL     1     112.350 126.682 141.010  0.00  0.00    +0.000 A 
ATOM     48  C   UNL     1     111.542 126.799 141.127  0.00  0.00    +0.000 A 
ENDBRANCH  34  43
ENDBRANCH  28  33
ENDBRANCH   6  28
TORSDOF 11
ENDMDL
MODEL 5
REMARK VINA RESULT:      -8.6      1.929      5.770
REMARK  Name = 44258963
REMARK  11 active torsions:
REMARK  status: ('A' for Active; 'I' for Inactive)
REMARK    1  A    between atoms: O_2  and  C_15
REMARK    2  A    between atoms: O_2  and  C_22
REMARK    3  A    between atoms: O_3  and  C_16
REMARK    4  A    between atoms: O_3  and  C_23
REMARK    5  A    between atoms: O_4  and  C_17
REMARK    6  A    between atoms: O_4  and  C_24
REMARK    7  A    between atoms: O_5  and  C_19
REMARK    8  A    between atoms: O_5  and  C_21
REMARK    9  A    between atoms: C_23  and  C_30
REMARK   10  A    between atoms: C_25  and  C_32
REMARK   11  A    between atoms: C_35  and  C_40
REMARK                            x       y       z     vdW  Elec       q    Type
REMARK                         _______ _______ _______ _____ _____    ______ ____
ROOT
ATOM      1  O   UNL     1     110.839 129.404 137.486  0.00  0.00    +0.000 OA
ATOM      2  C   UNL     1     112.443 129.632 137.794  0.00  0.00    +0.000 C 
ATOM      3  C   UNL     1     111.909 129.568 138.419  0.00  0.00    +0.000 C 
ATOM      4  C   UNL     1     112.177 129.582 137.015  0.00  0.00    +0.000 C 
ATOM      5  C   UNL     1     111.107 129.454 138.264  0.00  0.00    +0.000 C 
ATOM      6  C   UNL     1     111.374 129.467 136.861  0.00  0.00    +0.000 C 
ATOM      7  C   UNL     1     110.571 129.390 138.890  0.00  0.00    +0.000 C 
ENDROOT
BRANCH   2   8
ATOM      8  O   UNL     1     113.246 129.746 137.948  0.00  0.00    +0.000 OA
BRANCH   8  10
ATOM      9  O   UNL     1     113.087 131.166 137.919  0.00  0.00    +0.000 OA
ATOM     10  C   UNL     1     113.529 130.501 138.126  0.00  0.00    +0.000 C 
ATOM     11  C   UNL     1     114.253 130.590 138.512  0.00  0.00    +0.000 C 
ENDBRANCH   8  10
ENDBRANCH   2   8
BRANCH   3  12
ATOM     12  O   UNL     1     112.176 129.619 139.198  0.00  0.00    +0.000 OA
BRANCH  12  14
ATOM     13  O   UNL     1     112.124 128.213 139.451  0.00  0.00    +0.000 OA
ATOM     14  C   UNL     1     112.050 128.991 139.718  0.00  0.00    +0.000 C 
BRANCH  14  15
ATOM     15  C   UNL     1     111.850 129.139 140.504  0.00  0.00    +0.000 C 
ATOM     16  C   UNL     1     112.342 128.877 141.112  0.00  0.00    +0.000 C 
BRANCH  16  18
ATOM     17  O   UNL     1     111.538 129.476 144.256  0.00  0.00    +0.000 OA
ATOM     18  C   UNL     1     112.141 129.026 141.898  0.00  0.00    +0.000 A 
ATOM     19  C   UNL     1     112.264 129.776 142.220  0.00  0.00    +0.000 A 
ATOM     20  C   UNL     1     111.817 128.427 142.362  0.00  0.00    +0.000 A 
ATOM     21  C   UNL     1     112.063 129.926 143.006  0.00  0.00    +0.000 A 
ATOM     22  C   UNL     1     111.616 128.576 143.149  0.00  0.00    +0.000 A 
ATOM     23  C   UNL     1     111.739 129.326 143.470  0.00  0.00    +0.000 A 
ENDBRANCH  16  18
ENDBRANCH  14  15
ENDBRANCH  12  14
ENDBRANCH   3  12
BRANCH   4  24
ATOM     24  O   UNL     1     112.711 129.645 136.391  0.00  0.00    +0.000 OA
BRANCH  24  26
ATOM     25  O   UNL     1     113.045 128.263 136.530  0.00  0.00    +0.000 OA
ATOM     26  C   UNL     1     113.118 128.978 136.125  0.00  0.00    +0.000 C 
ATOM     27  C   UNL     1     113.597 129.026 135.456  0.00  0.00    +0.000 C 
ENDBRANCH  24  26
ENDBRANCH   4  24
BRANCH   6  28
ATOM     28  O   UNL     1     111.106 129.417 136.082  0.00  0.00    +0.000 OA
BRANCH  28  33
ATOM     29  O   UNL     1     109.083 129.685 135.310  0.00  0.00    +0.000 OA
ATOM     30  O   UNL     1     110.891 131.034 136.328  0.00  0.00    +0.000 OA
ATOM     31  O   UNL     1     110.086 132.229 136.245  0.00  0.00    +0.000 OA
ATOM     32  O   UNL     1     107.400 132.054 135.111  0.00  0.00    +0.000 OA
ATOM     33  C   UNL     1     110.396 129.776 135.866  0.00  0.00    +0.000 A 
ATOM     34  C   UNL     1     109.793 129.326 135.526  0.00  0.00    +0.000 A 
ATOM     35  C   UNL     1     110.288 130.584 135.989  0.00  0.00    +0.000 A 
ATOM     36  C   UNL     1     109.578 130.943 135.772  0.00  0.00    +0.000 A 
ATOM     37  C   UNL     1     108.975 130.494 135.433  0.00  0.00    +0.000 A 
ATOM     38  C   UNL     1     109.477 131.787 135.905  0.00  0.00    +0.000 A 
ATOM     39  C   UNL     1     108.230 130.856 135.203  0.00  0.00    +0.000 A 
ATOM     40  C   UNL     1     108.740 132.167 135.682  0.00  0.00    +0.000 A 
ATOM     41  C   UNL     1     108.111 131.698 135.328  0.00  0.00    +0.000 A 
BRANCH  34  43
ATOM     42  O   UNL     1     110.223 126.091 135.036  0.00  0.00    +0.000 OA
ATOM     43  C   UNL     1     109.901 128.518 135.404  0.00  0.00    +0.000 A 
ATOM     44  C   UNL     1     109.605 127.975 135.950  0.00  0.00    +0.000 A 
ATOM     45  C   UNL     1     110.304 128.251 134.735  0.00  0.00    +0.000 A 
ATOM     46  C   UNL     1     109.713 127.165 135.827  0.00  0.00    +0.000 A 
ATOM     47  C   UNL     1     110.411 127.443 134.612  0.00  0.00    +0.000 A 
ATOM     48  C   UNL     1     110.116 126.900 135.158  0.00  0.00    +0.000 A 
ENDBRANCH  34  43
ENDBRANCH  28  33
ENDBRANCH   6  28
TORSDOF 11
ENDMDL
MODEL 6
REMARK VINA RESULT:      -8.6      1.687      6.193
REMARK  Name = 44258963
REMARK  11 active torsions:
REMARK  status: ('A' for Active; 'I' for Inactive)
REMARK    1  A    between atoms: O_2  and  C_15
REMARK    2  A    between atoms: O_2  and  C_22
REMARK    3  A    between atoms: O_3  and  C_16
REMARK    4  A    between atoms: O_3  and  C_23
REMARK    5  A    between atoms: O_4  and  C_17
REMARK    6  A    between atoms: O_4  and  C_24
REMARK    7  A    between atoms: O_5  and  C_19
REMARK    8  A    between atoms: O_5  and  C_21
REMARK    9  A    between atoms: C_23  and  C_30
REMARK   10  A    between atoms: C_25  and  C_32
REMARK   11  A    between atoms: C_35  and  C_40
REMARK                            x       y       z     vdW  Elec       q    Type
REMARK                         _______ _______ _______ _____ _____    ______ ____
ROOT
ATOM      1  O   UNL     1     110.642 128.609 136.403  0.00  0.00    +0.000 OA
ATOM      2  C   UNL     1     110.471 127.450 137.565  0.00  0.00    +0.000 C 
ATOM      3  C   UNL     1     110.554 127.232 136.774  0.00  0.00    +0.000 C 
ATOM      4  C   UNL     1     110.473 128.248 137.776  0.00  0.00    +0.000 C 
ATOM      5  C   UNL     1     110.640 127.811 136.193  0.00  0.00    +0.000 C 
ATOM      6  C   UNL     1     110.558 128.827 137.194  0.00  0.00    +0.000 C 
ATOM      7  C   UNL     1     110.723 127.593 135.401  0.00  0.00    +0.000 C 
ENDROOT
BRANCH   2   8
ATOM      8  O   UNL     1     110.385 126.871 138.146  0.00  0.00    +0.000 OA
BRANCH   8  10
ATOM      9  O   UNL     1     108.972 126.859 137.934  0.00  0.00    +0.000 OA
ATOM     10  C   UNL     1     109.642 126.541 138.294  0.00  0.00    +0.000 C 
ATOM     11  C   UNL     1     109.572 125.895 138.802  0.00  0.00    +0.000 C 
ENDBRANCH   8  10
ENDBRANCH   2   8
BRANCH   3  12
ATOM     12  O   UNL     1     110.552 126.434 136.563  0.00  0.00    +0.000 OA
BRANCH  12  14
ATOM     13  O   UNL     1     111.066 126.020 135.295  0.00  0.00    +0.000 OA
ATOM     14  C   UNL     1     111.167 126.127 136.108  0.00  0.00    +0.000 C 
BRANCH  14  15
ATOM     15  C   UNL     1     111.884 125.926 136.463  0.00  0.00    +0.000 C 
ATOM     16  C   UNL     1     112.326 125.293 136.173  0.00  0.00    +0.000 C 
BRANCH  16  18
ATOM     17  O   UNL     1     115.191 124.490 137.599  0.00  0.00    +0.000 OA
ATOM     18  C   UNL     1     113.043 125.093 136.529  0.00  0.00    +0.000 A 
ATOM     19  C   UNL     1     113.117 124.376 136.931  0.00  0.00    +0.000 A 
ATOM     20  C   UNL     1     113.684 125.608 136.484  0.00  0.00    +0.000 A 
ATOM     21  C   UNL     1     113.833 124.175 137.288  0.00  0.00    +0.000 A 
ATOM     22  C   UNL     1     114.401 125.408 136.840  0.00  0.00    +0.000 A 
ATOM     23  C   UNL     1     114.475 124.691 137.243  0.00  0.00    +0.000 A 
ENDBRANCH  16  18
ENDBRANCH  14  15
ENDBRANCH  12  14
ENDBRANCH   3  12
BRANCH   4  24
ATOM     24  O   UNL     1     110.389 128.467 138.566  0.00  0.00    +0.000 OA
BRANCH  24  26
ATOM     25  O   UNL     1     111.774 128.199 138.795  0.00  0.00    +0.000 OA
ATOM     26  C   UNL     1     111.050 128.493 139.059  0.00  0.00    +0.000 C 
ATOM     27  C   UNL     1     110.988 128.814 139.816  0.00  0.00    +0.000 C 
ENDBRANCH  24  26
ENDBRANCH   4  24
BRANCH   6  28
ATOM     28  O   UNL     1     110.561 129.625 137.404  0.00  0.00    +0.000 OA
BRANCH  28  33
ATOM     29  O   UNL     1     110.321 131.360 136.101  0.00  0.00    +0.000 OA
ATOM     30  O   UNL     1     108.960 129.509 137.021  0.00  0.00    +0.000 OA
ATOM     31  O   UNL     1     107.786 129.993 136.336  0.00  0.00    +0.000 OA
ATOM     32  O   UNL     1     107.994 132.396 134.688  0.00  0.00    +0.000 OA
ATOM     33  C   UNL     1     110.214 130.184 136.906  0.00  0.00    +0.000 A 
ATOM     34  C   UNL     1     110.668 130.801 136.599  0.00  0.00    +0.000 A 
ATOM     35  C   UNL     1     109.414 130.126 136.715  0.00  0.00    +0.000 A 
ATOM     36  C   UNL     1     109.067 130.684 136.217  0.00  0.00    +0.000 A 
ATOM     37  C   UNL     1     109.520 131.302 135.910  0.00  0.00    +0.000 A 
ATOM     38  C   UNL     1     108.232 130.613 136.024  0.00  0.00    +0.000 A 
ATOM     39  C   UNL     1     109.172 131.890 135.390  0.00  0.00    +0.000 A 
ATOM     40  C   UNL     1     107.865 131.192 135.506  0.00  0.00    +0.000 A 
ATOM     41  C   UNL     1     108.338 131.835 135.187  0.00  0.00    +0.000 A 
BRANCH  34  43
ATOM     42  O   UNL     1     113.870 131.035 137.365  0.00  0.00    +0.000 OA
ATOM     43  C   UNL     1     111.468 130.860 136.791  0.00  0.00    +0.000 A 
ATOM     44  C   UNL     1     111.699 131.229 137.491  0.00  0.00    +0.000 A 
ATOM     45  C   UNL     1     112.038 130.549 136.282  0.00  0.00    +0.000 A 
ATOM     46  C   UNL     1     112.500 131.288 137.683  0.00  0.00    +0.000 A 
ATOM     47  C   UNL     1     112.838 130.607 136.473  0.00  0.00    +0.000 A 
ATOM     48  C   UNL     1     113.069 130.977 137.173  0.00  0.00    +0.000 A 
ENDBRANCH  34  43
ENDBRANCH  28  33
ENDBRANCH   6  28
TORSDOF 11
ENDMDL
MODEL 7
REMARK VINA RESULT:      -8.6      1.769      5.799
REMARK  Name = 44258963
REMARK  11 active torsions:
REMARK  status: ('A' for Active; 'I' for Inactive)
REMARK    1  A    between atoms: O_2  and  C_15
REMARK    2  A    between atoms: O_2  and  C_22
REMARK    3  A    between atoms: O_3  and  C_16
REMARK    4  A    between atoms: O_3  and  C_23
REMARK    5  A    between atoms: O_4  and  C_17
REMARK    6  A    between atoms: O_4  and  C_24
REMARK    7  A    between atoms: O_5  and  C_19
REMARK    8  A    between atoms: O_5  and  C_21
REMARK    9  A    between atoms: C_23  and  C_30
REMARK   10  A    between atoms: C_25  and  C_32
REMARK   11  A    between atoms: C_35  and  C_40
REMARK                            x       y       z     vdW  Elec       q    Type
REMARK                         _______ _______ _______ _____ _____    ______ ____
ROOT
ATOM      1  O   UNL     1     110.520 129.477 137.205  0.00  0.00    +0.000 OA
ATOM      2  C   UNL     1     112.073 129.249 136.697  0.00  0.00    +0.000 C 
ATOM      3  C   UNL     1     111.576 128.600 136.808  0.00  0.00    +0.000 C 
ATOM      4  C   UNL     1     111.794 130.012 136.840  0.00  0.00    +0.000 C 
ATOM      5  C   UNL     1     110.800 128.714 137.062  0.00  0.00    +0.000 C 
ATOM      6  C   UNL     1     111.017 130.126 137.094  0.00  0.00    +0.000 C 
ATOM      7  C   UNL     1     110.302 128.065 137.173  0.00  0.00    +0.000 C 
ENDROOT
BRANCH   2   8
ATOM      8  O   UNL     1     112.850 129.135 136.443  0.00  0.00    +0.000 OA
BRANCH   8  10
ATOM      9  O   UNL     1     112.413 129.141 135.082  0.00  0.00    +0.000 OA
ATOM     10  C   UNL     1     113.010 129.026 135.640  0.00  0.00    +0.000 C 
ATOM     11  C   UNL     1     113.766 128.803 135.397  0.00  0.00    +0.000 C 
ENDBRANCH   8  10
ENDBRANCH   2   8
BRANCH   3  12
ATOM     12  O   UNL     1     111.856 127.837 136.665  0.00  0.00    +0.000 OA
BRANCH  12  14
ATOM     13  O   UNL     1     111.993 127.560 138.061  0.00  0.00    +0.000 OA
ATOM     14  C   UNL     1     111.905 127.294 137.284  0.00  0.00    +0.000 C 
BRANCH  14  15
ATOM     15  C   UNL     1     111.868 126.485 137.128  0.00  0.00    +0.000 C 
ATOM     16  C   UNL     1     112.431 125.976 137.450  0.00  0.00    +0.000 C 
BRANCH  16  18
ATOM     17  O   UNL     1     112.274 122.740 136.823  0.00  0.00    +0.000 OA
ATOM     18  C   UNL     1     112.392 125.166 137.293  0.00  0.00    +0.000 A 
ATOM     19  C   UNL     1     111.680 124.762 137.389  0.00  0.00    +0.000 A 
ATOM     20  C   UNL     1     113.065 124.762 137.039  0.00  0.00    +0.000 A 
ATOM     21  C   UNL     1     111.640 123.953 137.233  0.00  0.00    +0.000 A 
ATOM     22  C   UNL     1     113.026 123.953 136.882  0.00  0.00    +0.000 A 
ATOM     23  C   UNL     1     112.314 123.548 136.979  0.00  0.00    +0.000 A 
ENDBRANCH  16  18
ENDBRANCH  14  15
ENDBRANCH  12  14
ENDBRANCH   3  12
BRANCH   4  24
ATOM     24  O   UNL     1     112.290 130.661 136.729  0.00  0.00    +0.000 OA
BRANCH  24  26
ATOM     25  O   UNL     1     112.831 130.472 138.038  0.00  0.00    +0.000 OA
ATOM     26  C   UNL     1     112.804 130.896 137.330  0.00  0.00    +0.000 C 
ATOM     27  C   UNL     1     113.290 131.554 137.225  0.00  0.00    +0.000 C 
ENDBRANCH  24  26
ENDBRANCH   4  24
BRANCH   6  28
ATOM     28  O   UNL     1     110.737 130.889 137.237  0.00  0.00    +0.000 OA
BRANCH  28  33
ATOM     29  O   UNL     1     108.661 131.549 137.371  0.00  0.00    +0.000 OA
ATOM     30  O   UNL     1     110.280 130.803 135.654  0.00  0.00    +0.000 OA
ATOM     31  O   UNL     1     109.292 130.958 134.613  0.00  0.00    +0.000 OA
ATOM     32  O   UNL     1     106.615 131.886 135.325  0.00  0.00    +0.000 OA
ATOM     33  C   UNL     1     109.968 131.094 137.018  0.00  0.00    +0.000 A 
ATOM     34  C   UNL     1     109.429 131.343 137.590  0.00  0.00    +0.000 A 
ATOM     35  C   UNL     1     109.740 131.051 136.227  0.00  0.00    +0.000 A 
ATOM     36  C   UNL     1     108.972 131.257 136.007  0.00  0.00    +0.000 A 
ATOM     37  C   UNL     1     108.432 131.506 136.579  0.00  0.00    +0.000 A 
ATOM     38  C   UNL     1     108.745 131.208 135.179  0.00  0.00    +0.000 A 
ATOM     39  C   UNL     1     107.629 131.723 136.364  0.00  0.00    +0.000 A 
ATOM     40  C   UNL     1     107.947 131.421 134.944  0.00  0.00    +0.000 A 
ATOM     41  C   UNL     1     107.384 131.680 135.541  0.00  0.00    +0.000 A 
BRANCH  34  43
ATOM     42  O   UNL     1     110.343 131.515 140.757  0.00  0.00    +0.000 OA
ATOM     43  C   UNL     1     109.657 131.386 138.381  0.00  0.00    +0.000 A 
ATOM     44  C   UNL     1     110.103 132.027 138.648  0.00  0.00    +0.000 A 
ATOM     45  C   UNL     1     109.441 130.788 138.907  0.00  0.00    +0.000 A 
ATOM     46  C   UNL     1     110.332 132.070 139.440  0.00  0.00    +0.000 A 
ATOM     47  C   UNL     1     109.669 130.831 139.698  0.00  0.00    +0.000 A 
ATOM     48  C   UNL     1     110.114 131.472 139.965  0.00  0.00    +0.000 A 
ENDBRANCH  34  43
ENDBRANCH  28  33
ENDBRANCH   6  28
TORSDOF 11
ENDMDL
MODEL 8
REMARK VINA RESULT:      -8.6      2.809      5.979
REMARK  Name = 44258963
REMARK  11 active torsions:
REMARK  status: ('A' for Active; 'I' for Inactive)
REMARK    1  A    between atoms: O_2  and  C_15
REMARK    2  A    between atoms: O_2  and  C_22
REMARK    3  A    between atoms: O_3  and  C_16
REMARK    4  A    between atoms: O_3  and  C_23
REMARK    5  A    between atoms: O_4  and  C_17
REMARK    6  A    between atoms: O_4  and  C_24
REMARK    7  A    between atoms: O_5  and  C_19
REMARK    8  A    between atoms: O_5  and  C_21
REMARK    9  A    between atoms: C_23  and  C_30
REMARK   10  A    between atoms: C_25  and  C_32
REMARK   11  A    between atoms: C_35  and  C_40
REMARK                            x       y       z     vdW  Elec       q    Type
REMARK                         _______ _______ _______ _____ _____    ______ ____
ROOT
ATOM      1  O   UNL     1     111.295 129.526 140.604  0.00  0.00    +0.000 OA
ATOM      2  C   UNL     1     111.731 130.002 139.086  0.00  0.00    +0.000 C 
ATOM      3  C   UNL     1     112.025 129.298 139.397  0.00  0.00    +0.000 C 
ATOM      4  C   UNL     1     111.218 130.469 139.533  0.00  0.00    +0.000 C 
ATOM      5  C   UNL     1     111.807 129.060 140.156  0.00  0.00    +0.000 C 
ATOM      6  C   UNL     1     111.000 130.231 140.292  0.00  0.00    +0.000 C 
ATOM      7  C   UNL     1     112.102 128.354 140.468  0.00  0.00    +0.000 C 
ENDROOT
BRANCH   2   8
ATOM      8  O   UNL     1     111.950 130.240 138.327  0.00  0.00    +0.000 OA
BRANCH   8  10
ATOM      9  O   UNL     1     113.082 130.934 138.853  0.00  0.00    +0.000 OA
ATOM     10  C   UNL     1     112.664 130.637 138.208  0.00  0.00    +0.000 C 
ATOM     11  C   UNL     1     112.959 130.735 137.444  0.00  0.00    +0.000 C 
ENDBRANCH   8  10
ENDBRANCH   2   8
BRANCH   3  12
ATOM     12  O   UNL     1     112.538 128.831 138.950  0.00  0.00    +0.000 OA
BRANCH  12  14
ATOM     13  O   UNL     1     111.501 127.888 138.670  0.00  0.00    +0.000 OA
ATOM     14  C   UNL     1     112.304 128.078 138.707  0.00  0.00    +0.000 C 
BRANCH  14  15
ATOM     15  C   UNL     1     112.870 127.515 138.501  0.00  0.00    +0.000 C 
ATOM     16  C   UNL     1     112.757 127.039 137.837  0.00  0.00    +0.000 C 
BRANCH  16  18
ATOM     17  O   UNL     1     115.027 124.788 137.018  0.00  0.00    +0.000 OA
ATOM     18  C   UNL     1     113.325 126.477 137.631  0.00  0.00    +0.000 A 
ATOM     19  C   UNL     1     113.581 125.927 138.191  0.00  0.00    +0.000 A 
ATOM     20  C   UNL     1     113.636 126.464 136.868  0.00  0.00    +0.000 A 
ATOM     21  C   UNL     1     114.149 125.364 137.987  0.00  0.00    +0.000 A 
ATOM     22  C   UNL     1     114.204 125.901 136.663  0.00  0.00    +0.000 A 
ATOM     23  C   UNL     1     114.460 125.351 137.222  0.00  0.00    +0.000 A 
ENDBRANCH  16  18
ENDBRANCH  14  15
ENDBRANCH  12  14
ENDBRANCH   3  12
BRANCH   4  24
ATOM     24  O   UNL     1     110.924 131.174 139.221  0.00  0.00    +0.000 OA
BRANCH  24  26
ATOM     25  O   UNL     1     109.913 130.447 138.520  0.00  0.00    +0.000 OA
ATOM     26  C   UNL     1     110.248 131.166 138.748  0.00  0.00    +0.000 C 
ATOM     27  C   UNL     1     109.907 131.875 138.503  0.00  0.00    +0.000 C 
ENDBRANCH  24  26
ENDBRANCH   4  24
BRANCH   6  28
ATOM     28  O   UNL     1     110.487 130.697 140.739  0.00  0.00    +0.000 OA
BRANCH  28  33
ATOM     29  O   UNL     1     110.151 130.657 142.895  0.00  0.00    +0.000 OA
ATOM     30  O   UNL     1     111.912 131.322 141.289  0.00  0.00    +0.000 OA
ATOM     31  O   UNL     1     112.779 131.737 142.365  0.00  0.00    +0.000 OA
ATOM     32  O   UNL     1     111.845 131.473 145.120  0.00  0.00    +0.000 OA
ATOM     33  C   UNL     1     110.613 130.788 141.550  0.00  0.00    +0.000 A 
ATOM     34  C   UNL     1     110.025 130.566 142.085  0.00  0.00    +0.000 A 
ATOM     35  C   UNL     1     111.325 131.100 141.824  0.00  0.00    +0.000 A 
ATOM     36  C   UNL     1     111.450 131.191 142.634  0.00  0.00    +0.000 A 
ATOM     37  C   UNL     1     110.864 130.969 143.170  0.00  0.00    +0.000 A 
ATOM     38  C   UNL     1     112.197 131.518 142.908  0.00  0.00    +0.000 A 
ATOM     39  C   UNL     1     110.982 131.059 144.017  0.00  0.00    +0.000 A 
ATOM     40  C   UNL     1     112.334 131.615 143.751  0.00  0.00    +0.000 A 
ATOM     41  C   UNL     1     111.722 131.384 144.309  0.00  0.00    +0.000 A 
BRANCH  34  43
ATOM     42  O   UNL     1     107.175 129.315 140.987  0.00  0.00    +0.000 OA
ATOM     43  C   UNL     1     109.313 130.254 141.811  0.00  0.00    +0.000 A 
ATOM     44  C   UNL     1     109.202 129.437 141.790  0.00  0.00    +0.000 A 
ATOM     45  C   UNL     1     108.711 130.758 141.557  0.00  0.00    +0.000 A 
ATOM     46  C   UNL     1     108.489 129.123 141.515  0.00  0.00    +0.000 A 
ATOM     47  C   UNL     1     107.999 130.446 141.283  0.00  0.00    +0.000 A 
ATOM     48  C   UNL     1     107.888 129.628 141.262  0.00  0.00    +0.000 A 
ENDBRANCH  34  43
ENDBRANCH  28  33
ENDBRANCH   6  28
TORSDOF 11
ENDMDL
MODEL 9
REMARK VINA RESULT:      -8.5      3.485      6.295
REMARK  Name = 44258963
REMARK  11 active torsions:
REMARK  status: ('A' for Active; 'I' for Inactive)
REMARK    1  A    between atoms: O_2  and  C_15
REMARK    2  A    between atoms: O_2  and  C_22
REMARK    3  A    between atoms: O_3  and  C_16
REMARK    4  A    between atoms: O_3  and  C_23
REMARK    5  A    between atoms: O_4  and  C_17
REMARK    6  A    between atoms: O_4  and  C_24
REMARK    7  A    between atoms: O_5  and  C_19
REMARK    8  A    between atoms: O_5  and  C_21
REMARK    9  A    between atoms: C_23  and  C_30
REMARK   10  A    between atoms: C_25  and  C_32
REMARK   11  A    between atoms: C_35  and  C_40
REMARK                            x       y       z     vdW  Elec       q    Type
REMARK                         _______ _______ _______ _____ _____    ______ ____
ROOT
ATOM      1  O   UNL     1     112.153 129.862 141.431  0.00  0.00    +0.000 OA
ATOM      2  C   UNL     1     110.804 129.369 142.243  0.00  0.00    +0.000 C 
ATOM      3  C   UNL     1     111.223 130.029 142.503  0.00  0.00    +0.000 C 
ATOM      4  C   UNL     1     111.058 128.954 141.577  0.00  0.00    +0.000 C 
ATOM      5  C   UNL     1     111.897 130.276 142.097  0.00  0.00    +0.000 C 
ATOM      6  C   UNL     1     111.733 129.201 141.170  0.00  0.00    +0.000 C 
ATOM      7  C   UNL     1     112.317 130.938 142.357  0.00  0.00    +0.000 C 
ENDROOT
BRANCH   2   8
ATOM      8  O   UNL     1     110.129 129.122 142.649  0.00  0.00    +0.000 OA
BRANCH   8  10
ATOM      9  O   UNL     1     109.311 129.968 141.839  0.00  0.00    +0.000 OA
ATOM     10  C   UNL     1     109.402 129.485 142.501  0.00  0.00    +0.000 C 
ATOM     11  C   UNL     1     108.768 129.363 143.014  0.00  0.00    +0.000 C 
ENDBRANCH   8  10
ENDBRANCH   2   8
BRANCH   3  12
ATOM     12  O   UNL     1     110.968 130.444 143.169  0.00  0.00    +0.000 OA
BRANCH  12  14
ATOM     13  O   UNL     1     111.955 129.859 144.023  0.00  0.00    +0.000 OA
ATOM     14  C   UNL     1     111.450 130.486 143.837  0.00  0.00    +0.000 C 
BRANCH  14  15
ATOM     15  C   UNL     1     111.429 131.154 144.321  0.00  0.00    +0.000 C 
ATOM     16  C   UNL     1     111.332 131.071 145.136  0.00  0.00    +0.000 C 
BRANCH  16  18
ATOM     17  O   UNL     1     111.245 133.747 147.065  0.00  0.00    +0.000 OA
ATOM     18  C   UNL     1     111.311 131.741 145.619  0.00  0.00    +0.000 A 
ATOM     19  C   UNL     1     110.601 132.144 145.733  0.00  0.00    +0.000 A 
ATOM     20  C   UNL     1     112.000 132.006 145.986  0.00  0.00    +0.000 A 
ATOM     21  C   UNL     1     110.578 132.813 146.215  0.00  0.00    +0.000 A 
ATOM     22  C   UNL     1     111.978 132.675 146.469  0.00  0.00    +0.000 A 
ATOM     23  C   UNL     1     111.268 133.079 146.583  0.00  0.00    +0.000 A 
ENDBRANCH  16  18
ENDBRANCH  14  15
ENDBRANCH  12  14
ENDBRANCH   3  12
BRANCH   4  24
ATOM     24  O   UNL     1     110.639 128.293 141.317  0.00  0.00    +0.000 OA
BRANCH  24  26
ATOM     25  O   UNL     1     111.294 127.483 142.294  0.00  0.00    +0.000 OA
ATOM     26  C   UNL     1     110.798 127.550 141.638  0.00  0.00    +0.000 C 
ATOM     27  C   UNL     1     110.461 126.875 141.305  0.00  0.00    +0.000 C 
ENDBRANCH  24  26
ENDBRANCH   4  24
BRANCH   6  28
ATOM     28  O   UNL     1     111.988 128.787 140.504  0.00  0.00    +0.000 OA
BRANCH  28  33
ATOM     29  O   UNL     1     113.358 129.447 138.939  0.00  0.00    +0.000 OA
ATOM     30  O   UNL     1     111.063 129.917 139.738  0.00  0.00    +0.000 OA
ATOM     31  O   UNL     1     110.874 130.906 138.704  0.00  0.00    +0.000 OA
ATOM     32  O   UNL     1     113.049 131.430 136.827  0.00  0.00    +0.000 OA
ATOM     33  C   UNL     1     112.291 129.195 139.855  0.00  0.00    +0.000 A 
ATOM     34  C   UNL     1     113.056 129.038 139.589  0.00  0.00    +0.000 A 
ATOM     35  C   UNL     1     111.828 129.760 139.472  0.00  0.00    +0.000 A 
ATOM     36  C   UNL     1     112.130 130.169 138.822  0.00  0.00    +0.000 A 
ATOM     37  C   UNL     1     112.895 130.013 138.555  0.00  0.00    +0.000 A 
ATOM     38  C   UNL     1     111.638 130.756 138.431  0.00  0.00    +0.000 A 
ATOM     39  C   UNL     1     113.222 130.432 137.880  0.00  0.00    +0.000 A 
ATOM     40  C   UNL     1     111.947 131.186 137.754  0.00  0.00    +0.000 A 
ATOM     41  C   UNL     1     112.745 131.022 137.476  0.00  0.00    +0.000 A 
BRANCH  34  43
ATOM     42  O   UNL     1     114.908 126.778 141.121  0.00  0.00    +0.000 OA
ATOM     43  C   UNL     1     113.518 128.474 139.971  0.00  0.00    +0.000 A 
ATOM     44  C   UNL     1     114.076 128.708 140.532  0.00  0.00    +0.000 A 
ATOM     45  C   UNL     1     113.424 127.673 139.794  0.00  0.00    +0.000 A 
ATOM     46  C   UNL     1     114.539 128.143 140.916  0.00  0.00    +0.000 A 
ATOM     47  C   UNL     1     113.887 127.108 140.177  0.00  0.00    +0.000 A 
ATOM     48  C   UNL     1     114.444 127.343 140.738  0.00  0.00    +0.000 A 
ENDBRANCH  34  43
ENDBRANCH  28  33
ENDBRANCH   6  28
TORSDOF 11
ENDMDL
MODEL 10
REMARK VINA RESULT:      -8.5      1.956      4.049
REMARK  Name = 44258963
REMARK  11 active torsions:
REMARK  status: ('A' for Active; 'I' for Inactive)
REMARK    1  A    between atoms: O_2  and  C_15
REMARK    2  A    between atoms: O_2  and  C_22
REMARK    3  A    between atoms: O_3  and  C_16
REMARK    4  A    between atoms: O_3  and  C_23
REMARK    5  A    between atoms: O_4  and  C_17
REMARK    6  A    between atoms: O_4  and  C_24
REMARK    7  A    between atoms: O_5  and  C_19
REMARK    8  A    between atoms: O_5  and  C_21
REMARK    9  A    between atoms: C_23  and  C_30
REMARK   10  A    between atoms: C_25  and  C_32
REMARK   11  A    between atoms: C_35  and  C_40
REMARK                            x       y       z     vdW  Elec       q    Type
REMARK                         _______ _______ _______ _____ _____    ______ ____
ROOT
ATOM      1  O   UNL     1     111.953 127.291 137.163  0.00  0.00    +0.000 OA
ATOM      2  C   UNL     1     110.580 126.726 136.441  0.00  0.00    +0.000 C 
ATOM      3  C   UNL     1     110.725 127.537 136.473  0.00  0.00    +0.000 C 
ATOM      4  C   UNL     1     111.121 126.196 136.770  0.00  0.00    +0.000 C 
ATOM      5  C   UNL     1     111.411 127.819 136.834  0.00  0.00    +0.000 C 
ATOM      6  C   UNL     1     111.807 126.479 137.131  0.00  0.00    +0.000 C 
ATOM      7  C   UNL     1     111.557 128.631 136.866  0.00  0.00    +0.000 C 
ENDROOT
BRANCH   2   8
ATOM      8  O   UNL     1     109.894 126.443 136.081  0.00  0.00    +0.000 OA
BRANCH   8  10
ATOM      9  O   UNL     1     109.152 126.496 137.300  0.00  0.00    +0.000 OA
ATOM     10  C   UNL     1     109.171 126.490 136.476  0.00  0.00    +0.000 C 
ATOM     11  C   UNL     1     108.468 126.531 136.046  0.00  0.00    +0.000 C 
ENDBRANCH   8  10
ENDBRANCH   2   8
BRANCH   3  12
ATOM     12  O   UNL     1     110.184 128.066 136.145  0.00  0.00    +0.000 OA
BRANCH  12  14
ATOM     13  O   UNL     1     111.019 128.448 135.049  0.00  0.00    +0.000 OA
ATOM     14  C   UNL     1     110.441 128.637 135.607  0.00  0.00    +0.000 C 
BRANCH  14  15
ATOM     15  C   UNL     1     110.121 129.397 135.628  0.00  0.00    +0.000 C 
ATOM     16  C   UNL     1     109.526 129.609 135.097  0.00  0.00    +0.000 C 
BRANCH  16  18
ATOM     17  O   UNL     1     108.247 132.650 135.184  0.00  0.00    +0.000 OA
ATOM     18  C   UNL     1     109.207 130.369 135.118  0.00  0.00    +0.000 A 
ATOM     19  C   UNL     1     108.598 130.546 135.647  0.00  0.00    +0.000 A 
ATOM     20  C   UNL     1     109.495 130.953 134.612  0.00  0.00    +0.000 A 
ATOM     21  C   UNL     1     108.278 131.306 135.669  0.00  0.00    +0.000 A 
ATOM     22  C   UNL     1     109.176 131.713 134.634  0.00  0.00    +0.000 A 
ATOM     23  C   UNL     1     108.567 131.890 135.162  0.00  0.00    +0.000 A 
ENDBRANCH  16  18
ENDBRANCH  14  15
ENDBRANCH  12  14
ENDBRANCH   3  12
BRANCH   4  24
ATOM     24  O   UNL     1     110.977 125.385 136.738  0.00  0.00    +0.000 OA
BRANCH  24  26
ATOM     25  O   UNL     1     111.409 125.336 135.377  0.00  0.00    +0.000 OA
ATOM     26  C   UNL     1     111.212 124.949 136.079  0.00  0.00    +0.000 C 
ATOM     27  C   UNL     1     111.251 124.126 136.120  0.00  0.00    +0.000 C 
ENDBRANCH  24  26
ENDBRANCH   4  24
BRANCH   6  28
ATOM     28  O   UNL     1     112.349 125.950 137.460  0.00  0.00    +0.000 OA
BRANCH  28  33
ATOM     29  O   UNL     1     113.973 126.343 138.863  0.00  0.00    +0.000 OA
ATOM     30  O   UNL     1     111.498 126.345 138.817  0.00  0.00    +0.000 OA
ATOM     31  O   UNL     1     111.444 126.743 140.203  0.00  0.00    +0.000 OA
ATOM     32  O   UNL     1     113.941 127.147 141.663  0.00  0.00    +0.000 OA
ATOM     33  C   UNL     1     112.748 126.147 138.154  0.00  0.00    +0.000 A 
ATOM     34  C   UNL     1     113.573 126.146 138.169  0.00  0.00    +0.000 A 
ATOM     35  C   UNL     1     112.323 126.344 138.832  0.00  0.00    +0.000 A 
ATOM     36  C   UNL     1     112.723 126.541 139.527  0.00  0.00    +0.000 A 
ATOM     37  C   UNL     1     113.547 126.541 139.543  0.00  0.00    +0.000 A 
ATOM     38  C   UNL     1     112.269 126.745 140.228  0.00  0.00    +0.000 A 
ATOM     39  C   UNL     1     113.976 126.744 140.259  0.00  0.00    +0.000 A 
ATOM     40  C   UNL     1     112.679 126.951 140.954  0.00  0.00    +0.000 A 
ATOM     41  C   UNL     1     113.539 126.950 140.970  0.00  0.00    +0.000 A 
BRANCH  34  43
ATOM     42  O   UNL     1     115.275 125.357 135.454  0.00  0.00    +0.000 OA
ATOM     43  C   UNL     1     113.998 125.949 137.491  0.00  0.00    +0.000 A 
ATOM     44  C   UNL     1     114.232 126.539 136.964  0.00  0.00    +0.000 A 
ATOM     45  C   UNL     1     114.191 125.161 137.338  0.00  0.00    +0.000 A 
ATOM     46  C   UNL     1     114.658 126.342 136.285  0.00  0.00    +0.000 A 
ATOM     47  C   UNL     1     114.616 124.964 136.660  0.00  0.00    +0.000 A 
ATOM     48  C   UNL     1     114.849 125.554 136.133  0.00  0.00    +0.000 A 
ENDBRANCH  34  43
ENDBRANCH  28  33
ENDBRANCH   6  28
TORSDOF 11
ENDMDL
