MODEL 1
REMARK VINA RESULT:      -8.3      0.000      0.000
REMARK  Name = 131752543
REMARK  14 active torsions:
REMARK  status: ('A' for Active; 'I' for Inactive)
REMARK    1  A    between atoms: O_2  and  C_22
REMARK    2  A    between atoms: O_2  and  C_24
REMARK    3  A    between atoms: O_6  and  C_23
REMARK    4  A    between atoms: O_6  and  C_25
REMARK    5  A    between atoms: O_7  and  C_28
REMARK    6  A    between atoms: O_8  and  C_29
REMARK    7  A    between atoms: O_12  and  C_33
REMARK    8  A    between atoms: O_12  and  C_43
REMARK    9  A    between atoms: O_15  and  C_44
REMARK   10  A    between atoms: C_20  and  C_23
REMARK   11  A    between atoms: C_25  and  C_26
REMARK   12  A    between atoms: C_26  and  C_27
REMARK   13  A    between atoms: C_27  and  C_33
REMARK   14  A    between atoms: C_36  and  C_40
REMARK                            x       y       z     vdW  Elec       q    Type
REMARK                         _______ _______ _______ _____ _____    ______ ____
ROOT
ATOM      1  O   UNL     1     110.289 127.904 136.372  0.00  0.00    +0.000 OA
ATOM      2  O   UNL     1     107.842 129.388 135.940  0.00  0.00    +0.000 OA
ATOM      3  O   UNL     1     107.848 127.965 135.699  0.00  0.00    +0.000 OA
ATOM      4  C   UNL     1     109.813 130.051 136.604  0.00  0.00    +0.000 A 
ATOM      5  C   UNL     1     110.227 129.337 136.599  0.00  0.00    +0.000 A 
ATOM      6  C   UNL     1     109.017 130.067 136.385  0.00  0.00    +0.000 A 
ATOM      7  C   UNL     1     109.846 128.641 136.373  0.00  0.00    +0.000 A 
ATOM      8  C   UNL     1     108.637 129.371 136.159  0.00  0.00    +0.000 A 
ATOM      9  C   UNL     1     109.052 128.658 136.154  0.00  0.00    +0.000 A 
ATOM     10  C   UNL     1     108.644 127.940 135.917  0.00  0.00    +0.000 A 
ATOM     11  C   UNL     1     109.899 127.175 136.138  0.00  0.00    +0.000 A 
ATOM     12  C   UNL     1     109.070 127.193 135.909  0.00  0.00    +0.000 A 
ENDROOT
BRANCH  11  14
ATOM     13  O   UNL     1     111.566 124.328 136.121  0.00  0.00    +0.000 OA
ATOM     14  C   UNL     1     110.316 126.463 136.134  0.00  0.00    +0.000 A 
ATOM     15  C   UNL     1     110.504 126.091 136.845  0.00  0.00    +0.000 A 
ATOM     16  C   UNL     1     110.544 126.124 135.417  0.00  0.00    +0.000 A 
ATOM     17  C   UNL     1     110.921 125.379 136.842  0.00  0.00    +0.000 A 
ATOM     18  C   UNL     1     110.961 125.412 135.413  0.00  0.00    +0.000 A 
ATOM     19  C   UNL     1     111.149 125.040 136.125  0.00  0.00    +0.000 A 
BRANCH  17  20
ATOM     20  O   UNL     1     111.109 125.008 137.553  0.00  0.00    +0.000 OA
ATOM     21  C   UNL     1     111.447 125.442 138.169  0.00  0.00    +0.000 C 
ENDBRANCH  17  20
ENDBRANCH  11  14
BRANCH   5  22
ATOM     22  O   UNL     1     111.023 129.320 136.818  0.00  0.00    +0.000 OA
ATOM     23  C   UNL     1     111.611 129.394 136.245  0.00  0.00    +0.000 C 
ENDBRANCH   5  22
BRANCH   6  24
ATOM     24  O   UNL     1     108.603 130.781 136.390  0.00  0.00    +0.000 OA
ATOM     25  C   UNL     1     108.215 131.037 135.709  0.00  0.00    +0.000 C 
ENDBRANCH   6  24
BRANCH   4  26
ATOM     26  O   UNL     1     110.194 130.747 136.830  0.00  0.00    +0.000 OA
BRANCH  26  35
ATOM     27  O   UNL     1     109.827 130.527 138.193  0.00  0.00    +0.000 OA
ATOM     28  O   UNL     1     109.927 131.844 139.931  0.00  0.00    +0.000 OA
ATOM     29  O   UNL     1     110.528 132.833 138.754  0.00  0.00    +0.000 OA
ATOM     30  O   UNL     1     110.661 132.285 137.204  0.00  0.00    +0.000 OA
ATOM     31  C   UNL     1     109.994 131.569 139.156  0.00  0.00    +0.000 C 
ATOM     32  C   UNL     1     110.294 132.064 138.567  0.00  0.00    +0.000 C 
ATOM     33  C   UNL     1     109.760 130.801 138.969  0.00  0.00    +0.000 C 
ATOM     34  C   UNL     1     110.360 131.790 137.792  0.00  0.00    +0.000 C 
ATOM     35  C   UNL     1     110.127 131.021 137.605  0.00  0.00    +0.000 C 
BRANCH  33  36
ATOM     36  C   UNL     1     109.460 130.307 139.556  0.00  0.00    +0.000 C 
BRANCH  36  37
ATOM     37  O   UNL     1     109.704 129.520 139.600  0.00  0.00    +0.000 OA
BRANCH  37  39
ATOM     38  O   UNL     1     108.536 129.129 140.323  0.00  0.00    +0.000 OA
ATOM     39  C   UNL     1     109.321 128.996 140.108  0.00  0.00    +0.000 C 
BRANCH  39  40
ATOM     40  C   UNL     1     109.723 128.338 140.402  0.00  0.00    +0.000 C 
BRANCH  40  42
ATOM     41  O   UNL     1     109.229 127.507 139.749  0.00  0.00    +0.000 OA
ATOM     42  C   UNL     1     109.313 127.640 140.559  0.00  0.00    +0.000 C 
ATOM     43  C   UNL     1     109.397 127.771 141.369  0.00  0.00    +0.000 C 
BRANCH  42  44
ATOM     44  C   UNL     1     108.903 126.941 140.716  0.00  0.00    +0.000 C 
BRANCH  44  45
ATOM     45  O   UNL     1     109.313 126.228 140.781  0.00  0.00    +0.000 OA
BRANCH  45  47
ATOM     46  O   UNL     1     109.310 124.818 141.010  0.00  0.00    +0.000 OA
ATOM     47  C   UNL     1     108.899 125.523 140.892  0.00  0.00    +0.000 C 
ENDBRANCH  45  47
ENDBRANCH  44  45
ENDBRANCH  42  44
ENDBRANCH  40  42
ENDBRANCH  39  40
ENDBRANCH  37  39
ENDBRANCH  36  37
ENDBRANCH  33  36
ENDBRANCH  26  35
ENDBRANCH   4  26
TORSDOF 14
ENDMDL
MODEL 2
REMARK VINA RESULT:      -8.1      2.629      5.746
REMARK  Name = 131752543
REMARK  14 active torsions:
REMARK  status: ('A' for Active; 'I' for Inactive)
REMARK    1  A    between atoms: O_2  and  C_22
REMARK    2  A    between atoms: O_2  and  C_24
REMARK    3  A    between atoms: O_6  and  C_23
REMARK    4  A    between atoms: O_6  and  C_25
REMARK    5  A    between atoms: O_7  and  C_28
REMARK    6  A    between atoms: O_8  and  C_29
REMARK    7  A    between atoms: O_12  and  C_33
REMARK    8  A    between atoms: O_12  and  C_43
REMARK    9  A    between atoms: O_15  and  C_44
REMARK   10  A    between atoms: C_20  and  C_23
REMARK   11  A    between atoms: C_25  and  C_26
REMARK   12  A    between atoms: C_26  and  C_27
REMARK   13  A    between atoms: C_27  and  C_33
REMARK   14  A    between atoms: C_36  and  C_40
REMARK                            x       y       z     vdW  Elec       q    Type
REMARK                         _______ _______ _______ _____ _____    ______ ____
ROOT
ATOM      1  O   UNL     1     111.605 130.296 137.064  0.00  0.00    +0.000 OA
ATOM      2  O   UNL     1     114.344 129.694 136.349  0.00  0.00    +0.000 OA
ATOM      3  O   UNL     1     114.003 131.041 136.739  0.00  0.00    +0.000 OA
ATOM      4  C   UNL     1     112.575 128.418 136.415  0.00  0.00    +0.000 A 
ATOM      5  C   UNL     1     112.003 128.958 136.663  0.00  0.00    +0.000 A 
ATOM      6  C   UNL     1     113.356 128.664 136.310  0.00  0.00    +0.000 A 
ATOM      7  C   UNL     1     112.211 129.743 136.806  0.00  0.00    +0.000 A 
ATOM      8  C   UNL     1     113.564 129.449 136.453  0.00  0.00    +0.000 A 
ATOM      9  C   UNL     1     112.991 129.989 136.701  0.00  0.00    +0.000 A 
ATOM     10  C   UNL     1     113.220 130.804 136.847  0.00  0.00    +0.000 A 
ATOM     11  C   UNL     1     111.815 131.115 137.214  0.00  0.00    +0.000 A 
ATOM     12  C   UNL     1     112.629 131.371 137.105  0.00  0.00    +0.000 A 
ENDROOT
BRANCH  11  14
ATOM     13  O   UNL     1     109.516 133.265 138.206  0.00  0.00    +0.000 OA
ATOM     14  C   UNL     1     111.240 131.653 137.462  0.00  0.00    +0.000 A 
ATOM     15  C   UNL     1     110.955 131.625 138.236  0.00  0.00    +0.000 A 
ATOM     16  C   UNL     1     110.950 132.218 136.936  0.00  0.00    +0.000 A 
ATOM     17  C   UNL     1     110.381 132.162 138.484  0.00  0.00    +0.000 A 
ATOM     18  C   UNL     1     110.375 132.756 137.183  0.00  0.00    +0.000 A 
ATOM     19  C   UNL     1     110.091 132.728 137.958  0.00  0.00    +0.000 A 
BRANCH  17  20
ATOM     20  O   UNL     1     110.097 132.134 139.257  0.00  0.00    +0.000 OA
ATOM     21  C   UNL     1     110.086 131.417 139.667  0.00  0.00    +0.000 C 
ENDBRANCH  17  20
ENDBRANCH  11  14
BRANCH   5  22
ATOM     22  O   UNL     1     111.222 128.712 136.768  0.00  0.00    +0.000 OA
ATOM     23  C   UNL     1     110.674 128.806 136.158  0.00  0.00    +0.000 C 
ENDBRANCH   5  22
BRANCH   6  24
ATOM     24  O   UNL     1     113.928 128.124 136.063  0.00  0.00    +0.000 OA
ATOM     25  C   UNL     1     114.413 128.303 135.419  0.00  0.00    +0.000 C 
ENDBRANCH   6  24
BRANCH   4  26
ATOM     26  O   UNL     1     112.367 127.632 136.272  0.00  0.00    +0.000 OA
BRANCH  26  35
ATOM     27  O   UNL     1     112.534 127.325 137.658  0.00  0.00    +0.000 OA
ATOM     28  O   UNL     1     112.539 125.411 138.706  0.00  0.00    +0.000 OA
ATOM     29  O   UNL     1     112.291 124.914 137.152  0.00  0.00    +0.000 OA
ATOM     30  O   UNL     1     112.205 126.025 135.935  0.00  0.00    +0.000 OA
ATOM     31  C   UNL     1     112.496 125.966 138.098  0.00  0.00    +0.000 C 
ATOM     32  C   UNL     1     112.372 125.718 137.321  0.00  0.00    +0.000 C 
ATOM     33  C   UNL     1     112.577 126.770 138.267  0.00  0.00    +0.000 C 
ATOM     34  C   UNL     1     112.329 126.274 136.713  0.00  0.00    +0.000 C 
ATOM     35  C   UNL     1     112.410 127.077 136.881  0.00  0.00    +0.000 C 
BRANCH  33  36
ATOM     36  C   UNL     1     112.701 127.018 139.043  0.00  0.00    +0.000 C 
BRANCH  36  37
ATOM     37  O   UNL     1     113.263 127.599 139.207  0.00  0.00    +0.000 OA
BRANCH  37  39
ATOM     38  O   UNL     1     113.507 127.445 140.606  0.00  0.00    +0.000 OA
ATOM     39  C   UNL     1     113.313 127.924 139.963  0.00  0.00    +0.000 C 
BRANCH  39  40
ATOM     40  C   UNL     1     113.170 128.729 140.077  0.00  0.00    +0.000 C 
BRANCH  40  42
ATOM     41  O   UNL     1     114.245 129.088 139.802  0.00  0.00    +0.000 OA
ATOM     42  C   UNL     1     113.738 129.202 140.442  0.00  0.00    +0.000 C 
ATOM     43  C   UNL     1     113.231 129.316 141.084  0.00  0.00    +0.000 C 
BRANCH  42  44
ATOM     44  C   UNL     1     114.306 129.676 140.808  0.00  0.00    +0.000 C 
BRANCH  44  45
ATOM     45  O   UNL     1     114.384 130.468 140.590  0.00  0.00    +0.000 OA
BRANCH  45  47
ATOM     46  O   UNL     1     115.038 131.728 140.748  0.00  0.00    +0.000 OA
ATOM     47  C   UNL     1     115.015 130.913 140.879  0.00  0.00    +0.000 C 
ENDBRANCH  45  47
ENDBRANCH  44  45
ENDBRANCH  42  44
ENDBRANCH  40  42
ENDBRANCH  39  40
ENDBRANCH  37  39
ENDBRANCH  36  37
ENDBRANCH  33  36
ENDBRANCH  26  35
ENDBRANCH   4  26
TORSDOF 14
ENDMDL
MODEL 3
REMARK VINA RESULT:      -8.1      2.134      4.193
REMARK  Name = 131752543
REMARK  14 active torsions:
REMARK  status: ('A' for Active; 'I' for Inactive)
REMARK    1  A    between atoms: O_2  and  C_22
REMARK    2  A    between atoms: O_2  and  C_24
REMARK    3  A    between atoms: O_6  and  C_23
REMARK    4  A    between atoms: O_6  and  C_25
REMARK    5  A    between atoms: O_7  and  C_28
REMARK    6  A    between atoms: O_8  and  C_29
REMARK    7  A    between atoms: O_12  and  C_33
REMARK    8  A    between atoms: O_12  and  C_43
REMARK    9  A    between atoms: O_15  and  C_44
REMARK   10  A    between atoms: C_20  and  C_23
REMARK   11  A    between atoms: C_25  and  C_26
REMARK   12  A    between atoms: C_26  and  C_27
REMARK   13  A    between atoms: C_27  and  C_33
REMARK   14  A    between atoms: C_36  and  C_40
REMARK                            x       y       z     vdW  Elec       q    Type
REMARK                         _______ _______ _______ _____ _____    ______ ____
ROOT
ATOM      1  O   UNL     1     111.803 126.797 137.170  0.00  0.00    +0.000 OA
ATOM      2  O   UNL     1     110.795 128.281 139.441  0.00  0.00    +0.000 OA
ATOM      3  O   UNL     1     112.007 127.512 139.591  0.00  0.00    +0.000 OA
ATOM      4  C   UNL     1     110.024 128.087 137.408  0.00  0.00    +0.000 A 
ATOM      5  C   UNL     1     110.588 127.587 137.075  0.00  0.00    +0.000 A 
ATOM      6  C   UNL     1     110.093 128.319 138.198  0.00  0.00    +0.000 A 
ATOM      7  C   UNL     1     111.222 127.318 137.530  0.00  0.00    +0.000 A 
ATOM      8  C   UNL     1     110.726 128.049 138.653  0.00  0.00    +0.000 A 
ATOM      9  C   UNL     1     111.291 127.549 138.318  0.00  0.00    +0.000 A 
ATOM     10  C   UNL     1     111.945 127.276 138.803  0.00  0.00    +0.000 A 
ATOM     11  C   UNL     1     112.465 126.513 137.638  0.00  0.00    +0.000 A 
ATOM     12  C   UNL     1     112.537 126.754 138.461  0.00  0.00    +0.000 A 
ENDROOT
BRANCH  11  14
ATOM     13  O   UNL     1     114.717 124.512 136.292  0.00  0.00    +0.000 OA
ATOM     14  C   UNL     1     113.028 126.013 137.301  0.00  0.00    +0.000 A 
ATOM     15  C   UNL     1     112.903 125.198 137.292  0.00  0.00    +0.000 A 
ATOM     16  C   UNL     1     113.717 126.328 136.974  0.00  0.00    +0.000 A 
ATOM     17  C   UNL     1     113.465 124.697 136.956  0.00  0.00    +0.000 A 
ATOM     18  C   UNL     1     114.280 125.828 136.637  0.00  0.00    +0.000 A 
ATOM     19  C   UNL     1     114.154 125.012 136.628  0.00  0.00    +0.000 A 
BRANCH  17  20
ATOM     20  O   UNL     1     113.339 123.883 136.946  0.00  0.00    +0.000 OA
ATOM     21  C   UNL     1     112.569 123.584 136.919  0.00  0.00    +0.000 C 
ENDBRANCH  17  20
ENDBRANCH  11  14
BRANCH   5  22
ATOM     22  O   UNL     1     110.519 127.356 136.285  0.00  0.00    +0.000 OA
ATOM     23  C   UNL     1     110.156 126.640 136.095  0.00  0.00    +0.000 C 
ENDBRANCH   5  22
BRANCH   6  24
ATOM     24  O   UNL     1     109.528 128.819 138.531  0.00  0.00    +0.000 OA
ATOM     25  C   UNL     1     109.225 128.656 139.282  0.00  0.00    +0.000 C 
ENDBRANCH   6  24
BRANCH   4  26
ATOM     26  O   UNL     1     109.390 128.356 136.954  0.00  0.00    +0.000 OA
BRANCH  26  35
ATOM     27  O   UNL     1     110.181 129.452 136.490  0.00  0.00    +0.000 OA
ATOM     28  O   UNL     1     109.648 131.187 135.276  0.00  0.00    +0.000 OA
ATOM     29  O   UNL     1     108.195 130.410 135.365  0.00  0.00    +0.000 OA
ATOM     30  O   UNL     1     108.066 128.995 136.204  0.00  0.00    +0.000 OA
ATOM     31  C   UNL     1     109.584 130.479 135.696  0.00  0.00    +0.000 C 
ATOM     32  C   UNL     1     108.857 130.091 135.740  0.00  0.00    +0.000 C 
ATOM     33  C   UNL     1     110.246 130.160 136.070  0.00  0.00    +0.000 C 
ATOM     34  C   UNL     1     108.793 129.383 136.159  0.00  0.00    +0.000 C 
ATOM     35  C   UNL     1     109.455 129.064 136.534  0.00  0.00    +0.000 C 
BRANCH  33  36
ATOM     36  C   UNL     1     110.972 130.548 136.026  0.00  0.00    +0.000 C 
BRANCH  36  37
ATOM     37  O   UNL     1     111.398 130.708 136.714  0.00  0.00    +0.000 OA
BRANCH  37  39
ATOM     38  O   UNL     1     112.645 130.388 136.094  0.00  0.00    +0.000 OA
ATOM     39  C   UNL     1     112.219 130.777 136.684  0.00  0.00    +0.000 C 
BRANCH  39  40
ATOM     40  C   UNL     1     112.616 131.235 137.245  0.00  0.00    +0.000 C 
BRANCH  40  42
ATOM     41  O   UNL     1     112.524 130.950 138.372  0.00  0.00    +0.000 OA
ATOM     42  C   UNL     1     113.111 130.874 137.797  0.00  0.00    +0.000 C 
ATOM     43  C   UNL     1     113.698 130.798 137.223  0.00  0.00    +0.000 C 
BRANCH  42  44
ATOM     44  C   UNL     1     113.606 130.513 138.350  0.00  0.00    +0.000 C 
BRANCH  44  45
ATOM     45  O   UNL     1     113.838 130.925 139.026  0.00  0.00    +0.000 OA
BRANCH  45  47
ATOM     46  O   UNL     1     114.639 131.011 140.206  0.00  0.00    +0.000 OA
ATOM     47  C   UNL     1     114.363 130.579 139.560  0.00  0.00    +0.000 C 
ENDBRANCH  45  47
ENDBRANCH  44  45
ENDBRANCH  42  44
ENDBRANCH  40  42
ENDBRANCH  39  40
ENDBRANCH  37  39
ENDBRANCH  36  37
ENDBRANCH  33  36
ENDBRANCH  26  35
ENDBRANCH   4  26
TORSDOF 14
ENDMDL
MODEL 4
REMARK VINA RESULT:      -8.0      2.117      3.731
REMARK  Name = 131752543
REMARK  14 active torsions:
REMARK  status: ('A' for Active; 'I' for Inactive)
REMARK    1  A    between atoms: O_2  and  C_22
REMARK    2  A    between atoms: O_2  and  C_24
REMARK    3  A    between atoms: O_6  and  C_23
REMARK    4  A    between atoms: O_6  and  C_25
REMARK    5  A    between atoms: O_7  and  C_28
REMARK    6  A    between atoms: O_8  and  C_29
REMARK    7  A    between atoms: O_12  and  C_33
REMARK    8  A    between atoms: O_12  and  C_43
REMARK    9  A    between atoms: O_15  and  C_44
REMARK   10  A    between atoms: C_20  and  C_23
REMARK   11  A    between atoms: C_25  and  C_26
REMARK   12  A    between atoms: C_26  and  C_27
REMARK   13  A    between atoms: C_27  and  C_33
REMARK   14  A    between atoms: C_36  and  C_40
REMARK                            x       y       z     vdW  Elec       q    Type
REMARK                         _______ _______ _______ _____ _____    ______ ____
ROOT
ATOM      1  O   UNL     1     112.815 127.301 137.652  0.00  0.00    +0.000 OA
ATOM      2  O   UNL     1     113.628 129.831 136.506  0.00  0.00    +0.000 OA
ATOM      3  O   UNL     1     113.751 128.633 135.712  0.00  0.00    +0.000 OA
ATOM      4  C   UNL     1     112.809 129.354 138.473  0.00  0.00    +0.000 A 
ATOM      5  C   UNL     1     112.713 128.538 138.407  0.00  0.00    +0.000 A 
ATOM      6  C   UNL     1     113.115 129.786 137.839  0.00  0.00    +0.000 A 
ATOM      7  C   UNL     1     112.921 128.152 137.708  0.00  0.00    +0.000 A 
ATOM      8  C   UNL     1     113.323 129.400 137.139  0.00  0.00    +0.000 A 
ATOM      9  C   UNL     1     113.226 128.583 137.075  0.00  0.00    +0.000 A 
ATOM     10  C   UNL     1     113.446 128.194 136.341  0.00  0.00    +0.000 A 
ATOM     11  C   UNL     1     113.029 126.894 136.927  0.00  0.00    +0.000 A 
ATOM     12  C   UNL     1     113.348 127.343 136.267  0.00  0.00    +0.000 A 
ENDROOT
BRANCH  11  14
ATOM     13  O   UNL     1     112.638 123.627 136.677  0.00  0.00    +0.000 OA
ATOM     14  C   UNL     1     112.931 126.077 136.865  0.00  0.00    +0.000 A 
ATOM     15  C   UNL     1     113.556 125.571 137.049  0.00  0.00    +0.000 A 
ATOM     16  C   UNL     1     112.208 125.766 136.618  0.00  0.00    +0.000 A 
ATOM     17  C   UNL     1     113.459 124.755 136.987  0.00  0.00    +0.000 A 
ATOM     18  C   UNL     1     112.110 124.949 136.555  0.00  0.00    +0.000 A 
ATOM     19  C   UNL     1     112.736 124.444 136.740  0.00  0.00    +0.000 A 
BRANCH  17  20
ATOM     20  O   UNL     1     114.084 124.250 137.171  0.00  0.00    +0.000 OA
ATOM     21  C   UNL     1     114.786 124.557 137.478  0.00  0.00    +0.000 C 
ENDBRANCH  17  20
ENDBRANCH  11  14
BRANCH   5  22
ATOM     22  O   UNL     1     112.407 128.106 139.041  0.00  0.00    +0.000 OA
ATOM     23  C   UNL     1     112.918 127.744 139.578  0.00  0.00    +0.000 C 
ENDBRANCH   5  22
BRANCH   6  24
ATOM     24  O   UNL     1     113.212 130.602 137.905  0.00  0.00    +0.000 OA
ATOM     25  C   UNL     1     113.949 130.943 137.755  0.00  0.00    +0.000 C 
ENDBRANCH   6  24
BRANCH   4  26
ATOM     26  O   UNL     1     112.601 129.740 139.172  0.00  0.00    +0.000 OA
BRANCH  26  35
ATOM     27  O   UNL     1     111.286 129.964 138.661  0.00  0.00    +0.000 OA
ATOM     28  O   UNL     1     109.606 131.090 139.483  0.00  0.00    +0.000 OA
ATOM     29  O   UNL     1     110.740 131.317 140.660  0.00  0.00    +0.000 OA
ATOM     30  O   UNL     1     112.238 130.642 140.505  0.00  0.00    +0.000 OA
ATOM     31  C   UNL     1     110.355 130.752 139.405  0.00  0.00    +0.000 C 
ATOM     32  C   UNL     1     110.922 130.866 139.994  0.00  0.00    +0.000 C 
ATOM     33  C   UNL     1     110.537 130.301 138.739  0.00  0.00    +0.000 C 
ATOM     34  C   UNL     1     111.670 130.528 139.916  0.00  0.00    +0.000 C 
ATOM     35  C   UNL     1     111.852 130.077 139.249  0.00  0.00    +0.000 C 
BRANCH  33  36
ATOM     36  C   UNL     1     109.970 130.188 138.151  0.00  0.00    +0.000 C 
BRANCH  36  37
ATOM     37  O   UNL     1     109.830 129.432 137.852  0.00  0.00    +0.000 OA
BRANCH  37  39
ATOM     38  O   UNL     1     108.588 129.623 137.172  0.00  0.00    +0.000 OA
ATOM     39  C   UNL     1     109.361 129.333 137.181  0.00  0.00    +0.000 C 
BRANCH  39  40
ATOM     40  C   UNL     1     109.663 128.944 136.519  0.00  0.00    +0.000 C 
BRANCH  40  42
ATOM     41  O   UNL     1     109.496 127.843 136.867  0.00  0.00    +0.000 OA
ATOM     42  C   UNL     1     109.270 128.288 136.210  0.00  0.00    +0.000 C 
ATOM     43  C   UNL     1     109.044 128.733 135.553  0.00  0.00    +0.000 C 
BRANCH  42  44
ATOM     44  C   UNL     1     108.876 127.632 135.901  0.00  0.00    +0.000 C 
BRANCH  44  45
ATOM     45  O   UNL     1     109.294 127.069 135.466  0.00  0.00    +0.000 OA
BRANCH  45  47
ATOM     46  O   UNL     1     109.307 125.861 134.703  0.00  0.00    +0.000 OA
ATOM     47  C   UNL     1     108.911 126.389 135.198  0.00  0.00    +0.000 C 
ENDBRANCH  45  47
ENDBRANCH  44  45
ENDBRANCH  42  44
ENDBRANCH  40  42
ENDBRANCH  39  40
ENDBRANCH  37  39
ENDBRANCH  36  37
ENDBRANCH  33  36
ENDBRANCH  26  35
ENDBRANCH   4  26
TORSDOF 14
ENDMDL
MODEL 5
REMARK VINA RESULT:      -8.0      2.847      5.252
REMARK  Name = 131752543
REMARK  14 active torsions:
REMARK  status: ('A' for Active; 'I' for Inactive)
REMARK    1  A    between atoms: O_2  and  C_22
REMARK    2  A    between atoms: O_2  and  C_24
REMARK    3  A    between atoms: O_6  and  C_23
REMARK    4  A    between atoms: O_6  and  C_25
REMARK    5  A    between atoms: O_7  and  C_28
REMARK    6  A    between atoms: O_8  and  C_29
REMARK    7  A    between atoms: O_12  and  C_33
REMARK    8  A    between atoms: O_12  and  C_43
REMARK    9  A    between atoms: O_15  and  C_44
REMARK   10  A    between atoms: C_20  and  C_23
REMARK   11  A    between atoms: C_25  and  C_26
REMARK   12  A    between atoms: C_26  and  C_27
REMARK   13  A    between atoms: C_27  and  C_33
REMARK   14  A    between atoms: C_36  and  C_40
REMARK                            x       y       z     vdW  Elec       q    Type
REMARK                         _______ _______ _______ _____ _____    ______ ____
ROOT
ATOM      1  O   UNL     1     112.849 128.001 136.443  0.00  0.00    +0.000 OA
ATOM      2  O   UNL     1     113.198 125.214 137.138  0.00  0.00    +0.000 OA
ATOM      3  O   UNL     1     114.311 125.937 136.572  0.00  0.00    +0.000 OA
ATOM      4  C   UNL     1     111.459 126.520 137.316  0.00  0.00    +0.000 A 
ATOM      5  C   UNL     1     111.763 127.225 137.015  0.00  0.00    +0.000 A 
ATOM      6  C   UNL     1     111.938 125.849 137.357  0.00  0.00    +0.000 A 
ATOM      7  C   UNL     1     112.545 127.260 136.754  0.00  0.00    +0.000 A 
ATOM      8  C   UNL     1     112.720 125.884 137.097  0.00  0.00    +0.000 A 
ATOM      9  C   UNL     1     113.023 126.590 136.795  0.00  0.00    +0.000 A 
ATOM     10  C   UNL     1     113.839 126.613 136.527  0.00  0.00    +0.000 A 
ATOM     11  C   UNL     1     113.662 128.044 136.170  0.00  0.00    +0.000 A 
ATOM     12  C   UNL     1     114.161 127.345 136.212  0.00  0.00    +0.000 A 
ENDROOT
BRANCH  11  14
ATOM     13  O   UNL     1     114.865 130.872 134.967  0.00  0.00    +0.000 OA
ATOM     14  C   UNL     1     113.963 128.751 135.869  0.00  0.00    +0.000 A 
ATOM     15  C   UNL     1     114.115 129.384 136.376  0.00  0.00    +0.000 A 
ATOM     16  C   UNL     1     114.112 128.825 135.061  0.00  0.00    +0.000 A 
ATOM     17  C   UNL     1     114.415 130.091 136.076  0.00  0.00    +0.000 A 
ATOM     18  C   UNL     1     114.413 129.532 134.760  0.00  0.00    +0.000 A 
ATOM     19  C   UNL     1     114.564 130.165 135.268  0.00  0.00    +0.000 A 
BRANCH  17  20
ATOM     20  O   UNL     1     114.566 130.723 136.583  0.00  0.00    +0.000 OA
ATOM     21  C   UNL     1     114.031 130.907 137.184  0.00  0.00    +0.000 C 
ENDBRANCH  17  20
ENDBRANCH  11  14
BRANCH   5  22
ATOM     22  O   UNL     1     111.284 127.896 136.974  0.00  0.00    +0.000 OA
ATOM     23  C   UNL     1     110.886 128.078 136.274  0.00  0.00    +0.000 C 
ENDBRANCH   5  22
BRANCH   6  24
ATOM     24  O   UNL     1     111.634 125.144 137.659  0.00  0.00    +0.000 OA
ATOM     25  C   UNL     1     111.647 124.459 137.197  0.00  0.00    +0.000 C 
ENDBRANCH   6  24
BRANCH   4  26
ATOM     26  O   UNL     1     110.677 126.485 137.577  0.00  0.00    +0.000 OA
BRANCH  26  35
ATOM     27  O   UNL     1     111.095 126.861 138.891  0.00  0.00    +0.000 OA
ATOM     28  O   UNL     1     109.970 127.037 140.753  0.00  0.00    +0.000 OA
ATOM     29  O   UNL     1     108.780 126.561 139.713  0.00  0.00    +0.000 OA
ATOM     30  O   UNL     1     109.134 126.285 138.125  0.00  0.00    +0.000 OA
ATOM     31  C   UNL     1     110.147 126.899 139.959  0.00  0.00    +0.000 C 
ATOM     32  C   UNL     1     109.552 126.661 139.439  0.00  0.00    +0.000 C 
ATOM     33  C   UNL     1     110.919 126.999 139.685  0.00  0.00    +0.000 C 
ATOM     34  C   UNL     1     109.729 126.523 138.645  0.00  0.00    +0.000 C 
ATOM     35  C   UNL     1     110.501 126.623 138.371  0.00  0.00    +0.000 C 
BRANCH  33  36
ATOM     36  C   UNL     1     111.513 127.237 140.204  0.00  0.00    +0.000 C 
BRANCH  36  37
ATOM     37  O   UNL     1     111.907 127.952 140.082  0.00  0.00    +0.000 OA
BRANCH  37  39
ATOM     38  O   UNL     1     112.743 127.803 141.231  0.00  0.00    +0.000 OA
ATOM     39  C   UNL     1     112.617 128.104 140.473  0.00  0.00    +0.000 C 
BRANCH  39  40
ATOM     40  C   UNL     1     113.201 128.558 140.108  0.00  0.00    +0.000 C 
BRANCH  40  42
ATOM     41  O   UNL     1     112.964 129.654 140.430  0.00  0.00    +0.000 OA
ATOM     42  C   UNL     1     113.600 129.139 140.535  0.00  0.00    +0.000 C 
ATOM     43  C   UNL     1     114.237 128.626 140.642  0.00  0.00    +0.000 C 
BRANCH  42  44
ATOM     44  C   UNL     1     113.999 129.722 140.964  0.00  0.00    +0.000 C 
BRANCH  44  45
ATOM     45  O   UNL     1     114.358 130.350 140.568  0.00  0.00    +0.000 OA
BRANCH  45  47
ATOM     46  O   UNL     1     114.978 131.631 140.701  0.00  0.00    +0.000 OA
ATOM     47  C   UNL     1     114.858 130.862 140.978  0.00  0.00    +0.000 C 
ENDBRANCH  45  47
ENDBRANCH  44  45
ENDBRANCH  42  44
ENDBRANCH  40  42
ENDBRANCH  39  40
ENDBRANCH  37  39
ENDBRANCH  36  37
ENDBRANCH  33  36
ENDBRANCH  26  35
ENDBRANCH   4  26
TORSDOF 14
ENDMDL
MODEL 6
REMARK VINA RESULT:      -8.0      2.234      5.955
REMARK  Name = 131752543
REMARK  14 active torsions:
REMARK  status: ('A' for Active; 'I' for Inactive)
REMARK    1  A    between atoms: O_2  and  C_22
REMARK    2  A    between atoms: O_2  and  C_24
REMARK    3  A    between atoms: O_6  and  C_23
REMARK    4  A    between atoms: O_6  and  C_25
REMARK    5  A    between atoms: O_7  and  C_28
REMARK    6  A    between atoms: O_8  and  C_29
REMARK    7  A    between atoms: O_12  and  C_33
REMARK    8  A    between atoms: O_12  and  C_43
REMARK    9  A    between atoms: O_15  and  C_44
REMARK   10  A    between atoms: C_20  and  C_23
REMARK   11  A    between atoms: C_25  and  C_26
REMARK   12  A    between atoms: C_26  and  C_27
REMARK   13  A    between atoms: C_27  and  C_33
REMARK   14  A    between atoms: C_36  and  C_40
REMARK                            x       y       z     vdW  Elec       q    Type
REMARK                         _______ _______ _______ _____ _____    ______ ____
ROOT
ATOM      1  O   UNL     1     112.607 128.162 139.518  0.00  0.00    +0.000 OA
ATOM      2  O   UNL     1     109.853 127.419 140.005  0.00  0.00    +0.000 OA
ATOM      3  O   UNL     1     110.319 128.708 140.455  0.00  0.00    +0.000 OA
ATOM      4  C   UNL     1     111.470 126.332 139.022  0.00  0.00    +0.000 A 
ATOM      5  C   UNL     1     112.086 126.877 139.087  0.00  0.00    +0.000 A 
ATOM      6  C   UNL     1     110.725 126.513 139.328  0.00  0.00    +0.000 A 
ATOM      7  C   UNL     1     111.957 127.603 139.457  0.00  0.00    +0.000 A 
ATOM      8  C   UNL     1     110.597 127.238 139.699  0.00  0.00    +0.000 A 
ATOM      9  C   UNL     1     111.213 127.783 139.763  0.00  0.00    +0.000 A 
ATOM     10  C   UNL     1     111.066 128.535 140.151  0.00  0.00    +0.000 A 
ATOM     11  C   UNL     1     112.480 128.919 139.903  0.00  0.00    +0.000 A 
ATOM     12  C   UNL     1     111.704 129.108 140.222  0.00  0.00    +0.000 A 
ENDROOT
BRANCH  11  14
ATOM     13  O   UNL     1     114.951 131.092 140.155  0.00  0.00    +0.000 OA
ATOM     14  C   UNL     1     113.098 129.462 139.966  0.00  0.00    +0.000 A 
ATOM     15  C   UNL     1     113.294 129.941 139.323  0.00  0.00    +0.000 A 
ATOM     16  C   UNL     1     113.520 129.527 140.672  0.00  0.00    +0.000 A 
ATOM     17  C   UNL     1     113.912 130.484 139.386  0.00  0.00    +0.000 A 
ATOM     18  C   UNL     1     114.138 130.070 140.736  0.00  0.00    +0.000 A 
ATOM     19  C   UNL     1     114.333 130.549 140.092  0.00  0.00    +0.000 A 
BRANCH  17  20
ATOM     20  O   UNL     1     114.107 130.961 138.743  0.00  0.00    +0.000 OA
ATOM     21  C   UNL     1     114.048 130.664 137.975  0.00  0.00    +0.000 C 
ENDBRANCH  17  20
ENDBRANCH  11  14
BRANCH   5  22
ATOM     22  O   UNL     1     112.831 126.696 138.780  0.00  0.00    +0.000 OA
ATOM     23  C   UNL     1     113.422 126.405 139.277  0.00  0.00    +0.000 C 
ENDBRANCH   5  22
BRANCH   6  24
ATOM     24  O   UNL     1     110.110 125.967 139.263  0.00  0.00    +0.000 OA
ATOM     25  C   UNL     1     109.701 125.726 139.938  0.00  0.00    +0.000 C 
ENDBRANCH   6  24
BRANCH   4  26
ATOM     26  O   UNL     1     111.599 125.606 138.651  0.00  0.00    +0.000 OA
BRANCH  26  35
ATOM     27  O   UNL     1     111.263 126.187 137.390  0.00  0.00    +0.000 OA
ATOM     28  O   UNL     1     111.055 125.288 135.412  0.00  0.00    +0.000 OA
ATOM     29  O   UNL     1     111.454 123.966 136.315  0.00  0.00    +0.000 OA
ATOM     30  O   UNL     1     111.726 124.125 137.934  0.00  0.00    +0.000 OA
ATOM     31  C   UNL     1     111.191 125.368 136.221  0.00  0.00    +0.000 C 
ATOM     32  C   UNL     1     111.390 124.707 136.673  0.00  0.00    +0.000 C 
ATOM     33  C   UNL     1     111.127 126.109 136.580  0.00  0.00    +0.000 C 
ATOM     34  C   UNL     1     111.526 124.787 137.483  0.00  0.00    +0.000 C 
ATOM     35  C   UNL     1     111.463 125.527 137.841  0.00  0.00    +0.000 C 
BRANCH  33  36
ATOM     36  C   UNL     1     110.928 126.769 136.128  0.00  0.00    +0.000 C 
BRANCH  36  37
ATOM     37  O   UNL     1     110.251 127.205 136.310  0.00  0.00    +0.000 OA
BRANCH  37  39
ATOM     38  O   UNL     1     110.798 128.465 135.919  0.00  0.00    +0.000 OA
ATOM     39  C   UNL     1     110.150 127.961 135.996  0.00  0.00    +0.000 C 
BRANCH  39  40
ATOM     40  C   UNL     1     109.401 128.213 135.759  0.00  0.00    +0.000 C 
BRANCH  40  42
ATOM     41  O   UNL     1     108.932 128.768 136.672  0.00  0.00    +0.000 OA
ATOM     42  C   UNL     1     109.159 128.986 135.910  0.00  0.00    +0.000 C 
ATOM     43  C   UNL     1     109.385 129.206 135.147  0.00  0.00    +0.000 C 
BRANCH  42  44
ATOM     44  C   UNL     1     108.916 129.761 136.060  0.00  0.00    +0.000 C 
BRANCH  44  45
ATOM     45  O   UNL     1     108.163 130.008 135.833  0.00  0.00    +0.000 OA
BRANCH  45  47
ATOM     46  O   UNL     1     107.138 131.004 135.836  0.00  0.00    +0.000 OA
ATOM     47  C   UNL     1     107.916 130.778 135.997  0.00  0.00    +0.000 C 
ENDBRANCH  45  47
ENDBRANCH  44  45
ENDBRANCH  42  44
ENDBRANCH  40  42
ENDBRANCH  39  40
ENDBRANCH  37  39
ENDBRANCH  36  37
ENDBRANCH  33  36
ENDBRANCH  26  35
ENDBRANCH   4  26
TORSDOF 14
ENDMDL
MODEL 7
REMARK VINA RESULT:      -8.0      2.592      4.513
REMARK  Name = 131752543
REMARK  14 active torsions:
REMARK  status: ('A' for Active; 'I' for Inactive)
REMARK    1  A    between atoms: O_2  and  C_22
REMARK    2  A    between atoms: O_2  and  C_24
REMARK    3  A    between atoms: O_6  and  C_23
REMARK    4  A    between atoms: O_6  and  C_25
REMARK    5  A    between atoms: O_7  and  C_28
REMARK    6  A    between atoms: O_8  and  C_29
REMARK    7  A    between atoms: O_12  and  C_33
REMARK    8  A    between atoms: O_12  and  C_43
REMARK    9  A    between atoms: O_15  and  C_44
REMARK   10  A    between atoms: C_20  and  C_23
REMARK   11  A    between atoms: C_25  and  C_26
REMARK   12  A    between atoms: C_26  and  C_27
REMARK   13  A    between atoms: C_27  and  C_33
REMARK   14  A    between atoms: C_36  and  C_40
REMARK                            x       y       z     vdW  Elec       q    Type
REMARK                         _______ _______ _______ _____ _____    ______ ____
ROOT
ATOM      1  O   UNL     1     111.297 129.647 136.796  0.00  0.00    +0.000 OA
ATOM      2  O   UNL     1     114.001 129.526 135.771  0.00  0.00    +0.000 OA
ATOM      3  O   UNL     1     112.921 129.026 134.954  0.00  0.00    +0.000 OA
ATOM      4  C   UNL     1     113.228 130.278 137.668  0.00  0.00    +0.000 A 
ATOM      5  C   UNL     1     112.421 130.136 137.575  0.00  0.00    +0.000 A 
ATOM      6  C   UNL     1     113.755 130.074 137.066  0.00  0.00    +0.000 A 
ATOM      7  C   UNL     1     112.140 129.790 136.880  0.00  0.00    +0.000 A 
ATOM      8  C   UNL     1     113.474 129.729 136.372  0.00  0.00    +0.000 A 
ATOM      9  C   UNL     1     112.667 129.587 136.279  0.00  0.00    +0.000 A 
ATOM     10  C   UNL     1     112.388 129.227 135.551  0.00  0.00    +0.000 A 
ATOM     11  C   UNL     1     110.998 129.288 136.075  0.00  0.00    +0.000 A 
ATOM     12  C   UNL     1     111.548 129.076 135.448  0.00  0.00    +0.000 A 
ENDROOT
BRANCH  11  14
ATOM     13  O   UNL     1     107.767 128.725 135.713  0.00  0.00    +0.000 OA
ATOM     14  C   UNL     1     110.190 129.147 135.984  0.00  0.00    +0.000 A 
ATOM     15  C   UNL     1     109.693 129.751 135.724  0.00  0.00    +0.000 A 
ATOM     16  C   UNL     1     109.880 128.402 136.155  0.00  0.00    +0.000 A 
ATOM     17  C   UNL     1     108.885 129.611 135.633  0.00  0.00    +0.000 A 
ATOM     18  C   UNL     1     109.072 128.261 136.064  0.00  0.00    +0.000 A 
ATOM     19  C   UNL     1     108.575 128.866 135.803  0.00  0.00    +0.000 A 
BRANCH  17  20
ATOM     20  O   UNL     1     108.389 130.215 135.373  0.00  0.00    +0.000 OA
ATOM     21  C   UNL     1     108.573 131.002 135.541  0.00  0.00    +0.000 C 
ENDBRANCH  17  20
ENDBRANCH  11  14
BRANCH   5  22
ATOM     22  O   UNL     1     111.894 130.339 138.177  0.00  0.00    +0.000 OA
ATOM     23  C   UNL     1     111.501 131.065 138.154  0.00  0.00    +0.000 C 
ENDBRANCH   5  22
BRANCH   6  24
ATOM     24  O   UNL     1     114.562 130.217 137.160  0.00  0.00    +0.000 OA
ATOM     25  C   UNL     1     114.987 130.590 136.559  0.00  0.00    +0.000 C 
ENDBRANCH   6  24
BRANCH   4  26
ATOM     26  O   UNL     1     113.509 130.624 138.363  0.00  0.00    +0.000 OA
BRANCH  26  35
ATOM     27  O   UNL     1     113.493 129.361 139.031  0.00  0.00    +0.000 OA
ATOM     28  O   UNL     1     114.424 128.721 140.900  0.00  0.00    +0.000 OA
ATOM     29  O   UNL     1     114.912 130.296 140.831  0.00  0.00    +0.000 OA
ATOM     30  O   UNL     1     114.454 131.247 139.563  0.00  0.00    +0.000 OA
ATOM     31  C   UNL     1     114.195 129.196 140.265  0.00  0.00    +0.000 C 
ATOM     32  C   UNL     1     114.439 129.984 140.231  0.00  0.00    +0.000 C 
ATOM     33  C   UNL     1     113.722 128.884 139.665  0.00  0.00    +0.000 C 
ATOM     34  C   UNL     1     114.210 130.459 139.597  0.00  0.00    +0.000 C 
ATOM     35  C   UNL     1     113.737 130.147 138.997  0.00  0.00    +0.000 C 
BRANCH  33  36
ATOM     36  C   UNL     1     113.478 128.098 139.700  0.00  0.00    +0.000 C 
BRANCH  36  37
ATOM     37  O   UNL     1     113.426 127.651 139.008  0.00  0.00    +0.000 OA
BRANCH  37  39
ATOM     38  O   UNL     1     113.443 126.283 139.418  0.00  0.00    +0.000 OA
ATOM     39  C   UNL     1     113.073 126.906 139.024  0.00  0.00    +0.000 C 
BRANCH  39  40
ATOM     40  C   UNL     1     112.350 126.782 138.645  0.00  0.00    +0.000 C 
BRANCH  40  42
ATOM     41  O   UNL     1     112.863 126.459 137.648  0.00  0.00    +0.000 OA
ATOM     42  C   UNL     1     112.261 126.152 138.121  0.00  0.00    +0.000 C 
ATOM     43  C   UNL     1     111.658 125.844 138.593  0.00  0.00    +0.000 C 
BRANCH  42  44
ATOM     44  C   UNL     1     112.171 125.521 137.596  0.00  0.00    +0.000 C 
BRANCH  44  45
ATOM     45  O   UNL     1     111.648 125.584 136.962  0.00  0.00    +0.000 OA
BRANCH  45  47
ATOM     46  O   UNL     1     111.077 125.029 135.775  0.00  0.00    +0.000 OA
ATOM     47  C   UNL     1     111.533 124.941 136.458  0.00  0.00    +0.000 C 
ENDBRANCH  45  47
ENDBRANCH  44  45
ENDBRANCH  42  44
ENDBRANCH  40  42
ENDBRANCH  39  40
ENDBRANCH  37  39
ENDBRANCH  36  37
ENDBRANCH  33  36
ENDBRANCH  26  35
ENDBRANCH   4  26
TORSDOF 14
ENDMDL
MODEL 8
REMARK VINA RESULT:      -8.0      1.944      4.072
REMARK  Name = 131752543
REMARK  14 active torsions:
REMARK  status: ('A' for Active; 'I' for Inactive)
REMARK    1  A    between atoms: O_2  and  C_22
REMARK    2  A    between atoms: O_2  and  C_24
REMARK    3  A    between atoms: O_6  and  C_23
REMARK    4  A    between atoms: O_6  and  C_25
REMARK    5  A    between atoms: O_7  and  C_28
REMARK    6  A    between atoms: O_8  and  C_29
REMARK    7  A    between atoms: O_12  and  C_33
REMARK    8  A    between atoms: O_12  and  C_43
REMARK    9  A    between atoms: O_15  and  C_44
REMARK   10  A    between atoms: C_20  and  C_23
REMARK   11  A    between atoms: C_25  and  C_26
REMARK   12  A    between atoms: C_26  and  C_27
REMARK   13  A    between atoms: C_27  and  C_33
REMARK   14  A    between atoms: C_36  and  C_40
REMARK                            x       y       z     vdW  Elec       q    Type
REMARK                         _______ _______ _______ _____ _____    ______ ____
ROOT
ATOM      1  O   UNL     1     111.476 127.921 137.071  0.00  0.00    +0.000 OA
ATOM      2  O   UNL     1     113.629 129.855 137.086  0.00  0.00    +0.000 OA
ATOM      3  O   UNL     1     113.434 129.037 135.914  0.00  0.00    +0.000 OA
ATOM      4  C   UNL     1     112.144 129.363 138.609  0.00  0.00    +0.000 A 
ATOM      5  C   UNL     1     111.718 128.770 138.224  0.00  0.00    +0.000 A 
ATOM      6  C   UNL     1     112.782 129.724 138.229  0.00  0.00    +0.000 A 
ATOM      7  C   UNL     1     111.929 128.540 137.460  0.00  0.00    +0.000 A 
ATOM      8  C   UNL     1     112.993 129.494 137.465  0.00  0.00    +0.000 A 
ATOM      9  C   UNL     1     112.565 128.901 137.082  0.00  0.00    +0.000 A 
ATOM     10  C   UNL     1     112.795 128.670 136.287  0.00  0.00    +0.000 A 
ATOM     11  C   UNL     1     111.690 127.676 136.276  0.00  0.00    +0.000 A 
ATOM     12  C   UNL     1     112.355 128.053 135.880  0.00  0.00    +0.000 A 
ENDROOT
BRANCH  11  14
ATOM     13  O   UNL     1     109.977 125.305 134.749  0.00  0.00    +0.000 OA
ATOM     14  C   UNL     1     111.262 127.083 135.894  0.00  0.00    +0.000 A 
ATOM     15  C   UNL     1     111.391 126.292 136.087  0.00  0.00    +0.000 A 
ATOM     16  C   UNL     1     110.704 127.282 135.319  0.00  0.00    +0.000 A 
ATOM     17  C   UNL     1     110.963 125.699 135.705  0.00  0.00    +0.000 A 
ATOM     18  C   UNL     1     110.276 126.690 134.938  0.00  0.00    +0.000 A 
ATOM     19  C   UNL     1     110.406 125.898 135.131  0.00  0.00    +0.000 A 
BRANCH  17  20
ATOM     20  O   UNL     1     111.093 124.908 135.898  0.00  0.00    +0.000 OA
ATOM     21  C   UNL     1     111.787 124.686 136.287  0.00  0.00    +0.000 C 
ENDBRANCH  17  20
ENDBRANCH  11  14
BRANCH   5  22
ATOM     22  O   UNL     1     111.080 128.409 138.604  0.00  0.00    +0.000 OA
ATOM     23  C   UNL     1     111.191 127.699 139.010  0.00  0.00    +0.000 C 
ENDBRANCH   5  22
BRANCH   6  24
ATOM     24  O   UNL     1     113.208 130.317 138.613  0.00  0.00    +0.000 OA
ATOM     25  C   UNL     1     114.031 130.266 138.665  0.00  0.00    +0.000 C 
ENDBRANCH   6  24
BRANCH   4  26
ATOM     26  O   UNL     1     111.934 129.594 139.372  0.00  0.00    +0.000 OA
BRANCH  26  35
ATOM     27  O   UNL     1     111.025 130.559 138.839  0.00  0.00    +0.000 OA
ATOM     28  O   UNL     1     109.884 132.141 139.820  0.00  0.00    +0.000 OA
ATOM     29  O   UNL     1     110.677 131.484 141.109  0.00  0.00    +0.000 OA
ATOM     30  O   UNL     1     111.702 130.210 140.885  0.00  0.00    +0.000 OA
ATOM     31  C   UNL     1     110.397 131.504 139.707  0.00  0.00    +0.000 C 
ATOM     32  C   UNL     1     110.793 131.176 140.352  0.00  0.00    +0.000 C 
ATOM     33  C   UNL     1     110.513 131.196 138.951  0.00  0.00    +0.000 C 
ATOM     34  C   UNL     1     111.305 130.539 140.240  0.00  0.00    +0.000 C 
ATOM     35  C   UNL     1     111.421 130.231 139.483  0.00  0.00    +0.000 C 
BRANCH  33  36
ATOM     36  C   UNL     1     110.116 131.525 138.307  0.00  0.00    +0.000 C 
BRANCH  36  37
ATOM     37  O   UNL     1     109.565 131.076 137.888  0.00  0.00    +0.000 OA
BRANCH  37  39
ATOM     38  O   UNL     1     109.546 132.062 136.855  0.00  0.00    +0.000 OA
ATOM     39  C   UNL     1     109.272 131.350 137.168  0.00  0.00    +0.000 C 
BRANCH  39  40
ATOM     40  C   UNL     1     108.704 130.912 136.759  0.00  0.00    +0.000 C 
BRANCH  40  42
ATOM     41  O   UNL     1     107.733 131.497 137.034  0.00  0.00    +0.000 OA
ATOM     42  C   UNL     1     108.114 131.297 136.331  0.00  0.00    +0.000 C 
ATOM     43  C   UNL     1     108.495 131.097 135.627  0.00  0.00    +0.000 C 
BRANCH  42  44
ATOM     44  C   UNL     1     107.524 131.683 135.901  0.00  0.00    +0.000 C 
BRANCH  44  45
ATOM     45  O   UNL     1     106.761 131.371 135.878  0.00  0.00    +0.000 OA
BRANCH  45  47
ATOM     46  O   UNL     1     105.386 131.495 135.509  0.00  0.00    +0.000 OA
ATOM     47  C   UNL     1     106.161 131.781 135.489  0.00  0.00    +0.000 C 
ENDBRANCH  45  47
ENDBRANCH  44  45
ENDBRANCH  42  44
ENDBRANCH  40  42
ENDBRANCH  39  40
ENDBRANCH  37  39
ENDBRANCH  36  37
ENDBRANCH  33  36
ENDBRANCH  26  35
ENDBRANCH   4  26
TORSDOF 14
ENDMDL
MODEL 9
REMARK VINA RESULT:      -8.0      1.908      5.809
REMARK  Name = 131752543
REMARK  14 active torsions:
REMARK  status: ('A' for Active; 'I' for Inactive)
REMARK    1  A    between atoms: O_2  and  C_22
REMARK    2  A    between atoms: O_2  and  C_24
REMARK    3  A    between atoms: O_6  and  C_23
REMARK    4  A    between atoms: O_6  and  C_25
REMARK    5  A    between atoms: O_7  and  C_28
REMARK    6  A    between atoms: O_8  and  C_29
REMARK    7  A    between atoms: O_12  and  C_33
REMARK    8  A    between atoms: O_12  and  C_43
REMARK    9  A    between atoms: O_15  and  C_44
REMARK   10  A    between atoms: C_20  and  C_23
REMARK   11  A    between atoms: C_25  and  C_26
REMARK   12  A    between atoms: C_26  and  C_27
REMARK   13  A    between atoms: C_27  and  C_33
REMARK   14  A    between atoms: C_36  and  C_40
REMARK                            x       y       z     vdW  Elec       q    Type
REMARK                         _______ _______ _______ _____ _____    ______ ____
ROOT
ATOM      1  O   UNL     1     111.709 129.072 138.719  0.00  0.00    +0.000 OA
ATOM      2  O   UNL     1     113.486 129.274 136.444  0.00  0.00    +0.000 OA
ATOM      3  O   UNL     1     113.201 130.459 137.216  0.00  0.00    +0.000 OA
ATOM      4  C   UNL     1     112.421 127.558 137.273  0.00  0.00    +0.000 A 
ATOM      5  C   UNL     1     112.029 127.911 137.908  0.00  0.00    +0.000 A 
ATOM      6  C   UNL     1     112.907 128.013 136.785  0.00  0.00    +0.000 A 
ATOM      7  C   UNL     1     112.123 128.717 138.055  0.00  0.00    +0.000 A 
ATOM      8  C   UNL     1     113.000 128.820 136.932  0.00  0.00    +0.000 A 
ATOM      9  C   UNL     1     112.608 129.171 137.567  0.00  0.00    +0.000 A 
ATOM     10  C   UNL     1     112.714 130.012 137.709  0.00  0.00    +0.000 A 
ATOM     11  C   UNL     1     111.802 129.911 138.878  0.00  0.00    +0.000 A 
ATOM     12  C   UNL     1     112.308 130.385 138.369  0.00  0.00    +0.000 A 
ENDROOT
BRANCH  11  14
ATOM     13  O   UNL     1     110.229 131.308 141.420  0.00  0.00    +0.000 OA
ATOM     14  C   UNL     1     111.409 130.260 139.513  0.00  0.00    +0.000 A 
ATOM     15  C   UNL     1     110.671 130.610 139.400  0.00  0.00    +0.000 A 
ATOM     16  C   UNL     1     111.754 130.260 140.263  0.00  0.00    +0.000 A 
ATOM     17  C   UNL     1     110.277 130.960 140.035  0.00  0.00    +0.000 A 
ATOM     18  C   UNL     1     111.361 130.609 140.898  0.00  0.00    +0.000 A 
ATOM     19  C   UNL     1     110.622 130.959 140.784  0.00  0.00    +0.000 A 
BRANCH  17  20
ATOM     20  O   UNL     1     109.539 131.309 139.921  0.00  0.00    +0.000 OA
ATOM     21  C   UNL     1     108.956 130.912 139.492  0.00  0.00    +0.000 C 
ENDBRANCH  17  20
ENDBRANCH  11  14
BRANCH   5  22
ATOM     22  O   UNL     1     111.543 127.456 138.396  0.00  0.00    +0.000 OA
ATOM     23  C   UNL     1     111.844 127.135 139.095  0.00  0.00    +0.000 C 
ENDBRANCH   5  22
BRANCH   6  24
ATOM     24  O   UNL     1     113.298 127.661 136.150  0.00  0.00    +0.000 OA
ATOM     25  C   UNL     1     114.115 127.751 136.068  0.00  0.00    +0.000 C 
ENDBRANCH   6  24
BRANCH   4  26
ATOM     26  O   UNL     1     112.327 126.752 137.127  0.00  0.00    +0.000 OA
BRANCH  26  35
ATOM     27  O   UNL     1     111.233 127.037 136.253  0.00  0.00    +0.000 OA
ATOM     28  O   UNL     1     110.007 125.716 135.021  0.00  0.00    +0.000 OA
ATOM     29  O   UNL     1     111.035 124.629 135.716  0.00  0.00    +0.000 OA
ATOM     30  O   UNL     1     112.195 125.147 136.769  0.00  0.00    +0.000 OA
ATOM     31  C   UNL     1     110.587 125.976 135.547  0.00  0.00    +0.000 C 
ATOM     32  C   UNL     1     111.101 125.431 135.895  0.00  0.00    +0.000 C 
ATOM     33  C   UNL     1     110.653 126.778 135.726  0.00  0.00    +0.000 C 
ATOM     34  C   UNL     1     111.681 125.691 136.421  0.00  0.00    +0.000 C 
ATOM     35  C   UNL     1     111.747 126.494 136.600  0.00  0.00    +0.000 C 
BRANCH  33  36
ATOM     36  C   UNL     1     110.139 127.322 135.379  0.00  0.00    +0.000 C 
BRANCH  36  37
ATOM     37  O   UNL     1     109.619 127.757 135.848  0.00  0.00    +0.000 OA
BRANCH  37  39
ATOM     38  O   UNL     1     109.442 128.722 134.810  0.00  0.00    +0.000 OA
ATOM     39  C   UNL     1     109.363 128.501 135.601  0.00  0.00    +0.000 C 
BRANCH  39  40
ATOM     40  C   UNL     1     109.028 129.025 136.143  0.00  0.00    +0.000 C 
BRANCH  40  42
ATOM     41  O   UNL     1     107.939 129.259 135.796  0.00  0.00    +0.000 OA
ATOM     42  C   UNL     1     108.633 129.698 135.878  0.00  0.00    +0.000 C 
ATOM     43  C   UNL     1     109.326 130.138 135.959  0.00  0.00    +0.000 C 
BRANCH  42  44
ATOM     44  C   UNL     1     108.237 130.372 135.612  0.00  0.00    +0.000 C 
BRANCH  44  45
ATOM     45  O   UNL     1     107.577 130.649 136.020  0.00  0.00    +0.000 OA
BRANCH  45  47
ATOM     46  O   UNL     1     106.444 131.502 135.842  0.00  0.00    +0.000 OA
ATOM     47  C   UNL     1     107.262 131.390 135.839  0.00  0.00    +0.000 C 
ENDBRANCH  45  47
ENDBRANCH  44  45
ENDBRANCH  42  44
ENDBRANCH  40  42
ENDBRANCH  39  40
ENDBRANCH  37  39
ENDBRANCH  36  37
ENDBRANCH  33  36
ENDBRANCH  26  35
ENDBRANCH   4  26
TORSDOF 14
ENDMDL
MODEL 10
REMARK VINA RESULT:      -8.0      1.917      3.819
REMARK  Name = 131752543
REMARK  14 active torsions:
REMARK  status: ('A' for Active; 'I' for Inactive)
REMARK    1  A    between atoms: O_2  and  C_22
REMARK    2  A    between atoms: O_2  and  C_24
REMARK    3  A    between atoms: O_6  and  C_23
REMARK    4  A    between atoms: O_6  and  C_25
REMARK    5  A    between atoms: O_7  and  C_28
REMARK    6  A    between atoms: O_8  and  C_29
REMARK    7  A    between atoms: O_12  and  C_33
REMARK    8  A    between atoms: O_12  and  C_43
REMARK    9  A    between atoms: O_15  and  C_44
REMARK   10  A    between atoms: C_20  and  C_23
REMARK   11  A    between atoms: C_25  and  C_26
REMARK   12  A    between atoms: C_26  and  C_27
REMARK   13  A    between atoms: C_27  and  C_33
REMARK   14  A    between atoms: C_36  and  C_40
REMARK                            x       y       z     vdW  Elec       q    Type
REMARK                         _______ _______ _______ _____ _____    ______ ____
ROOT
ATOM      1  O   UNL     1     111.369 127.248 136.984  0.00  0.00    +0.000 OA
ATOM      2  O   UNL     1     109.772 128.810 135.144  0.00  0.00    +0.000 OA
ATOM      3  O   UNL     1     110.743 127.884 134.614  0.00  0.00    +0.000 OA
ATOM      4  C   UNL     1     109.792 128.760 137.326  0.00  0.00    +0.000 A 
ATOM      5  C   UNL     1     110.377 128.195 137.463  0.00  0.00    +0.000 A 
ATOM      6  C   UNL     1     109.590 128.965 136.552  0.00  0.00    +0.000 A 
ATOM      7  C   UNL     1     110.761 127.835 136.828  0.00  0.00    +0.000 A 
ATOM      8  C   UNL     1     109.974 128.605 135.917  0.00  0.00    +0.000 A 
ATOM      9  C   UNL     1     110.559 128.040 136.055  0.00  0.00    +0.000 A 
ATOM     10  C   UNL     1     110.951 127.673 135.384  0.00  0.00    +0.000 A 
ATOM     11  C   UNL     1     111.772 126.870 136.327  0.00  0.00    +0.000 A 
ATOM     12  C   UNL     1     111.562 127.084 135.521  0.00  0.00    +0.000 A 
ENDROOT
BRANCH  11  14
ATOM     13  O   UNL     1     114.111 124.611 136.889  0.00  0.00    +0.000 OA
ATOM     14  C   UNL     1     112.357 126.305 136.467  0.00  0.00    +0.000 A 
ATOM     15  C   UNL     1     112.159 125.505 136.496  0.00  0.00    +0.000 A 
ATOM     16  C   UNL     1     113.140 126.541 136.578  0.00  0.00    +0.000 A 
ATOM     17  C   UNL     1     112.743 124.940 136.637  0.00  0.00    +0.000 A 
ATOM     18  C   UNL     1     113.725 125.976 136.719  0.00  0.00    +0.000 A 
ATOM     19  C   UNL     1     113.526 125.175 136.748  0.00  0.00    +0.000 A 
BRANCH  17  20
ATOM     20  O   UNL     1     112.545 124.140 136.666  0.00  0.00    +0.000 OA
ATOM     21  C   UNL     1     111.793 123.910 136.917  0.00  0.00    +0.000 C 
ENDBRANCH  17  20
ENDBRANCH  11  14
BRANCH   5  22
ATOM     22  O   UNL     1     110.579 127.990 138.237  0.00  0.00    +0.000 OA
ATOM     23  C   UNL     1     110.227 127.335 138.596  0.00  0.00    +0.000 C 
ENDBRANCH   5  22
BRANCH   6  24
ATOM     24  O   UNL     1     109.005 129.530 136.416  0.00  0.00    +0.000 OA
ATOM     25  C   UNL     1     108.375 129.357 135.911  0.00  0.00    +0.000 C 
ENDBRANCH   6  24
BRANCH   4  26
ATOM     26  O   UNL     1     109.408 129.119 137.962  0.00  0.00    +0.000 OA
BRANCH  26  35
ATOM     27  O   UNL     1     110.392 130.155 137.974  0.00  0.00    +0.000 OA
ATOM     28  O   UNL     1     110.528 131.984 139.158  0.00  0.00    +0.000 OA
ATOM     29  O   UNL     1     109.120 131.344 139.733  0.00  0.00    +0.000 OA
ATOM     30  O   UNL     1     108.560 129.912 139.134  0.00  0.00    +0.000 OA
ATOM     31  C   UNL     1     110.249 131.268 138.859  0.00  0.00    +0.000 C 
ATOM     32  C   UNL     1     109.544 130.948 139.146  0.00  0.00    +0.000 C 
ATOM     33  C   UNL     1     110.673 130.872 138.273  0.00  0.00    +0.000 C 
ATOM     34  C   UNL     1     109.265 130.232 138.847  0.00  0.00    +0.000 C 
ATOM     35  C   UNL     1     109.689 129.836 138.261  0.00  0.00    +0.000 C 
BRANCH  33  36
ATOM     36  C   UNL     1     111.377 131.191 137.986  0.00  0.00    +0.000 C 
BRANCH  36  37
ATOM     37  O   UNL     1     112.032 130.705 137.864  0.00  0.00    +0.000 OA
BRANCH  37  39
ATOM     38  O   UNL     1     112.598 131.675 136.981  0.00  0.00    +0.000 OA
ATOM     39  C   UNL     1     112.665 130.971 137.407  0.00  0.00    +0.000 C 
BRANCH  39  40
ATOM     40  C   UNL     1     113.364 130.535 137.375  0.00  0.00    +0.000 C 
BRANCH  40  42
ATOM     41  O   UNL     1     113.165 130.056 136.330  0.00  0.00    +0.000 OA
ATOM     42  C   UNL     1     113.786 130.481 136.669  0.00  0.00    +0.000 C 
ATOM     43  C   UNL     1     114.407 130.906 137.007  0.00  0.00    +0.000 C 
BRANCH  42  44
ATOM     44  C   UNL     1     114.208 130.428 135.962  0.00  0.00    +0.000 C 
BRANCH  44  45
ATOM     45  O   UNL     1     114.386 129.688 135.643  0.00  0.00    +0.000 OA
BRANCH  45  47
ATOM     46  O   UNL     1     115.002 128.896 134.625  0.00  0.00    +0.000 OA
ATOM     47  C   UNL     1     114.782 129.635 134.922  0.00  0.00    +0.000 C 
ENDBRANCH  45  47
ENDBRANCH  44  45
ENDBRANCH  42  44
ENDBRANCH  40  42
ENDBRANCH  39  40
ENDBRANCH  37  39
ENDBRANCH  36  37
ENDBRANCH  33  36
ENDBRANCH  26  35
ENDBRANCH   4  26
TORSDOF 14
ENDMDL
