MODEL 1
REMARK VINA RESULT:      -9.1      0.000      0.000
REMARK  Name = 42608107
REMARK  7 active torsions:
REMARK  status: ('A' for Active; 'I' for Inactive)
REMARK    1  A    between atoms: O_2  and  C_17
REMARK    2  A    between atoms: O_2  and  C_21
REMARK    3  A    between atoms: O_9  and  C_24
REMARK    4  A    between atoms: O_11  and  C_31
REMARK    5  A    between atoms: O_13  and  C_33
REMARK    6  A    between atoms: C_18  and  C_22
REMARK    7  A    between atoms: C_19  and  C_20
REMARK                            x       y       z     vdW  Elec       q    Type
REMARK                         _______ _______ _______ _____ _____    ______ ____
ROOT
ATOM      1  C   UNL     1     110.991 125.732 136.965  0.00  0.00    +0.000 A 
ATOM      2  C   UNL     1     110.472 126.212 136.539  0.00  0.00    +0.000 A 
ATOM      3  C   UNL     1     111.354 125.089 136.597  0.00  0.00    +0.000 A 
ATOM      4  C   UNL     1     110.316 126.048 135.746  0.00  0.00    +0.000 A 
ATOM      5  C   UNL     1     111.198 124.926 135.804  0.00  0.00    +0.000 A 
ATOM      6  C   UNL     1     110.679 125.405 135.378  0.00  0.00    +0.000 A 
ENDROOT
BRANCH   1  10
ATOM      7  O   UNL     1     111.798 126.361 137.963  0.00  0.00    +0.000 OA
ATOM      8  O   UNL     1     110.316 125.461 139.729  0.00  0.00    +0.000 OA
ATOM      9  O   UNL     1     111.113 126.085 140.756  0.00  0.00    +0.000 OA
ATOM     10  C   UNL     1     111.147 125.896 137.758  0.00  0.00    +0.000 C 
ATOM     11  C   UNL     1     110.653 125.596 138.347  0.00  0.00    +0.000 C 
ATOM     12  C   UNL     1     110.810 125.761 139.140  0.00  0.00    +0.000 C 
ATOM     13  C   UNL     1     111.954 126.525 138.756  0.00  0.00    +0.000 A 
ATOM     14  C   UNL     1     111.460 126.225 139.345  0.00  0.00    +0.000 A 
ATOM     15  C   UNL     1     112.635 127.011 138.956  0.00  0.00    +0.000 A 
ATOM     16  C   UNL     1     111.612 126.390 140.175  0.00  0.00    +0.000 A 
ATOM     17  C   UNL     1     112.802 127.185 139.781  0.00  0.00    +0.000 A 
ATOM     18  C   UNL     1     112.288 126.873 140.394  0.00  0.00    +0.000 A 
BRANCH  15  19
ATOM     19  O   UNL     1     113.123 127.306 138.361  0.00  0.00    +0.000 OA
ATOM     20  C   UNL     1     113.156 128.119 138.220  0.00  0.00    +0.000 C 
ENDBRANCH  15  19
BRANCH  17  21
ATOM     21  O   UNL     1     113.454 127.650 139.982  0.00  0.00    +0.000 OA
ATOM     22  C   UNL     1     113.725 127.665 140.761  0.00  0.00    +0.000 C 
ENDBRANCH  17  21
ENDBRANCH   1  10
BRANCH   3  23
ATOM     23  O   UNL     1     111.873 124.610 137.023  0.00  0.00    +0.000 OA
ATOM     24  C   UNL     1     112.238 123.968 136.654  0.00  0.00    +0.000 C 
ENDBRANCH   3  23
BRANCH   2  25
ATOM     25  O   UNL     1     110.109 126.856 136.907  0.00  0.00    +0.000 OA
BRANCH  25  33
ATOM     26  O   UNL     1     110.500 127.990 136.131  0.00  0.00    +0.000 OA
ATOM     27  O   UNL     1     108.121 128.593 135.814  0.00  0.00    +0.000 OA
ATOM     28  O   UNL     1     108.523 127.258 136.696  0.00  0.00    +0.000 OA
ATOM     29  O   UNL     1     109.305 129.526 135.143  0.00  0.00    +0.000 OA
ATOM     30  C   UNL     1     108.914 128.392 135.919  0.00  0.00    +0.000 C 
ATOM     31  C   UNL     1     109.115 127.724 136.361  0.00  0.00    +0.000 C 
ATOM     32  C   UNL     1     109.506 128.858 135.584  0.00  0.00    +0.000 C 
ATOM     33  C   UNL     1     109.908 127.523 136.466  0.00  0.00    +0.000 C 
ATOM     34  C   UNL     1     110.299 128.657 135.690  0.00  0.00    +0.000 C 
BRANCH  34  37
ATOM     35  O   UNL     1     111.176 129.783 135.759  0.00  0.00    +0.000 OA
ATOM     36  O   UNL     1     111.198 128.931 134.613  0.00  0.00    +0.000 OA
ATOM     37  C   UNL     1     110.891 129.124 135.354  0.00  0.00    +0.000 C 
ENDBRANCH  34  37
ENDBRANCH  25  33
ENDBRANCH   2  25
TORSDOF 7
ENDMDL
MODEL 2
REMARK VINA RESULT:      -8.7      9.240     11.573
REMARK  Name = 42608107
REMARK  7 active torsions:
REMARK  status: ('A' for Active; 'I' for Inactive)
REMARK    1  A    between atoms: O_2  and  C_17
REMARK    2  A    between atoms: O_2  and  C_21
REMARK    3  A    between atoms: O_9  and  C_24
REMARK    4  A    between atoms: O_11  and  C_31
REMARK    5  A    between atoms: O_13  and  C_33
REMARK    6  A    between atoms: C_18  and  C_22
REMARK    7  A    between atoms: C_19  and  C_20
REMARK                            x       y       z     vdW  Elec       q    Type
REMARK                         _______ _______ _______ _____ _____    ______ ____
ROOT
ATOM      1  C   UNL     1     105.864 125.009 147.522  0.00  0.00    +0.000 A 
ATOM      2  C   UNL     1     106.300 125.356 146.913  0.00  0.00    +0.000 A 
ATOM      3  C   UNL     1     106.249 124.721 148.193  0.00  0.00    +0.000 A 
ATOM      4  C   UNL     1     107.120 125.415 146.975  0.00  0.00    +0.000 A 
ATOM      5  C   UNL     1     107.070 124.781 148.254  0.00  0.00    +0.000 A 
ATOM      6  C   UNL     1     107.505 125.127 147.645  0.00  0.00    +0.000 A 
ENDROOT
BRANCH   1  10
ATOM      7  O   UNL     1     104.706 124.318 147.049  0.00  0.00    +0.000 OA
ATOM      8  O   UNL     1     103.258 126.032 148.094  0.00  0.00    +0.000 OA
ATOM      9  O   UNL     1     102.072 125.356 147.629  0.00  0.00    +0.000 OA
ATOM     10  C   UNL     1     105.044 124.950 147.460  0.00  0.00    +0.000 C 
ATOM     11  C   UNL     1     104.561 125.521 147.808  0.00  0.00    +0.000 C 
ATOM     12  C   UNL     1     103.740 125.461 147.746  0.00  0.00    +0.000 C 
ATOM     13  C   UNL     1     103.885 124.259 146.987  0.00  0.00    +0.000 A 
ATOM     14  C   UNL     1     103.403 124.831 147.335  0.00  0.00    +0.000 A 
ATOM     15  C   UNL     1     103.546 123.597 146.556  0.00  0.00    +0.000 A 
ATOM     16  C   UNL     1     102.546 124.780 147.277  0.00  0.00    +0.000 A 
ATOM     17  C   UNL     1     102.692 123.530 146.488  0.00  0.00    +0.000 A 
ATOM     18  C   UNL     1     102.189 124.125 146.851  0.00  0.00    +0.000 A 
BRANCH  15  19
ATOM     19  O   UNL     1     104.036 123.031 146.212  0.00  0.00    +0.000 OA
ATOM     20  C   UNL     1     104.015 122.909 145.396  0.00  0.00    +0.000 C 
ENDBRANCH  15  19
BRANCH  17  21
ATOM     21  O   UNL     1     102.357 122.898 146.077  0.00  0.00    +0.000 OA
ATOM     22  C   UNL     1     101.549 122.746 146.141  0.00  0.00    +0.000 C 
ENDBRANCH  17  21
ENDBRANCH   1  10
BRANCH   3  23
ATOM     23  O   UNL     1     105.814 124.375 148.801  0.00  0.00    +0.000 OA
ATOM     24  C   UNL     1     106.193 124.134 149.493  0.00  0.00    +0.000 C 
ENDBRANCH   3  23
BRANCH   2  25
ATOM     25  O   UNL     1     105.914 125.643 146.242  0.00  0.00    +0.000 OA
BRANCH  25  33
ATOM     26  O   UNL     1     106.473 126.953 146.126  0.00  0.00    +0.000 OA
ATOM     27  O   UNL     1     106.916 126.552 143.725  0.00  0.00    +0.000 OA
ATOM     28  O   UNL     1     106.210 125.376 144.641  0.00  0.00    +0.000 OA
ATOM     29  O   UNL     1     107.327 127.996 144.410  0.00  0.00    +0.000 OA
ATOM     30  C   UNL     1     106.768 126.686 144.525  0.00  0.00    +0.000 C 
ATOM     31  C   UNL     1     106.415 126.097 144.984  0.00  0.00    +0.000 C 
ATOM     32  C   UNL     1     106.973 127.408 144.868  0.00  0.00    +0.000 C 
ATOM     33  C   UNL     1     106.267 126.231 145.785  0.00  0.00    +0.000 C 
ATOM     34  C   UNL     1     106.826 127.541 145.669  0.00  0.00    +0.000 C 
BRANCH  34  37
ATOM     35  O   UNL     1     107.818 128.421 146.202  0.00  0.00    +0.000 OA
ATOM     36  O   UNL     1     106.449 128.828 146.162  0.00  0.00    +0.000 OA
ATOM     37  C   UNL     1     107.031 128.264 146.011  0.00  0.00    +0.000 C 
ENDBRANCH  34  37
ENDBRANCH  25  33
ENDBRANCH   2  25
TORSDOF 7
ENDMDL
MODEL 3
REMARK VINA RESULT:      -8.7      2.269      4.747
REMARK  Name = 42608107
REMARK  7 active torsions:
REMARK  status: ('A' for Active; 'I' for Inactive)
REMARK    1  A    between atoms: O_2  and  C_17
REMARK    2  A    between atoms: O_2  and  C_21
REMARK    3  A    between atoms: O_9  and  C_24
REMARK    4  A    between atoms: O_11  and  C_31
REMARK    5  A    between atoms: O_13  and  C_33
REMARK    6  A    between atoms: C_18  and  C_22
REMARK    7  A    between atoms: C_19  and  C_20
REMARK                            x       y       z     vdW  Elec       q    Type
REMARK                         _______ _______ _______ _____ _____    ______ ____
ROOT
ATOM      1  C   UNL     1     113.516 129.121 136.423  0.00  0.00    +0.000 A 
ATOM      2  C   UNL     1     113.356 129.604 137.073  0.00  0.00    +0.000 A 
ATOM      3  C   UNL     1     114.112 129.329 135.892  0.00  0.00    +0.000 A 
ATOM      4  C   UNL     1     113.793 130.293 137.192  0.00  0.00    +0.000 A 
ATOM      5  C   UNL     1     114.549 130.019 136.012  0.00  0.00    +0.000 A 
ATOM      6  C   UNL     1     114.389 130.501 136.661  0.00  0.00    +0.000 A 
ENDROOT
BRANCH   1  10
ATOM      7  O   UNL     1     113.343 127.717 136.621  0.00  0.00    +0.000 OA
ATOM      8  O   UNL     1     111.242 127.791 135.314  0.00  0.00    +0.000 OA
ATOM      9  O   UNL     1     111.043 126.375 135.499  0.00  0.00    +0.000 OA
ATOM     10  C   UNL     1     113.079 128.432 136.304  0.00  0.00    +0.000 C 
ATOM     11  C   UNL     1     112.378 128.457 135.868  0.00  0.00    +0.000 C 
ATOM     12  C   UNL     1     111.942 127.767 135.750  0.00  0.00    +0.000 C 
ATOM     13  C   UNL     1     112.905 127.028 136.502  0.00  0.00    +0.000 A 
ATOM     14  C   UNL     1     112.205 127.052 136.067  0.00  0.00    +0.000 A 
ATOM     15  C   UNL     1     113.191 126.289 136.838  0.00  0.00    +0.000 A 
ATOM     16  C   UNL     1     111.742 126.340 135.936  0.00  0.00    +0.000 A 
ATOM     17  C   UNL     1     112.740 125.568 136.717  0.00  0.00    +0.000 A 
ATOM     18  C   UNL     1     112.011 125.593 136.264  0.00  0.00    +0.000 A 
BRANCH  15  19
ATOM     19  O   UNL     1     113.892 126.274 137.272  0.00  0.00    +0.000 OA
ATOM     20  C   UNL     1     113.876 126.083 138.075  0.00  0.00    +0.000 C 
ENDBRANCH  15  19
BRANCH  17  21
ATOM     21  O   UNL     1     113.007 124.854 137.036  0.00  0.00    +0.000 OA
ATOM     22  C   UNL     1     112.729 124.139 136.733  0.00  0.00    +0.000 C 
ENDBRANCH  17  21
ENDBRANCH   1  10
BRANCH   3  23
ATOM     23  O   UNL     1     114.272 128.847 135.242  0.00  0.00    +0.000 OA
ATOM     24  C   UNL     1     114.854 129.065 134.700  0.00  0.00    +0.000 C 
ENDBRANCH   3  23
BRANCH   2  25
ATOM     25  O   UNL     1     112.759 129.396 137.604  0.00  0.00    +0.000 OA
BRANCH  25  33
ATOM     26  O   UNL     1     113.431 129.459 138.863  0.00  0.00    +0.000 OA
ATOM     27  O   UNL     1     111.604 130.863 139.768  0.00  0.00    +0.000 OA
ATOM     28  O   UNL     1     111.541 130.332 138.207  0.00  0.00    +0.000 OA
ATOM     29  O   UNL     1     112.885 130.458 140.726  0.00  0.00    +0.000 OA
ATOM     30  C   UNL     1     112.213 130.395 139.466  0.00  0.00    +0.000 C 
ATOM     31  C   UNL     1     112.182 130.130 138.685  0.00  0.00    +0.000 C 
ATOM     32  C   UNL     1     112.854 130.193 139.945  0.00  0.00    +0.000 C 
ATOM     33  C   UNL     1     112.791 129.662 138.384  0.00  0.00    +0.000 C 
ATOM     34  C   UNL     1     113.463 129.725 139.643  0.00  0.00    +0.000 C 
BRANCH  34  37
ATOM     35  O   UNL     1     114.714 130.062 140.245  0.00  0.00    +0.000 OA
ATOM     36  O   UNL     1     114.132 128.779 140.480  0.00  0.00    +0.000 OA
ATOM     37  C   UNL     1     114.103 129.522 140.123  0.00  0.00    +0.000 C 
ENDBRANCH  34  37
ENDBRANCH  25  33
ENDBRANCH   2  25
TORSDOF 7
ENDMDL
MODEL 4
REMARK VINA RESULT:      -8.6      9.796     12.067
REMARK  Name = 42608107
REMARK  7 active torsions:
REMARK  status: ('A' for Active; 'I' for Inactive)
REMARK    1  A    between atoms: O_2  and  C_17
REMARK    2  A    between atoms: O_2  and  C_21
REMARK    3  A    between atoms: O_9  and  C_24
REMARK    4  A    between atoms: O_11  and  C_31
REMARK    5  A    between atoms: O_13  and  C_33
REMARK    6  A    between atoms: C_18  and  C_22
REMARK    7  A    between atoms: C_19  and  C_20
REMARK                            x       y       z     vdW  Elec       q    Type
REMARK                         _______ _______ _______ _____ _____    ______ ____
ROOT
ATOM      1  C   UNL     1     106.070 125.538 147.987  0.00  0.00    +0.000 A 
ATOM      2  C   UNL     1     106.285 125.812 147.238  0.00  0.00    +0.000 A 
ATOM      3  C   UNL     1     106.609 125.107 148.439  0.00  0.00    +0.000 A 
ATOM      4  C   UNL     1     107.039 125.655 146.943  0.00  0.00    +0.000 A 
ATOM      5  C   UNL     1     107.363 124.950 148.142  0.00  0.00    +0.000 A 
ATOM      6  C   UNL     1     107.578 125.224 147.395  0.00  0.00    +0.000 A 
ENDROOT
BRANCH   1  10
ATOM      7  O   UNL     1     104.702 125.161 148.149  0.00  0.00    +0.000 OA
ATOM      8  O   UNL     1     104.282 127.234 149.433  0.00  0.00    +0.000 OA
ATOM      9  O   UNL     1     102.896 126.878 149.612  0.00  0.00    +0.000 OA
ATOM     10  C   UNL     1     105.316 125.696 148.282  0.00  0.00    +0.000 C 
ATOM     11  C   UNL     1     105.177 126.387 148.710  0.00  0.00    +0.000 C 
ATOM     12  C   UNL     1     104.422 126.543 149.005  0.00  0.00    +0.000 C 
ATOM     13  C   UNL     1     103.948 125.318 148.444  0.00  0.00    +0.000 A 
ATOM     14  C   UNL     1     103.808 126.010 148.872  0.00  0.00    +0.000 A 
ATOM     15  C   UNL     1     103.316 124.753 148.298  0.00  0.00    +0.000 A 
ATOM     16  C   UNL     1     103.026 126.184 149.185  0.00  0.00    +0.000 A 
ATOM     17  C   UNL     1     102.528 124.912 148.604  0.00  0.00    +0.000 A 
ATOM     18  C   UNL     1     102.383 125.632 149.050  0.00  0.00    +0.000 A 
BRANCH  15  19
ATOM     19  O   UNL     1     103.465 124.066 147.870  0.00  0.00    +0.000 OA
ATOM     20  C   UNL     1     103.089 123.942 147.145  0.00  0.00    +0.000 C 
ENDBRANCH  15  19
BRANCH  17  21
ATOM     21  O   UNL     1     101.916 124.376 148.469  0.00  0.00    +0.000 OA
ATOM     22  C   UNL     1     101.170 124.512 148.794  0.00  0.00    +0.000 C 
ENDBRANCH  17  21
ENDBRANCH   1  10
BRANCH   3  23
ATOM     23  O   UNL     1     106.394 124.833 149.186  0.00  0.00    +0.000 OA
ATOM     24  C   UNL     1     106.909 124.349 149.612  0.00  0.00    +0.000 C 
ENDBRANCH   3  23
BRANCH   2  25
ATOM     25  O   UNL     1     105.747 126.244 146.787  0.00  0.00    +0.000 OA
BRANCH  25  33
ATOM     26  O   UNL     1     105.721 125.445 145.602  0.00  0.00    +0.000 OA
ATOM     27  O   UNL     1     105.870 127.492 144.218  0.00  0.00    +0.000 OA
ATOM     28  O   UNL     1     105.846 127.608 145.864  0.00  0.00    +0.000 OA
ATOM     29  O   UNL     1     105.794 126.010 143.495  0.00  0.00    +0.000 OA
ATOM     30  C   UNL     1     105.820 126.809 144.680  0.00  0.00    +0.000 C 
ATOM     31  C   UNL     1     105.808 126.868 145.503  0.00  0.00    +0.000 C 
ATOM     32  C   UNL     1     105.782 126.069 144.319  0.00  0.00    +0.000 C 
ATOM     33  C   UNL     1     105.759 126.185 145.964  0.00  0.00    +0.000 C 
ATOM     34  C   UNL     1     105.733 125.386 144.780  0.00  0.00    +0.000 C 
BRANCH  34  37
ATOM     35  O   UNL     1     104.964 124.290 144.280  0.00  0.00    +0.000 OA
ATOM     36  O   UNL     1     106.389 124.262 144.193  0.00  0.00    +0.000 OA
ATOM     37  C   UNL     1     105.695 124.646 144.418  0.00  0.00    +0.000 C 
ENDBRANCH  34  37
ENDBRANCH  25  33
ENDBRANCH   2  25
TORSDOF 7
ENDMDL
MODEL 5
REMARK VINA RESULT:      -8.6      0.930      2.067
REMARK  Name = 42608107
REMARK  7 active torsions:
REMARK  status: ('A' for Active; 'I' for Inactive)
REMARK    1  A    between atoms: O_2  and  C_17
REMARK    2  A    between atoms: O_2  and  C_21
REMARK    3  A    between atoms: O_9  and  C_24
REMARK    4  A    between atoms: O_11  and  C_31
REMARK    5  A    between atoms: O_13  and  C_33
REMARK    6  A    between atoms: C_18  and  C_22
REMARK    7  A    between atoms: C_19  and  C_20
REMARK                            x       y       z     vdW  Elec       q    Type
REMARK                         _______ _______ _______ _____ _____    ______ ____
ROOT
ATOM      1  C   UNL     1     111.761 125.741 136.770  0.00  0.00    +0.000 A 
ATOM      2  C   UNL     1     111.541 126.328 136.234  0.00  0.00    +0.000 A 
ATOM      3  C   UNL     1     111.599 124.949 136.605  0.00  0.00    +0.000 A 
ATOM      4  C   UNL     1     111.158 126.123 135.532  0.00  0.00    +0.000 A 
ATOM      5  C   UNL     1     111.216 124.745 135.903  0.00  0.00    +0.000 A 
ATOM      6  C   UNL     1     110.996 125.331 135.367  0.00  0.00    +0.000 A 
ENDROOT
BRANCH   1  10
ATOM      7  O   UNL     1     111.701 126.164 138.134  0.00  0.00    +0.000 OA
ATOM      8  O   UNL     1     114.173 126.129 138.253  0.00  0.00    +0.000 OA
ATOM      9  O   UNL     1     114.142 126.556 139.631  0.00  0.00    +0.000 OA
ATOM     10  C   UNL     1     112.144 125.947 137.472  0.00  0.00    +0.000 C 
ATOM     11  C   UNL     1     112.968 125.935 137.511  0.00  0.00    +0.000 C 
ATOM     12  C   UNL     1     113.349 126.141 138.213  0.00  0.00    +0.000 C 
ATOM     13  C   UNL     1     112.084 126.370 138.835  0.00  0.00    +0.000 A 
ATOM     14  C   UNL     1     112.908 126.358 138.875  0.00  0.00    +0.000 A 
ATOM     15  C   UNL     1     111.612 126.595 139.518  0.00  0.00    +0.000 A 
ATOM     16  C   UNL     1     113.318 126.570 139.600  0.00  0.00    +0.000 A 
ATOM     17  C   UNL     1     112.005 126.810 140.251  0.00  0.00    +0.000 A 
ATOM     18  C   UNL     1     112.863 126.798 140.293  0.00  0.00    +0.000 A 
BRANCH  15  19
ATOM     19  O   UNL     1     110.789 126.603 139.469  0.00  0.00    +0.000 OA
ATOM     20  C   UNL     1     110.346 126.033 139.868  0.00  0.00    +0.000 C 
ENDBRANCH  15  19
BRANCH  17  21
ATOM     21  O   UNL     1     111.560 127.027 140.912  0.00  0.00    +0.000 OA
ATOM     22  C   UNL     1     111.912 127.454 141.524  0.00  0.00    +0.000 C 
ENDBRANCH  17  21
ENDBRANCH   1  10
BRANCH   3  23
ATOM     23  O   UNL     1     111.819 124.363 137.141  0.00  0.00    +0.000 OA
ATOM     24  C   UNL     1     111.736 123.567 136.940  0.00  0.00    +0.000 C 
ENDBRANCH   3  23
BRANCH   2  25
ATOM     25  O   UNL     1     111.703 127.120 136.399  0.00  0.00    +0.000 OA
BRANCH  25  33
ATOM     26  O   UNL     1     110.414 127.727 136.290  0.00  0.00    +0.000 OA
ATOM     27  O   UNL     1     111.356 129.465 134.801  0.00  0.00    +0.000 OA
ATOM     28  O   UNL     1     112.332 128.279 135.406  0.00  0.00    +0.000 OA
ATOM     29  O   UNL     1     109.753 129.492 135.189  0.00  0.00    +0.000 OA
ATOM     30  C   UNL     1     111.042 128.885 135.298  0.00  0.00    +0.000 C 
ATOM     31  C   UNL     1     111.530 128.292 135.600  0.00  0.00    +0.000 C 
ATOM     32  C   UNL     1     110.241 128.898 135.492  0.00  0.00    +0.000 C 
ATOM     33  C   UNL     1     111.216 127.713 136.097  0.00  0.00    +0.000 C 
ATOM     34  C   UNL     1     109.926 128.319 135.988  0.00  0.00    +0.000 C 
BRANCH  34  37
ATOM     35  O   UNL     1     108.565 128.054 135.644  0.00  0.00    +0.000 OA
ATOM     36  O   UNL     1     108.882 128.627 136.913  0.00  0.00    +0.000 OA
ATOM     37  C   UNL     1     109.124 128.333 136.181  0.00  0.00    +0.000 C 
ENDBRANCH  34  37
ENDBRANCH  25  33
ENDBRANCH   2  25
TORSDOF 7
ENDMDL
MODEL 6
REMARK VINA RESULT:      -8.6      1.553      4.420
REMARK  Name = 42608107
REMARK  7 active torsions:
REMARK  status: ('A' for Active; 'I' for Inactive)
REMARK    1  A    between atoms: O_2  and  C_17
REMARK    2  A    between atoms: O_2  and  C_21
REMARK    3  A    between atoms: O_9  and  C_24
REMARK    4  A    between atoms: O_11  and  C_31
REMARK    5  A    between atoms: O_13  and  C_33
REMARK    6  A    between atoms: C_18  and  C_22
REMARK    7  A    between atoms: C_19  and  C_20
REMARK                            x       y       z     vdW  Elec       q    Type
REMARK                         _______ _______ _______ _____ _____    ______ ____
ROOT
ATOM      1  C   UNL     1     113.225 125.877 137.319  0.00  0.00    +0.000 A 
ATOM      2  C   UNL     1     113.123 126.019 138.126  0.00  0.00    +0.000 A 
ATOM      3  C   UNL     1     113.956 125.622 137.034  0.00  0.00    +0.000 A 
ATOM      4  C   UNL     1     113.752 125.905 138.647  0.00  0.00    +0.000 A 
ATOM      5  C   UNL     1     114.585 125.509 137.556  0.00  0.00    +0.000 A 
ATOM      6  C   UNL     1     114.483 125.650 138.362  0.00  0.00    +0.000 A 
ENDROOT
BRANCH   1  10
ATOM      7  O   UNL     1     112.440 126.744 136.498  0.00  0.00    +0.000 OA
ATOM      8  O   UNL     1     111.017 124.830 135.837  0.00  0.00    +0.000 OA
ATOM      9  O   UNL     1     110.208 125.683 135.001  0.00  0.00    +0.000 OA
ATOM     10  C   UNL     1     112.595 125.991 136.799  0.00  0.00    +0.000 C 
ATOM     11  C   UNL     1     112.121 125.353 136.578  0.00  0.00    +0.000 C 
ATOM     12  C   UNL     1     111.491 125.468 136.057  0.00  0.00    +0.000 C 
ATOM     13  C   UNL     1     111.811 126.858 135.977  0.00  0.00    +0.000 A 
ATOM     14  C   UNL     1     111.336 126.220 135.757  0.00  0.00    +0.000 A 
ATOM     15  C   UNL     1     111.659 127.648 135.671  0.00  0.00    +0.000 A 
ATOM     16  C   UNL     1     110.677 126.327 135.215  0.00  0.00    +0.000 A 
ATOM     17  C   UNL     1     111.005 127.772 135.128  0.00  0.00    +0.000 A 
ATOM     18  C   UNL     1     110.511 127.108 134.899  0.00  0.00    +0.000 A 
BRANCH  15  19
ATOM     19  O   UNL     1     112.139 128.279 135.897  0.00  0.00    +0.000 OA
ATOM     20  C   UNL     1     112.655 128.620 135.351  0.00  0.00    +0.000 C 
ENDBRANCH  15  19
BRANCH  17  21
ATOM     21  O   UNL     1     110.853 128.527 134.830  0.00  0.00    +0.000 OA
ATOM     22  C   UNL     1     110.085 128.736 134.612  0.00  0.00    +0.000 C 
ENDBRANCH  17  21
ENDBRANCH   1  10
BRANCH   3  23
ATOM     23  O   UNL     1     114.057 125.481 136.228  0.00  0.00    +0.000 OA
ATOM     24  C   UNL     1     114.801 125.275 135.936  0.00  0.00    +0.000 C 
ENDBRANCH   3  23
BRANCH   2  25
ATOM     25  O   UNL     1     112.392 126.274 138.411  0.00  0.00    +0.000 OA
BRANCH  25  33
ATOM     26  O   UNL     1     112.755 127.447 139.143  0.00  0.00    +0.000 OA
ATOM     27  O   UNL     1     111.434 126.648 141.078  0.00  0.00    +0.000 OA
ATOM     28  O   UNL     1     111.511 125.742 139.701  0.00  0.00    +0.000 OA
ATOM     29  O   UNL     1     112.237 128.087 141.165  0.00  0.00    +0.000 OA
ATOM     30  C   UNL     1     111.874 126.914 140.433  0.00  0.00    +0.000 C 
ATOM     31  C   UNL     1     111.913 126.461 139.744  0.00  0.00    +0.000 C 
ATOM     32  C   UNL     1     112.276 127.634 140.476  0.00  0.00    +0.000 C 
ATOM     33  C   UNL     1     112.353 126.727 139.099  0.00  0.00    +0.000 C 
ATOM     34  C   UNL     1     112.716 127.900 139.831  0.00  0.00    +0.000 C 
BRANCH  34  37
ATOM     35  O   UNL     1     112.802 129.291 139.514  0.00  0.00    +0.000 OA
ATOM     36  O   UNL     1     113.834 128.667 140.280  0.00  0.00    +0.000 OA
ATOM     37  C   UNL     1     113.117 128.619 139.875  0.00  0.00    +0.000 C 
ENDBRANCH  34  37
ENDBRANCH  25  33
ENDBRANCH   2  25
TORSDOF 7
ENDMDL
MODEL 7
REMARK VINA RESULT:      -8.6      1.773      2.772
REMARK  Name = 42608107
REMARK  7 active torsions:
REMARK  status: ('A' for Active; 'I' for Inactive)
REMARK    1  A    between atoms: O_2  and  C_17
REMARK    2  A    between atoms: O_2  and  C_21
REMARK    3  A    between atoms: O_9  and  C_24
REMARK    4  A    between atoms: O_11  and  C_31
REMARK    5  A    between atoms: O_13  and  C_33
REMARK    6  A    between atoms: C_18  and  C_22
REMARK    7  A    between atoms: C_19  and  C_20
REMARK                            x       y       z     vdW  Elec       q    Type
REMARK                         _______ _______ _______ _____ _____    ______ ____
ROOT
ATOM      1  C   UNL     1     112.677 128.128 135.927  0.00  0.00    +0.000 A 
ATOM      2  C   UNL     1     111.908 128.041 135.639  0.00  0.00    +0.000 A 
ATOM      3  C   UNL     1     113.183 128.686 135.589  0.00  0.00    +0.000 A 
ATOM      4  C   UNL     1     111.646 128.513 135.015  0.00  0.00    +0.000 A 
ATOM      5  C   UNL     1     112.920 129.157 134.965  0.00  0.00    +0.000 A 
ATOM      6  C   UNL     1     112.152 129.070 134.678  0.00  0.00    +0.000 A 
ENDROOT
BRANCH   1  10
ATOM      7  O   UNL     1     112.856 127.920 137.329  0.00  0.00    +0.000 OA
ATOM      8  O   UNL     1     113.890 125.719 136.870  0.00  0.00    +0.000 OA
ATOM      9  O   UNL     1     114.083 125.483 138.280  0.00  0.00    +0.000 OA
ATOM     10  C   UNL     1     112.939 127.657 136.551  0.00  0.00    +0.000 C 
ATOM     11  C   UNL     1     113.284 126.923 136.398  0.00  0.00    +0.000 C 
ATOM     12  C   UNL     1     113.546 126.452 137.023  0.00  0.00    +0.000 C 
ATOM     13  C   UNL     1     113.118 127.449 137.953  0.00  0.00    +0.000 A 
ATOM     14  C   UNL     1     113.463 126.715 137.800  0.00  0.00    +0.000 A 
ATOM     15  C   UNL     1     113.026 127.734 138.759  0.00  0.00    +0.000 A 
ATOM     16  C   UNL     1     113.739 126.215 138.443  0.00  0.00    +0.000 A 
ATOM     17  C   UNL     1     113.297 127.247 139.414  0.00  0.00    +0.000 A 
ATOM     18  C   UNL     1     113.656 126.483 139.255  0.00  0.00    +0.000 A 
BRANCH  15  19
ATOM     19  O   UNL     1     112.680 128.469 138.902  0.00  0.00    +0.000 OA
ATOM     20  C   UNL     1     111.956 128.514 139.295  0.00  0.00    +0.000 C 
ENDBRANCH  15  19
BRANCH  17  21
ATOM     21  O   UNL     1     113.212 127.513 140.191  0.00  0.00    +0.000 OA
ATOM     22  C   UNL     1     113.665 127.178 140.793  0.00  0.00    +0.000 C 
ENDBRANCH  17  21
ENDBRANCH   1  10
BRANCH   3  23
ATOM     23  O   UNL     1     113.951 128.772 135.877  0.00  0.00    +0.000 OA
ATOM     24  C   UNL     1     114.454 129.337 135.546  0.00  0.00    +0.000 C 
ENDBRANCH   3  23
BRANCH   2  25
ATOM     25  O   UNL     1     111.402 127.484 135.976  0.00  0.00    +0.000 OA
BRANCH  25  33
ATOM     26  O   UNL     1     110.267 128.298 136.278  0.00  0.00    +0.000 OA
ATOM     27  O   UNL     1     108.777 126.587 135.290  0.00  0.00    +0.000 OA
ATOM     28  O   UNL     1     110.409 126.343 135.318  0.00  0.00    +0.000 OA
ATOM     29  O   UNL     1     108.139 127.971 135.921  0.00  0.00    +0.000 OA
ATOM     30  C   UNL     1     109.274 127.157 135.619  0.00  0.00    +0.000 C 
ATOM     31  C   UNL     1     110.090 127.035 135.633  0.00  0.00    +0.000 C 
ATOM     32  C   UNL     1     108.955 127.850 135.935  0.00  0.00    +0.000 C 
ATOM     33  C   UNL     1     110.587 127.606 135.963  0.00  0.00    +0.000 C 
ATOM     34  C   UNL     1     109.452 128.420 136.264  0.00  0.00    +0.000 C 
BRANCH  34  37
ATOM     35  O   UNL     1     108.892 129.722 136.079  0.00  0.00    +0.000 OA
ATOM     36  O   UNL     1     109.053 129.194 137.397  0.00  0.00    +0.000 OA
ATOM     37  C   UNL     1     109.132 129.112 136.580  0.00  0.00    +0.000 C 
ENDBRANCH  34  37
ENDBRANCH  25  33
ENDBRANCH   2  25
TORSDOF 7
ENDMDL
MODEL 8
REMARK VINA RESULT:      -8.5      1.815      3.360
REMARK  Name = 42608107
REMARK  7 active torsions:
REMARK  status: ('A' for Active; 'I' for Inactive)
REMARK    1  A    between atoms: O_2  and  C_17
REMARK    2  A    between atoms: O_2  and  C_21
REMARK    3  A    between atoms: O_9  and  C_24
REMARK    4  A    between atoms: O_11  and  C_31
REMARK    5  A    between atoms: O_13  and  C_33
REMARK    6  A    between atoms: C_18  and  C_22
REMARK    7  A    between atoms: C_19  and  C_20
REMARK                            x       y       z     vdW  Elec       q    Type
REMARK                         _______ _______ _______ _____ _____    ______ ____
ROOT
ATOM      1  C   UNL     1     112.386 129.329 136.207  0.00  0.00    +0.000 A 
ATOM      2  C   UNL     1     111.616 129.381 135.913  0.00  0.00    +0.000 A 
ATOM      3  C   UNL     1     113.007 129.124 135.704  0.00  0.00    +0.000 A 
ATOM      4  C   UNL     1     111.469 129.228 135.116  0.00  0.00    +0.000 A 
ATOM      5  C   UNL     1     112.858 128.971 134.907  0.00  0.00    +0.000 A 
ATOM      6  C   UNL     1     112.090 129.023 134.613  0.00  0.00    +0.000 A 
ENDROOT
BRANCH   1  10
ATOM      7  O   UNL     1     112.539 128.862 137.549  0.00  0.00    +0.000 OA
ATOM      8  O   UNL     1     112.964 131.179 138.307  0.00  0.00    +0.000 OA
ATOM      9  O   UNL     1     113.124 130.735 139.670  0.00  0.00    +0.000 OA
ATOM     10  C   UNL     1     112.534 129.482 137.004  0.00  0.00    +0.000 C 
ATOM     11  C   UNL     1     112.675 130.255 137.257  0.00  0.00    +0.000 C 
ATOM     12  C   UNL     1     112.823 130.407 138.054  0.00  0.00    +0.000 C 
ATOM     13  C   UNL     1     112.686 129.015 138.346  0.00  0.00    +0.000 A 
ATOM     14  C   UNL     1     112.828 129.787 138.598  0.00  0.00    +0.000 A 
ATOM     15  C   UNL     1     112.689 128.360 138.903  0.00  0.00    +0.000 A 
ATOM     16  C   UNL     1     112.983 129.959 139.426  0.00  0.00    +0.000 A 
ATOM     17  C   UNL     1     112.842 128.514 139.735  0.00  0.00    +0.000 A 
ATOM     18  C   UNL     1     112.990 129.318 139.998  0.00  0.00    +0.000 A 
BRANCH  15  19
ATOM     19  O   UNL     1     112.547 127.592 138.641  0.00  0.00    +0.000 OA
ATOM     20  C   UNL     1     111.861 127.197 138.876  0.00  0.00    +0.000 C 
ENDBRANCH  15  19
BRANCH  17  21
ATOM     21  O   UNL     1     112.847 127.891 140.277  0.00  0.00    +0.000 OA
ATOM     22  C   UNL     1     113.188 127.995 141.021  0.00  0.00    +0.000 C 
ENDBRANCH  17  21
ENDBRANCH   1  10
BRANCH   3  23
ATOM     23  O   UNL     1     113.776 129.073 135.998  0.00  0.00    +0.000 OA
ATOM     24  C   UNL     1     114.397 128.868 135.495  0.00  0.00    +0.000 C 
ENDBRANCH   3  23
BRANCH   2  25
ATOM     25  O   UNL     1     110.995 129.586 136.416  0.00  0.00    +0.000 OA
BRANCH  25  33
ATOM     26  O   UNL     1     110.061 128.516 136.257  0.00  0.00    +0.000 OA
ATOM     27  O   UNL     1     108.271 130.152 135.762  0.00  0.00    +0.000 OA
ATOM     28  O   UNL     1     109.802 130.676 136.086  0.00  0.00    +0.000 OA
ATOM     29  O   UNL     1     107.934 128.537 135.769  0.00  0.00    +0.000 OA
ATOM     30  C   UNL     1     108.868 129.607 135.927  0.00  0.00    +0.000 C 
ATOM     31  C   UNL     1     109.634 129.869 136.089  0.00  0.00    +0.000 C 
ATOM     32  C   UNL     1     108.700 128.799 135.930  0.00  0.00    +0.000 C 
ATOM     33  C   UNL     1     110.231 129.323 136.254  0.00  0.00    +0.000 C 
ATOM     34  C   UNL     1     109.297 128.254 136.095  0.00  0.00    +0.000 C 
BRANCH  34  37
ATOM     35  O   UNL     1     109.161 127.014 135.397  0.00  0.00    +0.000 OA
ATOM     36  O   UNL     1     108.924 127.070 136.804  0.00  0.00    +0.000 OA
ATOM     37  C   UNL     1     109.127 127.446 136.098  0.00  0.00    +0.000 C 
ENDBRANCH  34  37
ENDBRANCH  25  33
ENDBRANCH   2  25
TORSDOF 7
ENDMDL
MODEL 9
REMARK VINA RESULT:      -8.4      1.841      3.616
REMARK  Name = 42608107
REMARK  7 active torsions:
REMARK  status: ('A' for Active; 'I' for Inactive)
REMARK    1  A    between atoms: O_2  and  C_17
REMARK    2  A    between atoms: O_2  and  C_21
REMARK    3  A    between atoms: O_9  and  C_24
REMARK    4  A    between atoms: O_11  and  C_31
REMARK    5  A    between atoms: O_13  and  C_33
REMARK    6  A    between atoms: C_18  and  C_22
REMARK    7  A    between atoms: C_19  and  C_20
REMARK                            x       y       z     vdW  Elec       q    Type
REMARK                         _______ _______ _______ _____ _____    ______ ____
ROOT
ATOM      1  C   UNL     1     111.968 128.675 136.285  0.00  0.00    +0.000 A 
ATOM      2  C   UNL     1     111.468 129.196 136.686  0.00  0.00    +0.000 A 
ATOM      3  C   UNL     1     112.712 128.928 136.035  0.00  0.00    +0.000 A 
ATOM      4  C   UNL     1     111.713 129.969 136.836  0.00  0.00    +0.000 A 
ATOM      5  C   UNL     1     112.957 129.702 136.186  0.00  0.00    +0.000 A 
ATOM      6  C   UNL     1     112.458 130.222 136.586  0.00  0.00    +0.000 A 
ENDROOT
BRANCH   1  10
ATOM      7  O   UNL     1     111.902 127.301 136.672  0.00  0.00    +0.000 OA
ATOM      8  O   UNL     1     110.628 126.783 134.614  0.00  0.00    +0.000 OA
ATOM      9  O   UNL     1     110.547 125.390 134.980  0.00  0.00    +0.000 OA
ATOM     10  C   UNL     1     111.722 127.902 136.135  0.00  0.00    +0.000 C 
ATOM     11  C   UNL     1     111.298 127.730 135.449  0.00  0.00    +0.000 C 
ATOM     12  C   UNL     1     111.053 126.956 135.300  0.00  0.00    +0.000 C 
ATOM     13  C   UNL     1     111.656 126.528 136.522  0.00  0.00    +0.000 A 
ATOM     14  C   UNL     1     111.232 126.355 135.836  0.00  0.00    +0.000 A 
ATOM     15  C   UNL     1     111.850 125.911 137.089  0.00  0.00    +0.000 A 
ATOM     16  C   UNL     1     110.971 125.554 135.669  0.00  0.00    +0.000 A 
ATOM     17  C   UNL     1     111.596 125.104 136.938  0.00  0.00    +0.000 A 
ATOM     18  C   UNL     1     111.154 124.924 136.224  0.00  0.00    +0.000 A 
BRANCH  15  19
ATOM     19  O   UNL     1     112.274 126.093 137.771  0.00  0.00    +0.000 OA
ATOM     20  C   UNL     1     111.897 126.086 138.506  0.00  0.00    +0.000 C 
ENDBRANCH  15  19
BRANCH  17  21
ATOM     21  O   UNL     1     111.778 124.505 137.477  0.00  0.00    +0.000 OA
ATOM     22  C   UNL     1     111.873 123.729 137.214  0.00  0.00    +0.000 C 
ENDBRANCH  17  21
ENDBRANCH   1  10
BRANCH   3  23
ATOM     23  O   UNL     1     113.211 128.408 135.635  0.00  0.00    +0.000 OA
ATOM     24  C   UNL     1     113.964 128.655 135.403  0.00  0.00    +0.000 C 
ENDBRANCH   3  23
BRANCH   2  25
ATOM     25  O   UNL     1     110.724 128.943 136.936  0.00  0.00    +0.000 OA
BRANCH  25  33
ATOM     26  O   UNL     1     109.875 129.955 136.390  0.00  0.00    +0.000 OA
ATOM     27  O   UNL     1     108.753 130.196 138.583  0.00  0.00    +0.000 OA
ATOM     28  O   UNL     1     109.976 129.104 138.398  0.00  0.00    +0.000 OA
ATOM     29  O   UNL     1     108.278 131.128 137.307  0.00  0.00    +0.000 OA
ATOM     30  C   UNL     1     109.127 130.116 137.852  0.00  0.00    +0.000 C 
ATOM     31  C   UNL     1     109.739 129.569 137.759  0.00  0.00    +0.000 C 
ATOM     32  C   UNL     1     108.890 130.581 137.214  0.00  0.00    +0.000 C 
ATOM     33  C   UNL     1     110.113 129.489 137.028  0.00  0.00    +0.000 C 
ATOM     34  C   UNL     1     109.264 130.501 136.483  0.00  0.00    +0.000 C 
BRANCH  34  37
ATOM     35  O   UNL     1     109.282 131.748 135.786  0.00  0.00    +0.000 OA
ATOM     36  O   UNL     1     108.531 130.650 135.266  0.00  0.00    +0.000 OA
ATOM     37  C   UNL     1     109.026 130.967 135.845  0.00  0.00    +0.000 C 
ENDBRANCH  34  37
ENDBRANCH  25  33
ENDBRANCH   2  25
TORSDOF 7
ENDMDL
MODEL 10
REMARK VINA RESULT:      -8.3      1.631      4.849
REMARK  Name = 42608107
REMARK  7 active torsions:
REMARK  status: ('A' for Active; 'I' for Inactive)
REMARK    1  A    between atoms: O_2  and  C_17
REMARK    2  A    between atoms: O_2  and  C_21
REMARK    3  A    between atoms: O_9  and  C_24
REMARK    4  A    between atoms: O_11  and  C_31
REMARK    5  A    between atoms: O_13  and  C_33
REMARK    6  A    between atoms: C_18  and  C_22
REMARK    7  A    between atoms: C_19  and  C_20
REMARK                            x       y       z     vdW  Elec       q    Type
REMARK                         _______ _______ _______ _____ _____    ______ ____
ROOT
ATOM      1  C   UNL     1     112.654 127.801 138.454  0.00  0.00    +0.000 A 
ATOM      2  C   UNL     1     112.629 126.976 138.430  0.00  0.00    +0.000 A 
ATOM      3  C   UNL     1     113.038 128.185 139.074  0.00  0.00    +0.000 A 
ATOM      4  C   UNL     1     112.989 126.537 139.028  0.00  0.00    +0.000 A 
ATOM      5  C   UNL     1     113.398 127.744 139.672  0.00  0.00    +0.000 A 
ATOM      6  C   UNL     1     113.373 126.921 139.649  0.00  0.00    +0.000 A 
ENDROOT
BRANCH   1  10
ATOM      7  O   UNL     1     111.492 128.431 137.909  0.00  0.00    +0.000 OA
ATOM      8  O   UNL     1     112.814 129.182 135.956  0.00  0.00    +0.000 OA
ATOM      9  O   UNL     1     111.657 129.825 135.384  0.00  0.00    +0.000 OA
ATOM     10  C   UNL     1     112.294 128.241 137.856  0.00  0.00    +0.000 C 
ATOM     11  C   UNL     1     112.734 128.491 137.205  0.00  0.00    +0.000 C 
ATOM     12  C   UNL     1     112.373 128.931 136.607  0.00  0.00    +0.000 C 
ATOM     13  C   UNL     1     111.132 128.870 137.311  0.00  0.00    +0.000 A 
ATOM     14  C   UNL     1     111.573 129.121 136.660  0.00  0.00    +0.000 A 
ATOM     15  C   UNL     1     110.296 129.061 137.379  0.00  0.00    +0.000 A 
ATOM     16  C   UNL     1     111.208 129.579 136.031  0.00  0.00    +0.000 A 
ATOM     17  C   UNL     1     109.916 129.519 136.759  0.00  0.00    +0.000 A 
ATOM     18  C   UNL     1     110.374 129.780 136.081  0.00  0.00    +0.000 A 
BRANCH  15  19
ATOM     19  O   UNL     1     109.864 128.807 138.033  0.00  0.00    +0.000 OA
ATOM     20  C   UNL     1     109.608 129.353 138.596  0.00  0.00    +0.000 C 
ENDBRANCH  15  19
BRANCH  17  21
ATOM     21  O   UNL     1     109.114 129.707 136.816  0.00  0.00    +0.000 OA
ATOM     22  C   UNL     1     108.699 129.947 136.144  0.00  0.00    +0.000 C 
ENDBRANCH  17  21
ENDBRANCH   1  10
BRANCH   3  23
ATOM     23  O   UNL     1     113.063 129.009 139.097  0.00  0.00    +0.000 OA
ATOM     24  C   UNL     1     113.423 129.393 139.732  0.00  0.00    +0.000 C 
ENDBRANCH   3  23
BRANCH   2  25
ATOM     25  O   UNL     1     112.244 126.592 137.810  0.00  0.00    +0.000 OA
BRANCH  25  33
ATOM     26  O   UNL     1     113.273 125.710 137.357  0.00  0.00    +0.000 OA
ATOM     27  O   UNL     1     111.650 123.841 137.313  0.00  0.00    +0.000 OA
ATOM     28  O   UNL     1     111.163 125.347 137.781  0.00  0.00    +0.000 OA
ATOM     29  O   UNL     1     113.220 123.582 136.875  0.00  0.00    +0.000 OA
ATOM     30  C   UNL     1     112.191 124.464 137.328  0.00  0.00    +0.000 C 
ATOM     31  C   UNL     1     111.947 125.218 137.562  0.00  0.00    +0.000 C 
ATOM     32  C   UNL     1     112.976 124.335 137.109  0.00  0.00    +0.000 C 
ATOM     33  C   UNL     1     112.488 125.840 137.576  0.00  0.00    +0.000 C 
ATOM     34  C   UNL     1     113.517 124.958 137.123  0.00  0.00    +0.000 C 
BRANCH  34  37
ATOM     35  O   UNL     1     114.830 124.492 137.440  0.00  0.00    +0.000 OA
ATOM     36  O   UNL     1     114.557 125.033 136.147  0.00  0.00    +0.000 OA
ATOM     37  C   UNL     1     114.301 124.827 136.904  0.00  0.00    +0.000 C 
ENDBRANCH  34  37
ENDBRANCH  25  33
ENDBRANCH   2  25
TORSDOF 7
ENDMDL
