MODEL 1
REMARK VINA RESULT:     -10.6      0.000      0.000
REMARK  Name = 44258926
REMARK  5 active torsions:
REMARK  status: ('A' for Active; 'I' for Inactive)
REMARK    1  A    between atoms: O_1  and  C_15
REMARK    2  A    between atoms: O_1  and  C_16
REMARK    3  A    between atoms: O_8  and  C_24
REMARK    4  A    between atoms: O_8  and  C_26
REMARK    5  A    between atoms: C_27  and  C_31
REMARK                            x       y       z     vdW  Elec       q    Type
REMARK                         _______ _______ _______ _____ _____    ______ ____
ROOT
ATOM      1  O   UNL     1     104.803 124.768 147.023  0.00  0.00    +0.000 OA
ENDROOT
BRANCH   1   6
ATOM      2  O   UNL     1     102.639 124.493 147.100  0.00  0.00    +0.000 OA
ATOM      3  O   UNL     1     104.592 123.625 145.852  0.00  0.00    +0.000 OA
ATOM      4  O   UNL     1     103.745 122.754 145.075  0.00  0.00    +0.000 OA
ATOM      5  O   UNL     1     100.866 122.762 145.571  0.00  0.00    +0.000 OA
ATOM      6  C   UNL     1     104.047 124.486 146.854  0.00  0.00    +0.000 A 
ATOM      7  C   UNL     1     103.397 124.775 147.270  0.00  0.00    +0.000 A 
ATOM      8  C   UNL     1     103.941 123.914 146.268  0.00  0.00    +0.000 A 
ATOM      9  C   UNL     1     103.185 123.633 146.099  0.00  0.00    +0.000 A 
ATOM     10  C   UNL     1     102.534 123.922 146.515  0.00  0.00    +0.000 A 
ATOM     11  C   UNL     1     103.088 123.037 145.486  0.00  0.00    +0.000 A 
ATOM     12  C   UNL     1     101.741 123.636 146.347  0.00  0.00    +0.000 A 
ATOM     13  C   UNL     1     102.302 122.740 145.305  0.00  0.00    +0.000 A 
ATOM     14  C   UNL     1     101.624 123.042 145.739  0.00  0.00    +0.000 A 
BRANCH   7  16
ATOM     15  O   UNL     1     103.816 127.062 149.611  0.00  0.00    +0.000 OA
ATOM     16  C   UNL     1     103.501 125.347 147.856  0.00  0.00    +0.000 A 
ATOM     17  C   UNL     1     103.293 126.132 147.708  0.00  0.00    +0.000 A 
ATOM     18  C   UNL     1     103.815 125.134 148.589  0.00  0.00    +0.000 A 
ATOM     19  C   UNL     1     103.398 126.703 148.293  0.00  0.00    +0.000 A 
ATOM     20  C   UNL     1     103.919 125.706 149.174  0.00  0.00    +0.000 A 
ATOM     21  C   UNL     1     103.711 126.490 149.026  0.00  0.00    +0.000 A 
ENDBRANCH   7  16
ENDBRANCH   1   6
BRANCH   1  29
ATOM     22  O   UNL     1     104.866 125.559 145.835  0.00  0.00    +0.000 OA
ATOM     23  O   UNL     1     107.336 125.418 145.871  0.00  0.00    +0.000 OA
ATOM     24  O   UNL     1     106.451 124.674 147.047  0.00  0.00    +0.000 OA
ATOM     25  C   UNL     1     106.132 125.884 145.259  0.00  0.00    +0.000 C 
ATOM     26  C   UNL     1     106.513 125.465 145.859  0.00  0.00    +0.000 C 
ATOM     27  C   UNL     1     106.071 125.093 146.447  0.00  0.00    +0.000 C 
ATOM     28  C   UNL     1     105.309 125.931 145.247  0.00  0.00    +0.000 C 
ATOM     29  C   UNL     1     105.246 125.140 146.435  0.00  0.00    +0.000 C 
BRANCH  25  30
ATOM     30  O   UNL     1     106.575 126.256 144.671  0.00  0.00    +0.000 OA
BRANCH  30  35
ATOM     31  O   UNL     1     106.253 125.436 143.546  0.00  0.00    +0.000 OA
ATOM     32  O   UNL     1     106.332 127.607 143.755  0.00  0.00    +0.000 OA
ATOM     33  O   UNL     1     105.889 127.462 142.172  0.00  0.00    +0.000 OA
ATOM     34  O   UNL     1     105.689 125.966 141.505  0.00  0.00    +0.000 OA
ATOM     35  C   UNL     1     106.353 126.184 143.879  0.00  0.00    +0.000 C 
ATOM     36  C   UNL     1     106.232 126.859 143.421  0.00  0.00    +0.000 C 
ATOM     37  C   UNL     1     106.011 126.786 142.630  0.00  0.00    +0.000 C 
ATOM     38  C   UNL     1     105.911 126.039 142.297  0.00  0.00    +0.000 C 
ATOM     39  C   UNL     1     106.032 125.364 142.755  0.00  0.00    +0.000 C 
ATOM     40  C   UNL     1     105.932 124.615 142.421  0.00  0.00    +0.000 C 
ENDBRANCH  30  35
ENDBRANCH  25  30
ENDBRANCH   1  29
TORSDOF 5
ENDMDL
MODEL 2
REMARK VINA RESULT:     -10.4     10.351     12.872
REMARK  Name = 44258926
REMARK  5 active torsions:
REMARK  status: ('A' for Active; 'I' for Inactive)
REMARK    1  A    between atoms: O_1  and  C_15
REMARK    2  A    between atoms: O_1  and  C_16
REMARK    3  A    between atoms: O_8  and  C_24
REMARK    4  A    between atoms: O_8  and  C_26
REMARK    5  A    between atoms: C_27  and  C_31
REMARK                            x       y       z     vdW  Elec       q    Type
REMARK                         _______ _______ _______ _____ _____    ______ ____
ROOT
ATOM      1  O   UNL     1     111.558 128.074 137.332  0.00  0.00    +0.000 OA
ENDROOT
BRANCH   1   6
ATOM      2  O   UNL     1     113.178 127.849 135.887  0.00  0.00    +0.000 OA
ATOM      3  O   UNL     1     112.236 129.577 137.387  0.00  0.00    +0.000 OA
ATOM      4  O   UNL     1     113.226 130.533 136.955  0.00  0.00    +0.000 OA
ATOM      5  O   UNL     1     115.207 129.724 134.968  0.00  0.00    +0.000 OA
ATOM      6  C   UNL     1     112.210 128.249 136.860  0.00  0.00    +0.000 A 
ATOM      7  C   UNL     1     112.525 127.673 136.360  0.00  0.00    +0.000 A 
ATOM      8  C   UNL     1     112.550 129.001 136.887  0.00  0.00    +0.000 A 
ATOM      9  C   UNL     1     113.202 129.177 136.415  0.00  0.00    +0.000 A 
ATOM     10  C   UNL     1     113.517 128.600 135.915  0.00  0.00    +0.000 A 
ATOM     11  C   UNL     1     113.547 129.963 136.452  0.00  0.00    +0.000 A 
ATOM     12  C   UNL     1     114.197 128.771 135.418  0.00  0.00    +0.000 A 
ATOM     13  C   UNL     1     114.227 130.152 135.962  0.00  0.00    +0.000 A 
ATOM     14  C   UNL     1     114.554 129.551 135.441  0.00  0.00    +0.000 A 
BRANCH   7  16
ATOM     15  O   UNL     1     111.172 124.666 136.251  0.00  0.00    +0.000 OA
ATOM     16  C   UNL     1     112.186 126.921 136.332  0.00  0.00    +0.000 A 
ATOM     17  C   UNL     1     112.346 126.375 136.931  0.00  0.00    +0.000 A 
ATOM     18  C   UNL     1     111.689 126.715 135.707  0.00  0.00    +0.000 A 
ATOM     19  C   UNL     1     112.007 125.624 136.903  0.00  0.00    +0.000 A 
ATOM     20  C   UNL     1     111.351 125.963 135.681  0.00  0.00    +0.000 A 
ATOM     21  C   UNL     1     111.510 125.417 136.278  0.00  0.00    +0.000 A 
ENDBRANCH   7  16
ENDBRANCH   1   6
BRANCH   1  29
ATOM     22  O   UNL     1     110.656 128.834 136.525  0.00  0.00    +0.000 OA
ATOM     23  O   UNL     1     109.196 129.190 138.491  0.00  0.00    +0.000 OA
ATOM     24  O   UNL     1     110.584 128.311 138.643  0.00  0.00    +0.000 OA
ATOM     25  C   UNL     1     109.476 129.392 137.104  0.00  0.00    +0.000 C 
ATOM     26  C   UNL     1     109.682 129.072 137.836  0.00  0.00    +0.000 C 
ATOM     27  C   UNL     1     110.376 128.632 137.912  0.00  0.00    +0.000 C 
ATOM     28  C   UNL     1     109.962 129.274 136.449  0.00  0.00    +0.000 C 
ATOM     29  C   UNL     1     110.864 128.513 137.256  0.00  0.00    +0.000 C 
BRANCH  25  30
ATOM     30  O   UNL     1     108.782 129.831 137.028  0.00  0.00    +0.000 OA
BRANCH  30  35
ATOM     31  O   UNL     1     109.367 131.111 136.779  0.00  0.00    +0.000 OA
ATOM     32  O   UNL     1     107.639 130.131 135.876  0.00  0.00    +0.000 OA
ATOM     33  O   UNL     1     107.653 131.560 135.051  0.00  0.00    +0.000 OA
ATOM     34  O   UNL     1     108.810 132.689 135.378  0.00  0.00    +0.000 OA
ATOM     35  C   UNL     1     108.789 130.546 136.615  0.00  0.00    +0.000 C 
ATOM     36  C   UNL     1     108.217 130.696 136.039  0.00  0.00    +0.000 C 
ATOM     37  C   UNL     1     108.224 131.410 135.627  0.00  0.00    +0.000 C 
ATOM     38  C   UNL     1     108.802 131.975 135.790  0.00  0.00    +0.000 C 
ATOM     39  C   UNL     1     109.374 131.825 136.366  0.00  0.00    +0.000 C 
ATOM     40  C   UNL     1     109.953 132.390 136.530  0.00  0.00    +0.000 C 
ENDBRANCH  30  35
ENDBRANCH  25  30
ENDBRANCH   1  29
TORSDOF 5
ENDMDL
MODEL 3
REMARK VINA RESULT:     -10.4     11.458     12.670
REMARK  Name = 44258926
REMARK  5 active torsions:
REMARK  status: ('A' for Active; 'I' for Inactive)
REMARK    1  A    between atoms: O_1  and  C_15
REMARK    2  A    between atoms: O_1  and  C_16
REMARK    3  A    between atoms: O_8  and  C_24
REMARK    4  A    between atoms: O_8  and  C_26
REMARK    5  A    between atoms: C_27  and  C_31
REMARK                            x       y       z     vdW  Elec       q    Type
REMARK                         _______ _______ _______ _____ _____    ______ ____
ROOT
ATOM      1  O   UNL     1     113.166 127.611 136.236  0.00  0.00    +0.000 OA
ENDROOT
BRANCH   1   6
ATOM      2  O   UNL     1     111.857 125.872 136.068  0.00  0.00    +0.000 OA
ATOM      3  O   UNL     1     111.945 128.227 135.312  0.00  0.00    +0.000 OA
ATOM      4  O   UNL     1     110.685 128.084 134.625  0.00  0.00    +0.000 OA
ATOM      5  O   UNL     1     109.309 125.508 134.705  0.00  0.00    +0.000 OA
ATOM      6  C   UNL     1     112.526 127.135 136.026  0.00  0.00    +0.000 A 
ATOM      7  C   UNL     1     112.497 126.349 136.278  0.00  0.00    +0.000 A 
ATOM      8  C   UNL     1     111.916 127.442 135.564  0.00  0.00    +0.000 A 
ATOM      9  C   UNL     1     111.277 126.965 135.354  0.00  0.00    +0.000 A 
ATOM     10  C   UNL     1     111.247 126.180 135.606  0.00  0.00    +0.000 A 
ATOM     11  C   UNL     1     110.647 127.298 134.873  0.00  0.00    +0.000 A 
ATOM     12  C   UNL     1     110.586 125.674 135.394  0.00  0.00    +0.000 A 
ATOM     13  C   UNL     1     109.978 126.806 134.651  0.00  0.00    +0.000 A 
ATOM     14  C   UNL     1     109.948 125.988 134.914  0.00  0.00    +0.000 A 
BRANCH   7  16
ATOM     15  O   UNL     1     114.935 125.116 138.127  0.00  0.00    +0.000 OA
ATOM     16  C   UNL     1     113.107 126.041 136.740  0.00  0.00    +0.000 A 
ATOM     17  C   UNL     1     113.002 125.949 137.553  0.00  0.00    +0.000 A 
ATOM     18  C   UNL     1     113.822 125.825 136.389  0.00  0.00    +0.000 A 
ATOM     19  C   UNL     1     113.612 125.640 138.015  0.00  0.00    +0.000 A 
ATOM     20  C   UNL     1     114.431 125.516 136.852  0.00  0.00    +0.000 A 
ATOM     21  C   UNL     1     114.326 125.424 137.664  0.00  0.00    +0.000 A 
ENDBRANCH   7  16
ENDBRANCH   1   6
BRANCH   1  29
ATOM     22  O   UNL     1     112.403 128.380 137.168  0.00  0.00    +0.000 OA
ATOM     23  O   UNL     1     113.924 130.302 136.830  0.00  0.00    +0.000 OA
ATOM     24  O   UNL     1     114.180 128.893 136.010  0.00  0.00    +0.000 OA
ATOM     25  C   UNL     1     112.782 129.724 137.465  0.00  0.00    +0.000 C 
ATOM     26  C   UNL     1     113.417 129.661 136.943  0.00  0.00    +0.000 C 
ATOM     27  C   UNL     1     113.545 128.957 136.533  0.00  0.00    +0.000 C 
ATOM     28  C   UNL     1     112.275 129.084 137.578  0.00  0.00    +0.000 C 
ATOM     29  C   UNL     1     113.038 128.315 136.646  0.00  0.00    +0.000 C 
BRANCH  25  30
ATOM     30  O   UNL     1     112.654 130.429 137.875  0.00  0.00    +0.000 OA
BRANCH  30  35
ATOM     31  O   UNL     1     111.497 130.874 137.165  0.00  0.00    +0.000 OA
ATOM     32  O   UNL     1     111.975 130.927 139.294  0.00  0.00    +0.000 OA
ATOM     33  O   UNL     1     110.478 131.622 139.293  0.00  0.00    +0.000 OA
ATOM     34  O   UNL     1     109.661 131.819 137.874  0.00  0.00    +0.000 OA
ATOM     35  C   UNL     1     111.905 130.777 137.875  0.00  0.00    +0.000 C 
ATOM     36  C   UNL     1     111.565 131.026 138.585  0.00  0.00    +0.000 C 
ATOM     37  C   UNL     1     110.818 131.373 138.584  0.00  0.00    +0.000 C 
ATOM     38  C   UNL     1     110.409 131.471 137.875  0.00  0.00    +0.000 C 
ATOM     39  C   UNL     1     110.749 131.222 137.165  0.00  0.00    +0.000 C 
ATOM     40  C   UNL     1     110.339 131.320 136.455  0.00  0.00    +0.000 C 
ENDBRANCH  30  35
ENDBRANCH  25  30
ENDBRANCH   1  29
TORSDOF 5
ENDMDL
MODEL 4
REMARK VINA RESULT:     -10.4      2.069      4.082
REMARK  Name = 44258926
REMARK  5 active torsions:
REMARK  status: ('A' for Active; 'I' for Inactive)
REMARK    1  A    between atoms: O_1  and  C_15
REMARK    2  A    between atoms: O_1  and  C_16
REMARK    3  A    between atoms: O_8  and  C_24
REMARK    4  A    between atoms: O_8  and  C_26
REMARK    5  A    between atoms: C_27  and  C_31
REMARK                            x       y       z     vdW  Elec       q    Type
REMARK                         _______ _______ _______ _____ _____    ______ ____
ROOT
ATOM      1  O   UNL     1     105.509 125.171 145.619  0.00  0.00    +0.000 OA
ENDROOT
BRANCH   1   6
ATOM      2  O   UNL     1     105.619 124.424 147.666  0.00  0.00    +0.000 OA
ATOM      3  O   UNL     1     107.057 125.580 146.017  0.00  0.00    +0.000 OA
ATOM      4  O   UNL     1     108.152 125.618 146.955  0.00  0.00    +0.000 OA
ATOM      5  O   UNL     1     107.785 124.462 149.612  0.00  0.00    +0.000 OA
ATOM      6  C   UNL     1     105.803 124.991 146.367  0.00  0.00    +0.000 A 
ATOM      7  C   UNL     1     105.324 124.605 146.917  0.00  0.00    +0.000 A 
ATOM      8  C   UNL     1     106.577 125.195 146.567  0.00  0.00    +0.000 A 
ATOM      9  C   UNL     1     106.872 125.014 147.315  0.00  0.00    +0.000 A 
ATOM     10  C   UNL     1     106.393 124.629 147.865  0.00  0.00    +0.000 A 
ATOM     11  C   UNL     1     107.680 125.232 147.511  0.00  0.00    +0.000 A 
ATOM     12  C   UNL     1     106.689 124.435 148.649  0.00  0.00    +0.000 A 
ATOM     13  C   UNL     1     107.993 125.047 148.289  0.00  0.00    +0.000 A 
ATOM     14  C   UNL     1     107.493 124.645 148.862  0.00  0.00    +0.000 A 
BRANCH   7  16
ATOM     15  O   UNL     1     102.229 123.784 146.121  0.00  0.00    +0.000 OA
ATOM     16  C   UNL     1     104.550 124.400 146.718  0.00  0.00    +0.000 A 
ATOM     17  C   UNL     1     104.409 123.762 146.214  0.00  0.00    +0.000 A 
ATOM     18  C   UNL     1     103.917 124.833 147.023  0.00  0.00    +0.000 A 
ATOM     19  C   UNL     1     103.635 123.557 146.015  0.00  0.00    +0.000 A 
ATOM     20  C   UNL     1     103.143 124.627 146.824  0.00  0.00    +0.000 A 
ATOM     21  C   UNL     1     103.002 123.989 146.320  0.00  0.00    +0.000 A 
ENDBRANCH   7  16
ENDBRANCH   1   6
BRANCH   1  29
ATOM     22  O   UNL     1     105.418 126.568 145.905  0.00  0.00    +0.000 OA
ATOM     23  O   UNL     1     105.600 127.076 143.490  0.00  0.00    +0.000 OA
ATOM     24  O   UNL     1     105.630 125.510 144.008  0.00  0.00    +0.000 OA
ATOM     25  C   UNL     1     105.463 127.521 144.841  0.00  0.00    +0.000 C 
ATOM     26  C   UNL     1     105.539 126.907 144.295  0.00  0.00    +0.000 C 
ATOM     27  C   UNL     1     105.554 126.124 144.554  0.00  0.00    +0.000 C 
ATOM     28  C   UNL     1     105.403 127.352 145.646  0.00  0.00    +0.000 C 
ATOM     29  C   UNL     1     105.494 125.954 145.359  0.00  0.00    +0.000 C 
BRANCH  25  30
ATOM     30  O   UNL     1     105.448 128.304 144.582  0.00  0.00    +0.000 OA
BRANCH  30  35
ATOM     31  O   UNL     1     106.704 128.718 145.123  0.00  0.00    +0.000 OA
ATOM     32  O   UNL     1     104.785 129.751 145.016  0.00  0.00    +0.000 OA
ATOM     33  O   UNL     1     105.709 130.889 145.773  0.00  0.00    +0.000 OA
ATOM     34  O   UNL     1     107.297 130.579 146.097  0.00  0.00    +0.000 OA
ATOM     35  C   UNL     1     105.911 128.873 144.961  0.00  0.00    +0.000 C 
ATOM     36  C   UNL     1     105.579 129.597 145.178  0.00  0.00    +0.000 C 
ATOM     37  C   UNL     1     106.041 130.165 145.557  0.00  0.00    +0.000 C 
ATOM     38  C   UNL     1     106.834 130.011 145.719  0.00  0.00    +0.000 C 
ATOM     39  C   UNL     1     107.166 129.287 145.502  0.00  0.00    +0.000 C 
ATOM     40  C   UNL     1     107.961 129.132 145.664  0.00  0.00    +0.000 C 
ENDBRANCH  30  35
ENDBRANCH  25  30
ENDBRANCH   1  29
TORSDOF 5
ENDMDL
MODEL 5
REMARK VINA RESULT:     -10.3      9.250     11.907
REMARK  Name = 44258926
REMARK  5 active torsions:
REMARK  status: ('A' for Active; 'I' for Inactive)
REMARK    1  A    between atoms: O_1  and  C_15
REMARK    2  A    between atoms: O_1  and  C_16
REMARK    3  A    between atoms: O_8  and  C_24
REMARK    4  A    between atoms: O_8  and  C_26
REMARK    5  A    between atoms: C_27  and  C_31
REMARK                            x       y       z     vdW  Elec       q    Type
REMARK                         _______ _______ _______ _____ _____    ______ ____
ROOT
ATOM      1  O   UNL     1     112.113 125.443 137.427  0.00  0.00    +0.000 OA
ENDROOT
BRANCH   1   6
ATOM      2  O   UNL     1     113.452 126.364 138.884  0.00  0.00    +0.000 OA
ATOM      3  O   UNL     1     111.069 125.730 138.672  0.00  0.00    +0.000 OA
ATOM      4  O   UNL     1     110.789 126.225 139.998  0.00  0.00    +0.000 OA
ATOM      5  O   UNL     1     112.963 127.385 141.567  0.00  0.00    +0.000 OA
ATOM      6  C   UNL     1     112.385 125.798 138.120  0.00  0.00    +0.000 A 
ATOM      7  C   UNL     1     113.179 126.009 138.190  0.00  0.00    +0.000 A 
ATOM      8  C   UNL     1     111.863 125.941 138.743  0.00  0.00    +0.000 A 
ATOM      9  C   UNL     1     112.135 126.296 139.436  0.00  0.00    +0.000 A 
ATOM     10  C   UNL     1     112.930 126.507 139.506  0.00  0.00    +0.000 A 
ATOM     11  C   UNL     1     111.582 126.440 140.077  0.00  0.00    +0.000 A 
ATOM     12  C   UNL     1     113.225 126.878 140.223  0.00  0.00    +0.000 A 
ATOM     13  C   UNL     1     111.860 126.809 140.802  0.00  0.00    +0.000 A 
ATOM     14  C   UNL     1     112.688 127.030 140.875  0.00  0.00    +0.000 A 
BRANCH   7  16
ATOM     15  O   UNL     1     115.268 125.439 135.701  0.00  0.00    +0.000 OA
ATOM     16  C   UNL     1     113.701 125.866 137.568  0.00  0.00    +0.000 A 
ATOM     17  C   UNL     1     113.900 126.476 137.048  0.00  0.00    +0.000 A 
ATOM     18  C   UNL     1     114.025 125.114 137.465  0.00  0.00    +0.000 A 
ATOM     19  C   UNL     1     114.423 126.333 136.426  0.00  0.00    +0.000 A 
ATOM     20  C   UNL     1     114.547 124.972 136.842  0.00  0.00    +0.000 A 
ATOM     21  C   UNL     1     114.746 125.581 136.323  0.00  0.00    +0.000 A 
ENDBRANCH   7  16
ENDBRANCH   1   6
BRANCH   1  29
ATOM     22  O   UNL     1     111.346 126.603 137.096  0.00  0.00    +0.000 OA
ATOM     23  O   UNL     1     110.057 125.281 135.448  0.00  0.00    +0.000 OA
ATOM     24  O   UNL     1     111.254 124.562 136.328  0.00  0.00    +0.000 OA
ATOM     25  C   UNL     1     110.318 126.522 136.108  0.00  0.00    +0.000 C 
ATOM     26  C   UNL     1     110.486 125.722 135.997  0.00  0.00    +0.000 C 
ATOM     27  C   UNL     1     111.084 125.362 136.437  0.00  0.00    +0.000 C 
ATOM     28  C   UNL     1     110.747 126.962 136.657  0.00  0.00    +0.000 C 
ATOM     29  C   UNL     1     111.515 125.803 136.987  0.00  0.00    +0.000 C 
BRANCH  25  30
ATOM     30  O   UNL     1     109.720 126.882 135.668  0.00  0.00    +0.000 OA
BRANCH  30  35
ATOM     31  O   UNL     1     110.470 127.978 135.140  0.00  0.00    +0.000 OA
ATOM     32  O   UNL     1     108.442 127.888 135.942  0.00  0.00    +0.000 OA
ATOM     33  O   UNL     1     108.552 129.488 135.552  0.00  0.00    +0.000 OA
ATOM     34  O   UNL     1     109.941 130.080 134.887  0.00  0.00    +0.000 OA
ATOM     35  C   UNL     1     109.775 127.682 135.472  0.00  0.00    +0.000 C 
ATOM     36  C   UNL     1     109.136 128.185 135.610  0.00  0.00    +0.000 C 
ATOM     37  C   UNL     1     109.191 128.984 135.415  0.00  0.00    +0.000 C 
ATOM     38  C   UNL     1     109.885 129.281 135.082  0.00  0.00    +0.000 C 
ATOM     39  C   UNL     1     110.524 128.777 134.945  0.00  0.00    +0.000 C 
ATOM     40  C   UNL     1     111.219 129.074 134.612  0.00  0.00    +0.000 C 
ENDBRANCH  30  35
ENDBRANCH  25  30
ENDBRANCH   1  29
TORSDOF 5
ENDMDL
MODEL 6
REMARK VINA RESULT:     -10.3      1.378      4.689
REMARK  Name = 44258926
REMARK  5 active torsions:
REMARK  status: ('A' for Active; 'I' for Inactive)
REMARK    1  A    between atoms: O_1  and  C_15
REMARK    2  A    between atoms: O_1  and  C_16
REMARK    3  A    between atoms: O_8  and  C_24
REMARK    4  A    between atoms: O_8  and  C_26
REMARK    5  A    between atoms: C_27  and  C_31
REMARK                            x       y       z     vdW  Elec       q    Type
REMARK                         _______ _______ _______ _____ _____    ______ ____
ROOT
ATOM      1  O   UNL     1     106.606 126.379 145.419  0.00  0.00    +0.000 OA
ENDROOT
BRANCH   1   6
ATOM      2  O   UNL     1     106.042 127.520 143.646  0.00  0.00    +0.000 OA
ATOM      3  O   UNL     1     106.410 125.166 144.318  0.00  0.00    +0.000 OA
ATOM      4  O   UNL     1     106.092 124.707 142.988  0.00  0.00    +0.000 OA
ATOM      5  O   UNL     1     105.389 126.667 140.940  0.00  0.00    +0.000 OA
ATOM      6  C   UNL     1     106.386 126.557 144.645  0.00  0.00    +0.000 A 
ATOM      7  C   UNL     1     106.263 127.341 144.421  0.00  0.00    +0.000 A 
ATOM      8  C   UNL     1     106.287 125.951 144.094  0.00  0.00    +0.000 A 
ATOM      9  C   UNL     1     106.067 126.129 143.320  0.00  0.00    +0.000 A 
ATOM     10  C   UNL     1     105.944 126.913 143.096  0.00  0.00    +0.000 A 
ATOM     11  C   UNL     1     105.967 125.488 142.755  0.00  0.00    +0.000 A 
ATOM     12  C   UNL     1     105.713 127.112 142.292  0.00  0.00    +0.000 A 
ATOM     13  C   UNL     1     105.738 125.668 141.947  0.00  0.00    +0.000 A 
ATOM     14  C   UNL     1     105.610 126.486 141.714  0.00  0.00    +0.000 A 
BRANCH   7  16
ATOM     15  O   UNL     1     106.657 129.767 146.622  0.00  0.00    +0.000 OA
ATOM     16  C   UNL     1     106.361 127.948 144.972  0.00  0.00    +0.000 A 
ATOM     17  C   UNL     1     107.120 128.178 145.200  0.00  0.00    +0.000 A 
ATOM     18  C   UNL     1     105.701 128.324 145.293  0.00  0.00    +0.000 A 
ATOM     19  C   UNL     1     107.218 128.785 145.751  0.00  0.00    +0.000 A 
ATOM     20  C   UNL     1     105.800 128.931 145.844  0.00  0.00    +0.000 A 
ATOM     21  C   UNL     1     106.558 129.161 146.072  0.00  0.00    +0.000 A 
ENDBRANCH   7  16
ENDBRANCH   1   6
BRANCH   1  29
ATOM     22  O   UNL     1     105.314 125.888 145.780  0.00  0.00    +0.000 OA
ATOM     23  O   UNL     1     106.349 124.397 147.463  0.00  0.00    +0.000 OA
ATOM     24  O   UNL     1     107.296 125.385 146.541  0.00  0.00    +0.000 OA
ATOM     25  C   UNL     1     105.185 124.898 146.802  0.00  0.00    +0.000 C 
ATOM     26  C   UNL     1     106.004 124.894 146.902  0.00  0.00    +0.000 C 
ATOM     27  C   UNL     1     106.478 125.388 146.441  0.00  0.00    +0.000 C 
ATOM     28  C   UNL     1     104.840 125.394 146.241  0.00  0.00    +0.000 C 
ATOM     29  C   UNL     1     106.132 125.885 145.880  0.00  0.00    +0.000 C 
BRANCH  25  30
ATOM     30  O   UNL     1     104.711 124.404 147.262  0.00  0.00    +0.000 OA
BRANCH  30  35
ATOM     31  O   UNL     1     104.207 123.575 146.212  0.00  0.00    +0.000 OA
ATOM     32  O   UNL     1     103.223 124.405 147.975  0.00  0.00    +0.000 OA
ATOM     33  O   UNL     1     101.975 123.576 147.282  0.00  0.00    +0.000 OA
ATOM     34  O   UNL     1     102.216 122.747 145.876  0.00  0.00    +0.000 OA
ATOM     35  C   UNL     1     104.086 123.989 146.915  0.00  0.00    +0.000 C 
ATOM     36  C   UNL     1     103.342 123.990 147.272  0.00  0.00    +0.000 C 
ATOM     37  C   UNL     1     102.719 123.576 146.926  0.00  0.00    +0.000 C 
ATOM     38  C   UNL     1     102.839 123.162 146.223  0.00  0.00    +0.000 C 
ATOM     39  C   UNL     1     103.583 123.161 145.866  0.00  0.00    +0.000 C 
ATOM     40  C   UNL     1     103.704 122.747 145.163  0.00  0.00    +0.000 C 
ENDBRANCH  30  35
ENDBRANCH  25  30
ENDBRANCH   1  29
TORSDOF 5
ENDMDL
MODEL 7
REMARK VINA RESULT:     -10.3     10.119     12.218
REMARK  Name = 44258926
REMARK  5 active torsions:
REMARK  status: ('A' for Active; 'I' for Inactive)
REMARK    1  A    between atoms: O_1  and  C_15
REMARK    2  A    between atoms: O_1  and  C_16
REMARK    3  A    between atoms: O_8  and  C_24
REMARK    4  A    between atoms: O_8  and  C_26
REMARK    5  A    between atoms: C_27  and  C_31
REMARK                            x       y       z     vdW  Elec       q    Type
REMARK                         _______ _______ _______ _____ _____    ______ ____
ROOT
ATOM      1  O   UNL     1     113.300 127.320 137.143  0.00  0.00    +0.000 OA
ENDROOT
BRANCH   1   6
ATOM      2  O   UNL     1     113.198 126.351 139.096  0.00  0.00    +0.000 OA
ATOM      3  O   UNL     1     113.059 128.623 138.126  0.00  0.00    +0.000 OA
ATOM      4  O   UNL     1     112.862 129.201 139.433  0.00  0.00    +0.000 OA
ATOM      5  O   UNL     1     112.804 127.444 141.766  0.00  0.00    +0.000 OA
ATOM      6  C   UNL     1     113.226 127.214 137.957  0.00  0.00    +0.000 A 
ATOM      7  C   UNL     1     113.272 126.457 138.281  0.00  0.00    +0.000 A 
ATOM      8  C   UNL     1     113.106 127.866 138.450  0.00  0.00    +0.000 A 
ATOM      9  C   UNL     1     113.032 127.760 139.264  0.00  0.00    +0.000 A 
ATOM     10  C   UNL     1     113.078 127.002 139.587  0.00  0.00    +0.000 A 
ATOM     11  C   UNL     1     112.907 128.447 139.766  0.00  0.00    +0.000 A 
ATOM     12  C   UNL     1     113.003 126.879 140.435  0.00  0.00    +0.000 A 
ATOM     13  C   UNL     1     112.829 128.343 140.615  0.00  0.00    +0.000 A 
ATOM     14  C   UNL     1     112.878 127.553 140.952  0.00  0.00    +0.000 A 
BRANCH   7  16
ATOM     15  O   UNL     1     113.755 123.850 136.317  0.00  0.00    +0.000 OA
ATOM     16  C   UNL     1     113.392 125.805 137.790  0.00  0.00    +0.000 A 
ATOM     17  C   UNL     1     114.145 125.650 137.487  0.00  0.00    +0.000 A 
ATOM     18  C   UNL     1     112.761 125.308 137.601  0.00  0.00    +0.000 A 
ATOM     19  C   UNL     1     114.265 124.998 136.996  0.00  0.00    +0.000 A 
ATOM     20  C   UNL     1     112.883 124.656 137.110  0.00  0.00    +0.000 A 
ATOM     21  C   UNL     1     113.634 124.501 136.808  0.00  0.00    +0.000 A 
ENDBRANCH   7  16
ENDBRANCH   1   6
BRANCH   1  29
ATOM     22  O   UNL     1     111.903 127.557 136.955  0.00  0.00    +0.000 OA
ATOM     23  O   UNL     1     112.402 128.914 134.947  0.00  0.00    +0.000 OA
ATOM     24  O   UNL     1     113.633 128.225 135.804  0.00  0.00    +0.000 OA
ATOM     25  C   UNL     1     111.454 128.353 135.858  0.00  0.00    +0.000 C 
ATOM     26  C   UNL     1     112.236 128.462 135.616  0.00  0.00    +0.000 C 
ATOM     27  C   UNL     1     112.851 128.117 136.045  0.00  0.00    +0.000 C 
ATOM     28  C   UNL     1     111.288 127.901 136.527  0.00  0.00    +0.000 C 
ATOM     29  C   UNL     1     112.685 127.664 136.715  0.00  0.00    +0.000 C 
BRANCH  25  30
ATOM     30  O   UNL     1     110.839 128.698 135.429  0.00  0.00    +0.000 OA
BRANCH  30  35
ATOM     31  O   UNL     1     110.383 129.640 136.402  0.00  0.00    +0.000 OA
ATOM     32  O   UNL     1     109.275 128.315 135.067  0.00  0.00    +0.000 OA
ATOM     33  O   UNL     1     108.038 129.066 135.859  0.00  0.00    +0.000 OA
ATOM     34  O   UNL     1     108.363 130.199 137.013  0.00  0.00    +0.000 OA
ATOM     35  C   UNL     1     110.219 129.073 135.825  0.00  0.00    +0.000 C 
ATOM     36  C   UNL     1     109.438 128.882 135.644  0.00  0.00    +0.000 C 
ATOM     37  C   UNL     1     108.819 129.257 136.040  0.00  0.00    +0.000 C 
ATOM     38  C   UNL     1     108.982 129.823 136.616  0.00  0.00    +0.000 C 
ATOM     39  C   UNL     1     109.764 130.015 136.798  0.00  0.00    +0.000 C 
ATOM     40  C   UNL     1     109.927 130.582 137.375  0.00  0.00    +0.000 C 
ENDBRANCH  30  35
ENDBRANCH  25  30
ENDBRANCH   1  29
TORSDOF 5
ENDMDL
MODEL 8
REMARK VINA RESULT:     -10.2      9.243     12.499
REMARK  Name = 44258926
REMARK  5 active torsions:
REMARK  status: ('A' for Active; 'I' for Inactive)
REMARK    1  A    between atoms: O_1  and  C_15
REMARK    2  A    between atoms: O_1  and  C_16
REMARK    3  A    between atoms: O_8  and  C_24
REMARK    4  A    between atoms: O_8  and  C_26
REMARK    5  A    between atoms: C_27  and  C_31
REMARK                            x       y       z     vdW  Elec       q    Type
REMARK                         _______ _______ _______ _____ _____    ______ ____
ROOT
ATOM      1  O   UNL     1     110.584 130.207 136.388  0.00  0.00    +0.000 OA
ENDROOT
BRANCH   1   6
ATOM      2  O   UNL     1     112.484 131.151 136.900  0.00  0.00    +0.000 OA
ATOM      3  O   UNL     1     111.649 129.181 135.655  0.00  0.00    +0.000 OA
ATOM      4  O   UNL     1     112.995 128.786 135.319  0.00  0.00    +0.000 OA
ATOM      5  O   UNL     1     115.229 130.415 136.262  0.00  0.00    +0.000 OA
ATOM      6  C   UNL     1     111.394 130.350 136.436  0.00  0.00    +0.000 A 
ATOM      7  C   UNL     1     111.673 131.007 136.851  0.00  0.00    +0.000 A 
ATOM      8  C   UNL     1     111.927 129.838 136.070  0.00  0.00    +0.000 A 
ATOM      9  C   UNL     1     112.738 129.981 136.118  0.00  0.00    +0.000 A 
ATOM     10  C   UNL     1     113.016 130.638 136.533  0.00  0.00    +0.000 A 
ATOM     11  C   UNL     1     113.283 129.440 135.732  0.00  0.00    +0.000 A 
ATOM     12  C   UNL     1     113.859 130.798 136.591  0.00  0.00    +0.000 A 
ATOM     13  C   UNL     1     114.128 129.584 135.779  0.00  0.00    +0.000 A 
ATOM     14  C   UNL     1     114.418 130.268 136.212  0.00  0.00    +0.000 A 
BRANCH   7  16
ATOM     15  O   UNL     1     109.545 133.059 138.316  0.00  0.00    +0.000 OA
ATOM     16  C   UNL     1     111.141 131.520 137.218  0.00  0.00    +0.000 A 
ATOM     17  C   UNL     1     110.731 132.078 136.769  0.00  0.00    +0.000 A 
ATOM     18  C   UNL     1     111.018 131.475 138.032  0.00  0.00    +0.000 A 
ATOM     19  C   UNL     1     110.199 132.591 137.135  0.00  0.00    +0.000 A 
ATOM     20  C   UNL     1     110.486 131.988 138.398  0.00  0.00    +0.000 A 
ATOM     21  C   UNL     1     110.077 132.546 137.950  0.00  0.00    +0.000 A 
ENDBRANCH   7  16
ENDBRANCH   1   6
BRANCH   1  29
ATOM     22  O   UNL     1     110.634 129.118 137.312  0.00  0.00    +0.000 OA
ATOM     23  O   UNL     1     108.615 128.139 136.269  0.00  0.00    +0.000 OA
ATOM     24  O   UNL     1     109.238 129.554 135.692  0.00  0.00    +0.000 OA
ATOM     25  C   UNL     1     109.650 128.084 137.253  0.00  0.00    +0.000 C 
ATOM     26  C   UNL     1     109.287 128.465 136.617  0.00  0.00    +0.000 C 
ATOM     27  C   UNL     1     109.599 129.172 136.328  0.00  0.00    +0.000 C 
ATOM     28  C   UNL     1     110.322 128.410 137.601  0.00  0.00    +0.000 C 
ATOM     29  C   UNL     1     110.272 129.499 136.676  0.00  0.00    +0.000 C 
BRANCH  25  30
ATOM     30  O   UNL     1     109.338 127.377 137.541  0.00  0.00    +0.000 OA
BRANCH  30  35
ATOM     31  O   UNL     1     110.372 126.468 137.157  0.00  0.00    +0.000 OA
ATOM     32  O   UNL     1     109.282 126.681 139.036  0.00  0.00    +0.000 OA
ATOM     33  O   UNL     1     110.288 125.424 139.400  0.00  0.00    +0.000 OA
ATOM     34  O   UNL     1     111.349 124.863 138.268  0.00  0.00    +0.000 OA
ATOM     35  C   UNL     1     109.841 126.748 137.723  0.00  0.00    +0.000 C 
ATOM     36  C   UNL     1     109.813 126.400 138.471  0.00  0.00    +0.000 C 
ATOM     37  C   UNL     1     110.316 125.772 138.652  0.00  0.00    +0.000 C 
ATOM     38  C   UNL     1     110.846 125.492 138.087  0.00  0.00    +0.000 C 
ATOM     39  C   UNL     1     110.874 125.840 137.339  0.00  0.00    +0.000 C 
ATOM     40  C   UNL     1     111.405 125.559 136.773  0.00  0.00    +0.000 C 
ENDBRANCH  30  35
ENDBRANCH  25  30
ENDBRANCH   1  29
TORSDOF 5
ENDMDL
MODEL 9
REMARK VINA RESULT:     -10.2      9.298     11.235
REMARK  Name = 44258926
REMARK  5 active torsions:
REMARK  status: ('A' for Active; 'I' for Inactive)
REMARK    1  A    between atoms: O_1  and  C_15
REMARK    2  A    between atoms: O_1  and  C_16
REMARK    3  A    between atoms: O_8  and  C_24
REMARK    4  A    between atoms: O_8  and  C_26
REMARK    5  A    between atoms: C_27  and  C_31
REMARK                            x       y       z     vdW  Elec       q    Type
REMARK                         _______ _______ _______ _____ _____    ______ ____
ROOT
ATOM      1  O   UNL     1     111.638 126.085 138.890  0.00  0.00    +0.000 OA
ENDROOT
BRANCH   1   6
ATOM      2  O   UNL     1     113.766 126.150 138.409  0.00  0.00    +0.000 OA
ATOM      3  O   UNL     1     111.702 125.033 137.621  0.00  0.00    +0.000 OA
ATOM      4  O   UNL     1     112.437 124.333 136.596  0.00  0.00    +0.000 OA
ATOM      5  O   UNL     1     115.316 124.773 136.364  0.00  0.00    +0.000 OA
ATOM      6  C   UNL     1     112.357 125.931 138.518  0.00  0.00    +0.000 A 
ATOM      7  C   UNL     1     113.045 126.304 138.781  0.00  0.00    +0.000 A 
ATOM      8  C   UNL     1     112.390 125.405 137.884  0.00  0.00    +0.000 A 
ATOM      9  C   UNL     1     113.109 125.251 137.512  0.00  0.00    +0.000 A 
ATOM     10  C   UNL     1     113.797 125.623 137.774  0.00  0.00    +0.000 A 
ATOM     11  C   UNL     1     113.130 124.701 136.852  0.00  0.00    +0.000 A 
ATOM     12  C   UNL     1     114.554 125.471 137.395  0.00  0.00    +0.000 A 
ATOM     13  C   UNL     1     113.877 124.537 136.460  0.00  0.00    +0.000 A 
ATOM     14  C   UNL     1     114.594 124.925 136.734  0.00  0.00    +0.000 A 
BRANCH   7  16
ATOM     15  O   UNL     1     112.918 128.407 141.320  0.00  0.00    +0.000 OA
ATOM     16  C   UNL     1     113.013 126.830 139.415  0.00  0.00    +0.000 A 
ATOM     17  C   UNL     1     112.943 126.542 140.186  0.00  0.00    +0.000 A 
ATOM     18  C   UNL     1     113.051 127.643 139.280  0.00  0.00    +0.000 A 
ATOM     19  C   UNL     1     112.912 127.068 140.821  0.00  0.00    +0.000 A 
ATOM     20  C   UNL     1     113.019 128.168 139.916  0.00  0.00    +0.000 A 
ATOM     21  C   UNL     1     112.950 127.881 140.685  0.00  0.00    +0.000 A 
ENDBRANCH   7  16
ENDBRANCH   1   6
BRANCH   1  29
ATOM     22  O   UNL     1     111.152 126.881 137.807  0.00  0.00    +0.000 OA
ATOM     23  O   UNL     1     108.825 126.346 138.456  0.00  0.00    +0.000 OA
ATOM     24  O   UNL     1     110.086 125.728 139.323  0.00  0.00    +0.000 OA
ATOM     25  C   UNL     1     109.746 127.011 137.590  0.00  0.00    +0.000 C 
ATOM     26  C   UNL     1     109.600 126.524 138.240  0.00  0.00    +0.000 C 
ATOM     27  C   UNL     1     110.230 126.215 138.673  0.00  0.00    +0.000 C 
ATOM     28  C   UNL     1     110.521 127.189 137.373  0.00  0.00    +0.000 C 
ATOM     29  C   UNL     1     111.007 126.394 138.457  0.00  0.00    +0.000 C 
BRANCH  25  30
ATOM     30  O   UNL     1     109.116 127.320 137.156  0.00  0.00    +0.000 OA
BRANCH  30  35
ATOM     31  O   UNL     1     109.264 128.691 137.531  0.00  0.00    +0.000 OA
ATOM     32  O   UNL     1     108.777 127.779 135.608  0.00  0.00    +0.000 OA
ATOM     33  O   UNL     1     108.756 129.380 135.209  0.00  0.00    +0.000 OA
ATOM     34  O   UNL     1     109.073 130.521 136.357  0.00  0.00    +0.000 OA
ATOM     35  C   UNL     1     109.105 128.121 136.956  0.00  0.00    +0.000 C 
ATOM     36  C   UNL     1     108.936 128.351 136.182  0.00  0.00    +0.000 C 
ATOM     37  C   UNL     1     108.925 129.150 135.983  0.00  0.00    +0.000 C 
ATOM     38  C   UNL     1     109.084 129.721 136.557  0.00  0.00    +0.000 C 
ATOM     39  C   UNL     1     109.253 129.491 137.331  0.00  0.00    +0.000 C 
ATOM     40  C   UNL     1     109.412 130.062 137.906  0.00  0.00    +0.000 C 
ENDBRANCH  30  35
ENDBRANCH  25  30
ENDBRANCH   1  29
TORSDOF 5
ENDMDL
MODEL 10
REMARK VINA RESULT:     -10.1     10.735     12.458
REMARK  Name = 44258926
REMARK  5 active torsions:
REMARK  status: ('A' for Active; 'I' for Inactive)
REMARK    1  A    between atoms: O_1  and  C_15
REMARK    2  A    between atoms: O_1  and  C_16
REMARK    3  A    between atoms: O_8  and  C_24
REMARK    4  A    between atoms: O_8  and  C_26
REMARK    5  A    between atoms: C_27  and  C_31
REMARK                            x       y       z     vdW  Elec       q    Type
REMARK                         _______ _______ _______ _____ _____    ______ ____
ROOT
ATOM      1  O   UNL     1     112.019 129.241 137.732  0.00  0.00    +0.000 OA
ENDROOT
BRANCH   1   6
ATOM      2  O   UNL     1     111.292 130.263 135.945  0.00  0.00    +0.000 OA
ATOM      3  O   UNL     1     110.392 129.009 137.881  0.00  0.00    +0.000 OA
ATOM      4  O   UNL     1     109.043 129.182 137.402  0.00  0.00    +0.000 OA
ATOM      5  O   UNL     1     108.595 130.652 134.918  0.00  0.00    +0.000 OA
ATOM      6  C   UNL     1     111.506 129.543 137.162  0.00  0.00    +0.000 A 
ATOM      7  C   UNL     1     111.806 129.960 136.517  0.00  0.00    +0.000 A 
ATOM      8  C   UNL     1     110.692 129.427 137.235  0.00  0.00    +0.000 A 
ATOM      9  C   UNL     1     110.179 129.728 136.665  0.00  0.00    +0.000 A 
ATOM     10  C   UNL     1     110.479 130.146 136.020  0.00  0.00    +0.000 A 
ATOM     11  C   UNL     1     109.333 129.601 136.754  0.00  0.00    +0.000 A 
ATOM     12  C   UNL     1     109.953 130.466 135.419  0.00  0.00    +0.000 A 
ATOM     13  C   UNL     1     108.794 129.913 136.163  0.00  0.00    +0.000 A 
ATOM     14  C   UNL     1     109.106 130.349 135.491  0.00  0.00    +0.000 A 
BRANCH   7  16
ATOM     15  O   UNL     1     115.058 130.428 136.218  0.00  0.00    +0.000 OA
ATOM     16  C   UNL     1     112.619 130.077 136.442  0.00  0.00    +0.000 A 
ATOM     17  C   UNL     1     112.998 130.647 136.903  0.00  0.00    +0.000 A 
ATOM     18  C   UNL     1     113.053 129.624 135.906  0.00  0.00    +0.000 A 
ATOM     19  C   UNL     1     113.811 130.763 136.828  0.00  0.00    +0.000 A 
ATOM     20  C   UNL     1     113.867 129.742 135.832  0.00  0.00    +0.000 A 
ATOM     21  C   UNL     1     114.245 130.311 136.293  0.00  0.00    +0.000 A 
ENDBRANCH   7  16
ENDBRANCH   1   6
BRANCH   1  29
ATOM     22  O   UNL     1     111.844 127.892 137.294  0.00  0.00    +0.000 OA
ATOM     23  O   UNL     1     112.441 127.079 139.553  0.00  0.00    +0.000 OA
ATOM     24  O   UNL     1     112.417 128.699 139.239  0.00  0.00    +0.000 OA
ATOM     25  C   UNL     1     112.054 126.812 138.204  0.00  0.00    +0.000 C 
ATOM     26  C   UNL     1     112.242 127.350 138.800  0.00  0.00    +0.000 C 
ATOM     27  C   UNL     1     112.230 128.160 138.643  0.00  0.00    +0.000 C 
ATOM     28  C   UNL     1     111.855 127.082 137.451  0.00  0.00    +0.000 C 
ATOM     29  C   UNL     1     112.031 128.431 137.889  0.00  0.00    +0.000 C 
BRANCH  25  30
ATOM     30  O   UNL     1     112.066 126.002 138.361  0.00  0.00    +0.000 OA
BRANCH  30  35
ATOM     31  O   UNL     1     113.220 125.620 137.609  0.00  0.00    +0.000 OA
ATOM     32  O   UNL     1     111.248 124.697 137.768  0.00  0.00    +0.000 OA
ATOM     33  O   UNL     1     111.993 123.664 136.719  0.00  0.00    +0.000 OA
ATOM     34  O   UNL     1     113.556 123.935 136.264  0.00  0.00    +0.000 OA
ATOM     35  C   UNL     1     112.439 125.485 137.836  0.00  0.00    +0.000 C 
ATOM     36  C   UNL     1     112.030 124.832 137.540  0.00  0.00    +0.000 C 
ATOM     37  C   UNL     1     112.402 124.316 137.016  0.00  0.00    +0.000 C 
ATOM     38  C   UNL     1     113.183 124.451 136.788  0.00  0.00    +0.000 C 
ATOM     39  C   UNL     1     113.592 125.103 137.085  0.00  0.00    +0.000 C 
ATOM     40  C   UNL     1     114.374 125.239 136.857  0.00  0.00    +0.000 C 
ENDBRANCH  30  35
ENDBRANCH  25  30
ENDBRANCH   1  29
TORSDOF 5
ENDMDL
