MODEL 1
REMARK VINA RESULT:      -8.7      0.000      0.000
REMARK  Name = 44257508
REMARK  4 active torsions:
REMARK  status: ('A' for Active; 'I' for Inactive)
REMARK    1  A    between atoms: O_4  and  C_20
REMARK    2  A    between atoms: C_5  and  C_10
REMARK    3  A    between atoms: C_11  and  C_14
REMARK    4  A    between atoms: C_14  and  C_21
REMARK                            x       y       z     vdW  Elec       q    Type
REMARK                         _______ _______ _______ _____ _____    ______ ____
ROOT
ATOM      1  O   UNL     1     112.157 127.656 135.909  0.00  0.00    +0.000 OA
ATOM      2  O   UNL     1     111.816 124.921 136.749  0.00  0.00    +0.000 OA
ATOM      3  C   UNL     1     113.501 128.282 135.971  0.00  0.00    +0.000 C 
ATOM      4  C   UNL     1     113.819 127.545 136.279  0.00  0.00    +0.000 C 
ATOM      5  C   UNL     1     112.665 128.337 135.785  0.00  0.00    +0.000 C 
ATOM      6  C   UNL     1     113.296 126.874 136.397  0.00  0.00    +0.000 A 
ATOM      7  C   UNL     1     112.492 126.927 136.218  0.00  0.00    +0.000 A 
ATOM      8  C   UNL     1     111.999 126.277 136.335  0.00  0.00    +0.000 A 
ATOM      9  C   UNL     1     113.606 126.170 136.693  0.00  0.00    +0.000 A 
ATOM     10  C   UNL     1     112.310 125.573 136.632  0.00  0.00    +0.000 A 
ATOM     11  C   UNL     1     113.113 125.519 136.811  0.00  0.00    +0.000 A 
ENDROOT
BRANCH   3  13
ATOM     12  O   UNL     1     113.507 129.522 137.061  0.00  0.00    +0.000 OA
ATOM     13  C   UNL     1     113.997 128.931 135.855  0.00  0.00    +0.000 A 
ATOM     14  C   UNL     1     113.999 129.551 136.399  0.00  0.00    +0.000 A 
ATOM     15  C   UNL     1     114.489 128.961 135.193  0.00  0.00    +0.000 A 
ATOM     16  C   UNL     1     114.495 130.200 136.282  0.00  0.00    +0.000 A 
ATOM     17  C   UNL     1     114.984 129.610 135.077  0.00  0.00    +0.000 A 
ATOM     18  C   UNL     1     114.987 130.230 135.621  0.00  0.00    +0.000 A 
BRANCH  18  19
ATOM     19  O   UNL     1     115.483 130.880 135.505  0.00  0.00    +0.000 OA
ATOM     20  C   UNL     1     115.483 131.273 134.779  0.00  0.00    +0.000 C 
ENDBRANCH  18  19
ENDBRANCH   3  13
BRANCH   8  21
ATOM     21  C   UNL     1     111.195 126.330 136.156  0.00  0.00    +0.000 C 
BRANCH  21  22
ATOM     22  C   UNL     1     110.898 125.963 135.481  0.00  0.00    +0.000 C 
ATOM     23  C   UNL     1     110.097 126.027 135.295  0.00  0.00    +0.000 C 
ATOM     24  C   UNL     1     109.799 125.659 134.618  0.00  0.00    +0.000 C 
ATOM     25  C   UNL     1     109.592 126.458 135.785  0.00  0.00    +0.000 C 
ENDBRANCH  21  22
ENDBRANCH   8  21
TORSDOF 4
ENDMDL
MODEL 2
REMARK VINA RESULT:      -8.5     10.850     13.020
REMARK  Name = 44257508
REMARK  4 active torsions:
REMARK  status: ('A' for Active; 'I' for Inactive)
REMARK    1  A    between atoms: O_4  and  C_20
REMARK    2  A    between atoms: C_5  and  C_10
REMARK    3  A    between atoms: C_11  and  C_14
REMARK    4  A    between atoms: C_14  and  C_21
REMARK                            x       y       z     vdW  Elec       q    Type
REMARK                         _______ _______ _______ _____ _____    ______ ____
ROOT
ATOM      1  O   UNL     1     102.955 132.230 141.204  0.00  0.00    +0.000 OA
ATOM      2  O   UNL     1     100.714 133.913 141.873  0.00  0.00    +0.000 OA
ATOM      3  C   UNL     1     102.957 130.807 141.626  0.00  0.00    +0.000 C 
ATOM      4  C   UNL     1     102.188 130.924 141.992  0.00  0.00    +0.000 C 
ATOM      5  C   UNL     1     103.342 131.464 141.230  0.00  0.00    +0.000 C 
ATOM      6  C   UNL     1     101.816 131.698 141.957  0.00  0.00    +0.000 A 
ATOM      7  C   UNL     1     102.186 132.329 141.576  0.00  0.00    +0.000 A 
ATOM      8  C   UNL     1     101.820 133.068 141.548  0.00  0.00    +0.000 A 
ATOM      9  C   UNL     1     101.078 131.805 142.309  0.00  0.00    +0.000 A 
ATOM     10  C   UNL     1     101.082 133.174 141.901  0.00  0.00    +0.000 A 
ATOM     11  C   UNL     1     100.711 132.543 142.282  0.00  0.00    +0.000 A 
ENDROOT
BRANCH   3  13
ATOM     12  O   UNL     1     102.852 129.782 140.336  0.00  0.00    +0.000 OA
ATOM     13  C   UNL     1     103.322 130.067 141.655  0.00  0.00    +0.000 A 
ATOM     14  C   UNL     1     103.269 129.556 141.010  0.00  0.00    +0.000 A 
ATOM     15  C   UNL     1     103.739 129.840 142.330  0.00  0.00    +0.000 A 
ATOM     16  C   UNL     1     103.635 128.816 141.040  0.00  0.00    +0.000 A 
ATOM     17  C   UNL     1     104.104 129.101 142.359  0.00  0.00    +0.000 A 
ATOM     18  C   UNL     1     104.052 128.589 141.715  0.00  0.00    +0.000 A 
BRANCH  18  19
ATOM     19  O   UNL     1     104.417 127.849 141.744  0.00  0.00    +0.000 OA
ATOM     20  C   UNL     1     105.209 127.789 141.967  0.00  0.00    +0.000 C 
ENDBRANCH  18  19
ENDBRANCH   3  13
BRANCH   8  21
ATOM     21  C   UNL     1     102.190 133.699 141.167  0.00  0.00    +0.000 C 
BRANCH  21  22
ATOM     22  C   UNL     1     102.484 134.330 141.608  0.00  0.00    +0.000 C 
ATOM     23  C   UNL     1     102.861 134.958 141.227  0.00  0.00    +0.000 C 
ATOM     24  C   UNL     1     103.156 135.591 141.668  0.00  0.00    +0.000 C 
ATOM     25  C   UNL     1     102.944 134.954 140.407  0.00  0.00    +0.000 C 
ENDBRANCH  21  22
ENDBRANCH   8  21
TORSDOF 4
ENDMDL
MODEL 3
REMARK VINA RESULT:      -8.4      9.322     10.295
REMARK  Name = 44257508
REMARK  4 active torsions:
REMARK  status: ('A' for Active; 'I' for Inactive)
REMARK    1  A    between atoms: O_4  and  C_20
REMARK    2  A    between atoms: C_5  and  C_10
REMARK    3  A    between atoms: C_11  and  C_14
REMARK    4  A    between atoms: C_14  and  C_21
REMARK                            x       y       z     vdW  Elec       q    Type
REMARK                         _______ _______ _______ _____ _____    ______ ____
ROOT
ATOM      1  O   UNL     1     104.559 123.539 137.990  0.00  0.00    +0.000 OA
ATOM      2  O   UNL     1     101.918 123.015 136.965  0.00  0.00    +0.000 OA
ATOM      3  C   UNL     1     104.728 123.964 139.403  0.00  0.00    +0.000 C 
ATOM      4  C   UNL     1     103.876 123.921 139.507  0.00  0.00    +0.000 C 
ATOM      5  C   UNL     1     105.071 123.772 138.639  0.00  0.00    +0.000 C 
ATOM      6  C   UNL     1     103.379 123.687 138.846  0.00  0.00    +0.000 A 
ATOM      7  C   UNL     1     103.709 123.502 138.113  0.00  0.00    +0.000 A 
ATOM      8  C   UNL     1     103.222 123.278 137.486  0.00  0.00    +0.000 A 
ATOM      9  C   UNL     1     102.563 123.648 138.952  0.00  0.00    +0.000 A 
ATOM     10  C   UNL     1     102.405 123.239 137.593  0.00  0.00    +0.000 A 
ATOM     11  C   UNL     1     102.075 123.424 138.326  0.00  0.00    +0.000 A 
ENDROOT
BRANCH   3  13
ATOM     12  O   UNL     1     105.554 122.818 140.258  0.00  0.00    +0.000 OA
ATOM     13  C   UNL     1     105.213 124.188 140.031  0.00  0.00    +0.000 A 
ATOM     14  C   UNL     1     105.625 123.615 140.459  0.00  0.00    +0.000 A 
ATOM     15  C   UNL     1     105.285 124.985 140.233  0.00  0.00    +0.000 A 
ATOM     16  C   UNL     1     106.110 123.841 141.088  0.00  0.00    +0.000 A 
ATOM     17  C   UNL     1     105.770 125.209 140.861  0.00  0.00    +0.000 A 
ATOM     18  C   UNL     1     106.183 124.637 141.289  0.00  0.00    +0.000 A 
BRANCH  18  19
ATOM     19  O   UNL     1     106.668 124.862 141.918  0.00  0.00    +0.000 OA
ATOM     20  C   UNL     1     106.531 125.574 142.310  0.00  0.00    +0.000 C 
ENDBRANCH  18  19
ENDBRANCH   3  13
BRANCH   8  21
ATOM     21  C   UNL     1     103.552 123.094 136.753  0.00  0.00    +0.000 C 
BRANCH  21  22
ATOM     22  C   UNL     1     103.238 123.421 136.065  0.00  0.00    +0.000 C 
ATOM     23  C   UNL     1     103.613 123.299 135.341  0.00  0.00    +0.000 C 
ATOM     24  C   UNL     1     103.298 123.627 134.651  0.00  0.00    +0.000 C 
ATOM     25  C   UNL     1     104.303 122.848 135.304  0.00  0.00    +0.000 C 
ENDBRANCH  21  22
ENDBRANCH   8  21
TORSDOF 4
ENDMDL
MODEL 4
REMARK VINA RESULT:      -8.4      1.047      1.830
REMARK  Name = 44257508
REMARK  4 active torsions:
REMARK  status: ('A' for Active; 'I' for Inactive)
REMARK    1  A    between atoms: O_4  and  C_20
REMARK    2  A    between atoms: C_5  and  C_10
REMARK    3  A    between atoms: C_11  and  C_14
REMARK    4  A    between atoms: C_14  and  C_21
REMARK                            x       y       z     vdW  Elec       q    Type
REMARK                         _______ _______ _______ _____ _____    ______ ____
ROOT
ATOM      1  O   UNL     1     112.419 126.918 136.477  0.00  0.00    +0.000 OA
ATOM      2  O   UNL     1     110.085 125.631 135.384  0.00  0.00    +0.000 OA
ATOM      3  C   UNL     1     112.879 128.210 135.908  0.00  0.00    +0.000 C 
ATOM      4  C   UNL     1     112.227 128.186 135.350  0.00  0.00    +0.000 C 
ATOM      5  C   UNL     1     112.976 127.573 136.475  0.00  0.00    +0.000 C 
ATOM      6  C   UNL     1     111.679 127.523 135.366  0.00  0.00    +0.000 A 
ATOM      7  C   UNL     1     111.772 126.911 135.910  0.00  0.00    +0.000 A 
ATOM      8  C   UNL     1     111.241 126.280 135.917  0.00  0.00    +0.000 A 
ATOM      9  C   UNL     1     111.055 127.505 134.827  0.00  0.00    +0.000 A 
ATOM     10  C   UNL     1     110.617 126.262 135.378  0.00  0.00    +0.000 A 
ATOM     11  C   UNL     1     110.524 126.875 134.833  0.00  0.00    +0.000 A 
ENDROOT
BRANCH   3  13
ATOM     12  O   UNL     1     112.688 129.462 136.967  0.00  0.00    +0.000 OA
ATOM     13  C   UNL     1     113.409 128.842 135.900  0.00  0.00    +0.000 A 
ATOM     14  C   UNL     1     113.314 129.468 136.429  0.00  0.00    +0.000 A 
ATOM     15  C   UNL     1     114.035 128.849 135.362  0.00  0.00    +0.000 A 
ATOM     16  C   UNL     1     113.845 130.100 136.421  0.00  0.00    +0.000 A 
ATOM     17  C   UNL     1     114.565 129.481 135.354  0.00  0.00    +0.000 A 
ATOM     18  C   UNL     1     114.470 130.106 135.883  0.00  0.00    +0.000 A 
BRANCH  18  19
ATOM     19  O   UNL     1     115.001 130.738 135.875  0.00  0.00    +0.000 OA
ATOM     20  C   UNL     1     115.335 130.987 135.163  0.00  0.00    +0.000 C 
ENDBRANCH  18  19
ENDBRANCH   3  13
BRANCH   8  21
ATOM     21  C   UNL     1     111.334 125.667 136.462  0.00  0.00    +0.000 C 
BRANCH  21  22
ATOM     22  C   UNL     1     111.585 124.924 136.208  0.00  0.00    +0.000 C 
ATOM     23  C   UNL     1     111.711 124.322 136.757  0.00  0.00    +0.000 C 
ATOM     24  C   UNL     1     111.963 123.577 136.503  0.00  0.00    +0.000 C 
ATOM     25  C   UNL     1     111.585 124.461 137.560  0.00  0.00    +0.000 C 
ENDBRANCH  21  22
ENDBRANCH   8  21
TORSDOF 4
ENDMDL
MODEL 5
REMARK VINA RESULT:      -8.2     12.073     14.297
REMARK  Name = 44257508
REMARK  4 active torsions:
REMARK  status: ('A' for Active; 'I' for Inactive)
REMARK    1  A    between atoms: O_4  and  C_20
REMARK    2  A    between atoms: C_5  and  C_10
REMARK    3  A    between atoms: C_11  and  C_14
REMARK    4  A    between atoms: C_14  and  C_21
REMARK                            x       y       z     vdW  Elec       q    Type
REMARK                         _______ _______ _______ _____ _____    ______ ____
ROOT
ATOM      1  O   UNL     1     105.417 125.814 146.173  0.00  0.00    +0.000 OA
ATOM      2  O   UNL     1     108.011 126.264 147.343  0.00  0.00    +0.000 OA
ATOM      3  C   UNL     1     104.584 124.679 146.646  0.00  0.00    +0.000 C 
ATOM      4  C   UNL     1     105.205 124.467 147.201  0.00  0.00    +0.000 C 
ATOM      5  C   UNL     1     104.691 125.357 146.129  0.00  0.00    +0.000 C 
ATOM      6  C   UNL     1     105.925 124.936 147.231  0.00  0.00    +0.000 A 
ATOM      7  C   UNL     1     106.028 125.587 146.734  0.00  0.00    +0.000 A 
ATOM      8  C   UNL     1     106.723 126.030 146.771  0.00  0.00    +0.000 A 
ATOM      9  C   UNL     1     106.518 124.728 147.764  0.00  0.00    +0.000 A 
ATOM     10  C   UNL     1     107.315 125.821 147.306  0.00  0.00    +0.000 A 
ATOM     11  C   UNL     1     107.213 125.170 147.802  0.00  0.00    +0.000 A 
ENDROOT
BRANCH   3  13
ATOM     12  O   UNL     1     104.470 123.408 145.599  0.00  0.00    +0.000 OA
ATOM     13  C   UNL     1     103.890 124.235 146.611  0.00  0.00    +0.000 A 
ATOM     14  C   UNL     1     103.833 123.600 146.087  0.00  0.00    +0.000 A 
ATOM     15  C   UNL     1     103.253 124.426 147.099  0.00  0.00    +0.000 A 
ATOM     16  C   UNL     1     103.138 123.156 146.052  0.00  0.00    +0.000 A 
ATOM     17  C   UNL     1     102.559 123.982 147.063  0.00  0.00    +0.000 A 
ATOM     18  C   UNL     1     102.501 123.347 146.540  0.00  0.00    +0.000 A 
BRANCH  18  19
ATOM     19  O   UNL     1     101.807 122.903 146.505  0.00  0.00    +0.000 OA
ATOM     20  C   UNL     1     101.142 123.206 146.121  0.00  0.00    +0.000 C 
ENDBRANCH  18  19
ENDBRANCH   3  13
BRANCH   8  21
ATOM     21  C   UNL     1     106.825 126.680 146.275  0.00  0.00    +0.000 C 
BRANCH  21  22
ATOM     22  C   UNL     1     106.785 127.444 146.583  0.00  0.00    +0.000 C 
ATOM     23  C   UNL     1     106.859 128.095 146.082  0.00  0.00    +0.000 C 
ATOM     24  C   UNL     1     106.820 128.860 146.390  0.00  0.00    +0.000 C 
ATOM     25  C   UNL     1     106.973 127.983 145.272  0.00  0.00    +0.000 C 
ENDBRANCH  21  22
ENDBRANCH   8  21
TORSDOF 4
ENDMDL
MODEL 6
REMARK VINA RESULT:      -8.1      3.253      4.008
REMARK  Name = 44257508
REMARK  4 active torsions:
REMARK  status: ('A' for Active; 'I' for Inactive)
REMARK    1  A    between atoms: O_4  and  C_20
REMARK    2  A    between atoms: C_5  and  C_10
REMARK    3  A    between atoms: C_11  and  C_14
REMARK    4  A    between atoms: C_14  and  C_21
REMARK                            x       y       z     vdW  Elec       q    Type
REMARK                         _______ _______ _______ _____ _____    ______ ____
ROOT
ATOM      1  O   UNL     1     112.135 126.158 138.119  0.00  0.00    +0.000 OA
ATOM      2  O   UNL     1     113.554 124.490 136.247  0.00  0.00    +0.000 OA
ATOM      3  C   UNL     1     112.866 126.772 139.256  0.00  0.00    +0.000 C 
ATOM      4  C   UNL     1     113.589 126.398 138.981  0.00  0.00    +0.000 C 
ATOM      5  C   UNL     1     112.135 126.651 138.822  0.00  0.00    +0.000 C 
ATOM      6  C   UNL     1     113.571 125.908 138.275  0.00  0.00    +0.000 A 
ATOM      7  C   UNL     1     112.868 125.792 137.858  0.00  0.00    +0.000 A 
ATOM      8  C   UNL     1     112.862 125.319 137.182  0.00  0.00    +0.000 A 
ATOM      9  C   UNL     1     114.267 125.552 138.015  0.00  0.00    +0.000 A 
ATOM     10  C   UNL     1     113.560 124.963 136.923  0.00  0.00    +0.000 A 
ATOM     11  C   UNL     1     114.262 125.079 137.340  0.00  0.00    +0.000 A 
ENDROOT
BRANCH   3  13
ATOM     12  O   UNL     1     112.247 126.195 140.674  0.00  0.00    +0.000 OA
ATOM     13  C   UNL     1     112.874 127.244 139.932  0.00  0.00    +0.000 A 
ATOM     14  C   UNL     1     112.565 126.956 140.641  0.00  0.00    +0.000 A 
ATOM     15  C   UNL     1     113.192 128.005 139.900  0.00  0.00    +0.000 A 
ATOM     16  C   UNL     1     112.573 127.429 141.317  0.00  0.00    +0.000 A 
ATOM     17  C   UNL     1     113.200 128.477 140.577  0.00  0.00    +0.000 A 
ATOM     18  C   UNL     1     112.891 128.190 141.285  0.00  0.00    +0.000 A 
BRANCH  18  19
ATOM     19  O   UNL     1     112.899 128.662 141.962  0.00  0.00    +0.000 OA
ATOM     20  C   UNL     1     112.486 129.376 141.971  0.00  0.00    +0.000 C 
ENDBRANCH  18  19
ENDBRANCH   3  13
BRANCH   8  21
ATOM     21  C   UNL     1     112.160 125.203 136.766  0.00  0.00    +0.000 C 
BRANCH  21  22
ATOM     22  C   UNL     1     111.982 125.679 136.117  0.00  0.00    +0.000 C 
ATOM     23  C   UNL     1     111.273 125.572 135.709  0.00  0.00    +0.000 C 
ATOM     24  C   UNL     1     111.094 126.049 135.059  0.00  0.00    +0.000 C 
ATOM     25  C   UNL     1     110.742 124.988 135.949  0.00  0.00    +0.000 C 
ENDBRANCH  21  22
ENDBRANCH   8  21
TORSDOF 4
ENDMDL
MODEL 7
REMARK VINA RESULT:      -7.9      1.392      4.755
REMARK  Name = 44257508
REMARK  4 active torsions:
REMARK  status: ('A' for Active; 'I' for Inactive)
REMARK    1  A    between atoms: O_4  and  C_20
REMARK    2  A    between atoms: C_5  and  C_10
REMARK    3  A    between atoms: C_11  and  C_14
REMARK    4  A    between atoms: C_14  and  C_21
REMARK                            x       y       z     vdW  Elec       q    Type
REMARK                         _______ _______ _______ _____ _____    ______ ____
ROOT
ATOM      1  O   UNL     1     112.671 128.423 137.132  0.00  0.00    +0.000 OA
ATOM      2  O   UNL     1     114.258 130.622 136.160  0.00  0.00    +0.000 OA
ATOM      3  C   UNL     1     112.852 127.071 136.545  0.00  0.00    +0.000 C 
ATOM      4  C   UNL     1     113.454 127.389 136.022  0.00  0.00    +0.000 C 
ATOM      5  C   UNL     1     112.457 127.591 137.103  0.00  0.00    +0.000 C 
ATOM      6  C   UNL     1     113.655 128.224 136.064  0.00  0.00    +0.000 A 
ATOM      7  C   UNL     1     113.277 128.724 136.601  0.00  0.00    +0.000 A 
ATOM      8  C   UNL     1     113.477 129.523 136.633  0.00  0.00    +0.000 A 
ATOM      9  C   UNL     1     114.235 128.524 135.560  0.00  0.00    +0.000 A 
ATOM     10  C   UNL     1     114.057 129.822 136.128  0.00  0.00    +0.000 A 
ATOM     11  C   UNL     1     114.436 129.323 135.592  0.00  0.00    +0.000 A 
ENDROOT
BRANCH   3  13
ATOM     12  O   UNL     1     111.476 126.595 135.766  0.00  0.00    +0.000 OA
ATOM     13  C   UNL     1     112.652 126.271 136.511  0.00  0.00    +0.000 A 
ATOM     14  C   UNL     1     111.965 126.033 136.122  0.00  0.00    +0.000 A 
ATOM     15  C   UNL     1     113.141 125.709 136.867  0.00  0.00    +0.000 A 
ATOM     16  C   UNL     1     111.766 125.233 136.088  0.00  0.00    +0.000 A 
ATOM     17  C   UNL     1     112.942 124.910 136.833  0.00  0.00    +0.000 A 
ATOM     18  C   UNL     1     112.255 124.671 136.444  0.00  0.00    +0.000 A 
BRANCH  18  19
ATOM     19  O   UNL     1     112.056 123.871 136.410  0.00  0.00    +0.000 OA
ATOM     20  C   UNL     1     112.048 123.418 137.100  0.00  0.00    +0.000 C 
ENDBRANCH  18  19
ENDBRANCH   3  13
BRANCH   8  21
ATOM     21  C   UNL     1     113.099 130.023 137.169  0.00  0.00    +0.000 C 
BRANCH  21  22
ATOM     22  C   UNL     1     112.575 130.598 136.897  0.00  0.00    +0.000 C 
ATOM     23  C   UNL     1     112.152 131.059 137.435  0.00  0.00    +0.000 C 
ATOM     24  C   UNL     1     111.627 131.635 137.163  0.00  0.00    +0.000 C 
ATOM     25  C   UNL     1     112.254 130.945 138.246  0.00  0.00    +0.000 C 
ENDBRANCH  21  22
ENDBRANCH   8  21
TORSDOF 4
ENDMDL
MODEL 8
REMARK VINA RESULT:      -7.8      1.461      4.931
REMARK  Name = 44257508
REMARK  4 active torsions:
REMARK  status: ('A' for Active; 'I' for Inactive)
REMARK    1  A    between atoms: O_4  and  C_20
REMARK    2  A    between atoms: C_5  and  C_10
REMARK    3  A    between atoms: C_11  and  C_14
REMARK    4  A    between atoms: C_14  and  C_21
REMARK                            x       y       z     vdW  Elec       q    Type
REMARK                         _______ _______ _______ _____ _____    ______ ____
ROOT
ATOM      1  O   UNL     1     113.645 127.955 135.997  0.00  0.00    +0.000 OA
ATOM      2  O   UNL     1     113.351 130.547 137.221  0.00  0.00    +0.000 OA
ATOM      3  C   UNL     1     113.180 126.745 136.719  0.00  0.00    +0.000 C 
ATOM      4  C   UNL     1     112.929 127.242 137.373  0.00  0.00    +0.000 C 
ATOM      5  C   UNL     1     113.540 127.103 136.027  0.00  0.00    +0.000 C 
ATOM      6  C   UNL     1     113.041 128.093 137.325  0.00  0.00    +0.000 A 
ATOM      7  C   UNL     1     113.388 128.438 136.660  0.00  0.00    +0.000 A 
ATOM      8  C   UNL     1     113.491 129.256 136.625  0.00  0.00    +0.000 A 
ATOM      9  C   UNL     1     112.799 128.567 137.955  0.00  0.00    +0.000 A 
ATOM     10  C   UNL     1     113.248 129.728 137.256  0.00  0.00    +0.000 A 
ATOM     11  C   UNL     1     112.902 129.384 137.921  0.00  0.00    +0.000 A 
ENDROOT
BRANCH   3  13
ATOM     12  O   UNL     1     114.431 125.772 137.182  0.00  0.00    +0.000 OA
ATOM     13  C   UNL     1     113.075 125.927 136.756  0.00  0.00    +0.000 A 
ATOM     14  C   UNL     1     113.701 125.441 136.988  0.00  0.00    +0.000 A 
ATOM     15  C   UNL     1     112.345 125.595 136.562  0.00  0.00    +0.000 A 
ATOM     16  C   UNL     1     113.596 124.623 137.025  0.00  0.00    +0.000 A 
ATOM     17  C   UNL     1     112.241 124.778 136.599  0.00  0.00    +0.000 A 
ATOM     18  C   UNL     1     112.866 124.292 136.830  0.00  0.00    +0.000 A 
BRANCH  18  19
ATOM     19  O   UNL     1     112.761 123.474 136.867  0.00  0.00    +0.000 OA
ATOM     20  C   UNL     1     112.050 123.161 137.144  0.00  0.00    +0.000 C 
ENDBRANCH  18  19
ENDBRANCH   3  13
BRANCH   8  21
ATOM     21  C   UNL     1     113.837 129.600 135.960  0.00  0.00    +0.000 C 
BRANCH  21  22
ATOM     22  C   UNL     1     114.568 129.976 136.024  0.00  0.00    +0.000 C 
ATOM     23  C   UNL     1     114.939 130.274 135.350  0.00  0.00    +0.000 C 
ATOM     24  C   UNL     1     115.671 130.651 135.414  0.00  0.00    +0.000 C 
ATOM     25  C   UNL     1     114.578 130.196 134.612  0.00  0.00    +0.000 C 
ENDBRANCH  21  22
ENDBRANCH   8  21
TORSDOF 4
ENDMDL
MODEL 9
REMARK VINA RESULT:      -7.8      3.495      5.039
REMARK  Name = 44257508
REMARK  4 active torsions:
REMARK  status: ('A' for Active; 'I' for Inactive)
REMARK    1  A    between atoms: O_4  and  C_20
REMARK    2  A    between atoms: C_5  and  C_10
REMARK    3  A    between atoms: C_11  and  C_14
REMARK    4  A    between atoms: C_14  and  C_21
REMARK                            x       y       z     vdW  Elec       q    Type
REMARK                         _______ _______ _______ _____ _____    ______ ____
ROOT
ATOM      1  O   UNL     1     112.895 125.999 138.878  0.00  0.00    +0.000 OA
ATOM      2  O   UNL     1     112.033 124.530 136.554  0.00  0.00    +0.000 OA
ATOM      3  C   UNL     1     111.891 126.695 139.721  0.00  0.00    +0.000 C 
ATOM      4  C   UNL     1     111.271 126.416 139.197  0.00  0.00    +0.000 C 
ATOM      5  C   UNL     1     112.709 126.485 139.561  0.00  0.00    +0.000 C 
ATOM      6  C   UNL     1     111.477 125.930 138.518  0.00  0.00    +0.000 A 
ATOM      7  C   UNL     1     112.262 125.729 138.364  0.00  0.00    +0.000 A 
ATOM      8  C   UNL     1     112.448 125.262 137.709  0.00  0.00    +0.000 A 
ATOM      9  C   UNL     1     110.878 125.665 138.018  0.00  0.00    +0.000 A 
ATOM     10  C   UNL     1     111.848 124.997 137.209  0.00  0.00    +0.000 A 
ATOM     11  C   UNL     1     111.063 125.199 137.363  0.00  0.00    +0.000 A 
ENDROOT
BRANCH   3  13
ATOM     12  O   UNL     1     111.593 125.987 141.183  0.00  0.00    +0.000 OA
ATOM     13  C   UNL     1     111.703 127.161 140.375  0.00  0.00    +0.000 A 
ATOM     14  C   UNL     1     111.554 126.807 141.106  0.00  0.00    +0.000 A 
ATOM     15  C   UNL     1     111.664 127.982 140.299  0.00  0.00    +0.000 A 
ATOM     16  C   UNL     1     111.366 127.275 141.759  0.00  0.00    +0.000 A 
ATOM     17  C   UNL     1     111.476 128.448 140.953  0.00  0.00    +0.000 A 
ATOM     18  C   UNL     1     111.327 128.095 141.683  0.00  0.00    +0.000 A 
BRANCH  18  19
ATOM     19  O   UNL     1     111.139 128.562 142.337  0.00  0.00    +0.000 OA
ATOM     20  C   UNL     1     111.721 129.022 142.697  0.00  0.00    +0.000 C 
ENDBRANCH  18  19
ENDBRANCH   3  13
BRANCH   8  21
ATOM     21  C   UNL     1     113.233 125.061 137.555  0.00  0.00    +0.000 C 
BRANCH  21  22
ATOM     22  C   UNL     1     113.635 125.419 136.931  0.00  0.00    +0.000 C 
ATOM     23  C   UNL     1     114.429 125.240 136.796  0.00  0.00    +0.000 C 
ATOM     24  C   UNL     1     114.832 125.599 136.171  0.00  0.00    +0.000 C 
ATOM     25  C   UNL     1     114.820 124.703 137.284  0.00  0.00    +0.000 C 
ENDBRANCH  21  22
ENDBRANCH   8  21
TORSDOF 4
ENDMDL
MODEL 10
REMARK VINA RESULT:      -7.7      2.045      3.124
REMARK  Name = 44257508
REMARK  4 active torsions:
REMARK  status: ('A' for Active; 'I' for Inactive)
REMARK    1  A    between atoms: O_4  and  C_20
REMARK    2  A    between atoms: C_5  and  C_10
REMARK    3  A    between atoms: C_11  and  C_14
REMARK    4  A    between atoms: C_14  and  C_21
REMARK                            x       y       z     vdW  Elec       q    Type
REMARK                         _______ _______ _______ _____ _____    ______ ____
ROOT
ATOM      1  O   UNL     1     113.010 127.342 137.281  0.00  0.00    +0.000 OA
ATOM      2  O   UNL     1     112.158 124.872 136.067  0.00  0.00    +0.000 OA
ATOM      3  C   UNL     1     112.176 128.561 137.130  0.00  0.00    +0.000 C 
ATOM      4  C   UNL     1     111.614 128.107 136.665  0.00  0.00    +0.000 C 
ATOM      5  C   UNL     1     112.879 128.176 137.440  0.00  0.00    +0.000 C 
ATOM      6  C   UNL     1     111.762 127.273 136.516  0.00  0.00    +0.000 A 
ATOM      7  C   UNL     1     112.437 126.904 136.813  0.00  0.00    +0.000 A 
ATOM      8  C   UNL     1     112.570 126.104 136.664  0.00  0.00    +0.000 A 
ATOM      9  C   UNL     1     111.220 126.843 136.069  0.00  0.00    +0.000 A 
ATOM     10  C   UNL     1     112.026 125.673 136.217  0.00  0.00    +0.000 A 
ATOM     11  C   UNL     1     111.351 126.043 135.919  0.00  0.00    +0.000 A 
ENDROOT
BRANCH   3  13
ATOM     12  O   UNL     1     111.525 129.036 138.571  0.00  0.00    +0.000 OA
ATOM     13  C   UNL     1     112.041 129.361 137.279  0.00  0.00    +0.000 A 
ATOM     14  C   UNL     1     111.716 129.598 137.999  0.00  0.00    +0.000 A 
ATOM     15  C   UNL     1     112.232 129.924 136.707  0.00  0.00    +0.000 A 
ATOM     16  C   UNL     1     111.582 130.399 138.147  0.00  0.00    +0.000 A 
ATOM     17  C   UNL     1     112.098 130.725 136.855  0.00  0.00    +0.000 A 
ATOM     18  C   UNL     1     111.773 130.962 137.575  0.00  0.00    +0.000 A 
BRANCH  18  19
ATOM     19  O   UNL     1     111.639 131.763 137.723  0.00  0.00    +0.000 OA
ATOM     20  C   UNL     1     111.100 132.183 137.261  0.00  0.00    +0.000 C 
ENDBRANCH  18  19
ENDBRANCH   3  13
BRANCH   8  21
ATOM     21  C   UNL     1     113.245 125.734 136.961  0.00  0.00    +0.000 C 
BRANCH  21  22
ATOM     22  C   UNL     1     113.877 125.565 136.460  0.00  0.00    +0.000 C 
ATOM     23  C   UNL     1     114.557 125.208 136.760  0.00  0.00    +0.000 C 
ATOM     24  C   UNL     1     115.191 125.039 136.258  0.00  0.00    +0.000 C 
ATOM     25  C   UNL     1     114.606 125.019 137.561  0.00  0.00    +0.000 C 
ENDBRANCH  21  22
ENDBRANCH   8  21
TORSDOF 4
ENDMDL
