MODEL 1
REMARK VINA RESULT:      -9.9      0.000      0.000
REMARK  Name = 44259191
REMARK  8 active torsions:
REMARK  status: ('A' for Active; 'I' for Inactive)
REMARK    1  A    between atoms: O_2  and  C_17
REMARK    2  A    between atoms: O_2  and  C_22
REMARK    3  A    between atoms: O_3  and  C_19
REMARK    4  A    between atoms: O_3  and  C_21
REMARK    5  A    between atoms: C_18  and  C_20
REMARK    6  A    between atoms: C_22  and  C_28
REMARK    7  A    between atoms: C_23  and  C_27
REMARK    8  A    between atoms: C_33  and  C_39
REMARK                            x       y       z     vdW  Elec       q    Type
REMARK                         _______ _______ _______ _____ _____    ______ ____
ROOT
ATOM      1  O   UNL     1     112.662 129.381 137.764  0.00  0.00    +0.000 OA
ENDROOT
BRANCH   1   6
ATOM      2  O   UNL     1     112.166 131.245 136.744  0.00  0.00    +0.000 OA
ATOM      3  O   UNL     1     111.430 129.935 138.711  0.00  0.00    +0.000 OA
ATOM      4  O   UNL     1     110.425 130.921 139.028  0.00  0.00    +0.000 OA
ATOM      5  O   UNL     1     110.160 133.277 137.322  0.00  0.00    +0.000 OA
ATOM      6  C   UNL     1     112.291 130.095 137.582  0.00  0.00    +0.000 A 
ATOM      7  C   UNL     1     112.537 130.531 136.926  0.00  0.00    +0.000 A 
ATOM      8  C   UNL     1     111.675 130.372 138.055  0.00  0.00    +0.000 A 
ATOM      9  C   UNL     1     111.305 131.086 137.873  0.00  0.00    +0.000 A 
ATOM     10  C   UNL     1     111.549 131.523 137.218  0.00  0.00    +0.000 A 
ATOM     11  C   UNL     1     110.664 131.365 138.374  0.00  0.00    +0.000 A 
ATOM     12  C   UNL     1     111.172 132.268 137.017  0.00  0.00    +0.000 A 
ATOM     13  C   UNL     1     110.274 132.108 138.189  0.00  0.00    +0.000 A 
ATOM     14  C   UNL     1     110.529 132.563 137.507  0.00  0.00    +0.000 A 
BRANCH   7  17
ATOM     15  O   UNL     1     115.291 130.584 136.166  0.00  0.00    +0.000 OA
ATOM     16  O   UNL     1     115.001 129.422 135.032  0.00  0.00    +0.000 OA
ATOM     17  C   UNL     1     113.152 130.254 136.453  0.00  0.00    +0.000 A 
ATOM     18  C   UNL     1     113.914 130.558 136.546  0.00  0.00    +0.000 A 
ATOM     19  C   UNL     1     113.007 129.673 135.886  0.00  0.00    +0.000 A 
ATOM     20  C   UNL     1     114.530 130.281 136.073  0.00  0.00    +0.000 A 
ATOM     21  C   UNL     1     113.623 129.396 135.412  0.00  0.00    +0.000 A 
ATOM     22  C   UNL     1     114.384 129.700 135.506  0.00  0.00    +0.000 A 
ENDBRANCH   7  17
ENDBRANCH   1   6
BRANCH   1  30
ATOM     23  O   UNL     1     113.355 129.904 138.899  0.00  0.00    +0.000 OA
ATOM     24  O   UNL     1     113.311 127.668 139.958  0.00  0.00    +0.000 OA
ATOM     25  O   UNL     1     114.018 128.937 140.739  0.00  0.00    +0.000 OA
ATOM     26  C   UNL     1     113.325 128.413 139.605  0.00  0.00    +0.000 C 
ATOM     27  C   UNL     1     113.679 129.047 139.996  0.00  0.00    +0.000 C 
ATOM     28  C   UNL     1     112.986 128.524 138.861  0.00  0.00    +0.000 C 
ATOM     29  C   UNL     1     113.694 129.793 139.643  0.00  0.00    +0.000 C 
ATOM     30  C   UNL     1     113.001 129.269 138.508  0.00  0.00    +0.000 C 
BRANCH  29  32
ATOM     31  O   UNL     1     114.610 130.890 139.643  0.00  0.00    +0.000 OA
ATOM     32  C   UNL     1     114.047 130.428 140.033  0.00  0.00    +0.000 C 
ENDBRANCH  29  32
BRANCH  28  33
ATOM     33  O   UNL     1     112.632 127.890 138.470  0.00  0.00    +0.000 OA
BRANCH  33  35
ATOM     34  O   UNL     1     113.919 127.349 138.161  0.00  0.00    +0.000 OA
ATOM     35  C   UNL     1     113.097 127.273 138.179  0.00  0.00    +0.000 C 
BRANCH  35  36
ATOM     36  C   UNL     1     112.741 126.580 137.907  0.00  0.00    +0.000 C 
ATOM     37  C   UNL     1     113.053 126.186 137.253  0.00  0.00    +0.000 C 
BRANCH  37  39
ATOM     38  O   UNL     1     111.627 123.416 136.163  0.00  0.00    +0.000 OA
ATOM     39  C   UNL     1     112.697 125.494 136.981  0.00  0.00    +0.000 A 
ATOM     40  C   UNL     1     113.040 124.761 137.142  0.00  0.00    +0.000 A 
ATOM     41  C   UNL     1     111.996 125.534 136.547  0.00  0.00    +0.000 A 
ATOM     42  C   UNL     1     112.684 124.069 136.869  0.00  0.00    +0.000 A 
ATOM     43  C   UNL     1     111.639 124.841 136.274  0.00  0.00    +0.000 A 
ATOM     44  C   UNL     1     111.984 124.109 136.436  0.00  0.00    +0.000 A 
ENDBRANCH  37  39
ENDBRANCH  35  36
ENDBRANCH  33  35
ENDBRANCH  28  33
ENDBRANCH   1  30
TORSDOF 8
ENDMDL
MODEL 2
REMARK VINA RESULT:      -9.8      2.258      3.922
REMARK  Name = 44259191
REMARK  8 active torsions:
REMARK  status: ('A' for Active; 'I' for Inactive)
REMARK    1  A    between atoms: O_2  and  C_17
REMARK    2  A    between atoms: O_2  and  C_22
REMARK    3  A    between atoms: O_3  and  C_19
REMARK    4  A    between atoms: O_3  and  C_21
REMARK    5  A    between atoms: C_18  and  C_20
REMARK    6  A    between atoms: C_22  and  C_28
REMARK    7  A    between atoms: C_23  and  C_27
REMARK    8  A    between atoms: C_33  and  C_39
REMARK                            x       y       z     vdW  Elec       q    Type
REMARK                         _______ _______ _______ _____ _____    ______ ____
ROOT
ATOM      1  O   UNL     1     110.087 129.699 137.702  0.00  0.00    +0.000 OA
ENDROOT
BRANCH   1   6
ATOM      2  O   UNL     1     110.893 130.680 139.477  0.00  0.00    +0.000 OA
ATOM      3  O   UNL     1     108.773 129.665 138.700  0.00  0.00    +0.000 OA
ATOM      4  O   UNL     1     108.136 129.960 139.961  0.00  0.00    +0.000 OA
ATOM      5  O   UNL     1     109.673 131.308 142.047  0.00  0.00    +0.000 OA
ATOM      6  C   UNL     1     110.136 130.020 138.460  0.00  0.00    +0.000 A 
ATOM      7  C   UNL     1     110.843 130.359 138.719  0.00  0.00    +0.000 A 
ATOM      8  C   UNL     1     109.480 130.003 138.959  0.00  0.00    +0.000 A 
ATOM      9  C   UNL     1     109.530 130.324 139.717  0.00  0.00    +0.000 A 
ATOM     10  C   UNL     1     110.236 130.663 139.977  0.00  0.00    +0.000 A 
ATOM     11  C   UNL     1     108.838 130.300 140.228  0.00  0.00    +0.000 A 
ATOM     12  C   UNL     1     110.301 131.000 140.764  0.00  0.00    +0.000 A 
ATOM     13  C   UNL     1     108.884 130.633 141.019  0.00  0.00    +0.000 A 
ATOM     14  C   UNL     1     109.620 130.986 141.289  0.00  0.00    +0.000 A 
BRANCH   7  17
ATOM     15  O   UNL     1     112.524 131.769 136.888  0.00  0.00    +0.000 OA
ATOM     16  O   UNL     1     113.471 130.427 136.723  0.00  0.00    +0.000 OA
ATOM     17  C   UNL     1     111.499 130.376 138.221  0.00  0.00    +0.000 A 
ATOM     18  C   UNL     1     111.684 131.064 137.804  0.00  0.00    +0.000 A 
ATOM     19  C   UNL     1     111.972 129.705 138.138  0.00  0.00    +0.000 A 
ATOM     20  C   UNL     1     112.340 131.081 137.305  0.00  0.00    +0.000 A 
ATOM     21  C   UNL     1     112.630 129.722 137.639  0.00  0.00    +0.000 A 
ATOM     22  C   UNL     1     112.813 130.410 137.223  0.00  0.00    +0.000 A 
ENDBRANCH   7  17
ENDBRANCH   1   6
BRANCH   1  30
ATOM     23  O   UNL     1     109.314 130.768 137.152  0.00  0.00    +0.000 OA
ATOM     24  O   UNL     1     108.163 129.166 135.657  0.00  0.00    +0.000 OA
ATOM     25  O   UNL     1     107.775 130.769 135.605  0.00  0.00    +0.000 OA
ATOM     26  C   UNL     1     108.546 129.700 136.155  0.00  0.00    +0.000 C 
ATOM     27  C   UNL     1     108.352 130.501 136.129  0.00  0.00    +0.000 C 
ATOM     28  C   UNL     1     109.125 129.432 136.679  0.00  0.00    +0.000 C 
ATOM     29  C   UNL     1     108.736 131.035 136.627  0.00  0.00    +0.000 C 
ATOM     30  C   UNL     1     109.509 129.966 137.178  0.00  0.00    +0.000 C 
BRANCH  29  32
ATOM     31  O   UNL     1     109.104 132.388 136.352  0.00  0.00    +0.000 OA
ATOM     32  C   UNL     1     108.542 131.836 136.602  0.00  0.00    +0.000 C 
ENDBRANCH  29  32
BRANCH  28  33
ATOM     33  O   UNL     1     109.319 128.631 136.706  0.00  0.00    +0.000 OA
BRANCH  33  35
ATOM     34  O   UNL     1     109.995 128.753 135.453  0.00  0.00    +0.000 OA
ATOM     35  C   UNL     1     109.769 128.296 136.101  0.00  0.00    +0.000 C 
BRANCH  35  36
ATOM     36  C   UNL     1     109.992 127.503 136.144  0.00  0.00    +0.000 C 
ATOM     37  C   UNL     1     110.679 127.246 135.766  0.00  0.00    +0.000 C 
BRANCH  37  39
ATOM     38  O   UNL     1     111.572 124.074 135.938  0.00  0.00    +0.000 OA
ATOM     39  C   UNL     1     110.902 126.454 135.809  0.00  0.00    +0.000 A 
ATOM     40  C   UNL     1     110.470 125.880 135.402  0.00  0.00    +0.000 A 
ATOM     41  C   UNL     1     111.558 126.234 136.259  0.00  0.00    +0.000 A 
ATOM     42  C   UNL     1     110.693 125.088 135.445  0.00  0.00    +0.000 A 
ATOM     43  C   UNL     1     111.781 125.440 136.302  0.00  0.00    +0.000 A 
ATOM     44  C   UNL     1     111.349 124.868 135.895  0.00  0.00    +0.000 A 
ENDBRANCH  37  39
ENDBRANCH  35  36
ENDBRANCH  33  35
ENDBRANCH  28  33
ENDBRANCH   1  30
TORSDOF 8
ENDMDL
MODEL 3
REMARK VINA RESULT:      -9.8      2.311      3.192
REMARK  Name = 44259191
REMARK  8 active torsions:
REMARK  status: ('A' for Active; 'I' for Inactive)
REMARK    1  A    between atoms: O_2  and  C_17
REMARK    2  A    between atoms: O_2  and  C_22
REMARK    3  A    between atoms: O_3  and  C_19
REMARK    4  A    between atoms: O_3  and  C_21
REMARK    5  A    between atoms: C_18  and  C_20
REMARK    6  A    between atoms: C_22  and  C_28
REMARK    7  A    between atoms: C_23  and  C_27
REMARK    8  A    between atoms: C_33  and  C_39
REMARK                            x       y       z     vdW  Elec       q    Type
REMARK                         _______ _______ _______ _____ _____    ______ ____
ROOT
ATOM      1  O   UNL     1     111.758 128.584 139.677  0.00  0.00    +0.000 OA
ENDROOT
BRANCH   1   6
ATOM      2  O   UNL     1     111.381 130.724 139.474  0.00  0.00    +0.000 OA
ATOM      3  O   UNL     1     110.199 128.575 139.137  0.00  0.00    +0.000 OA
ATOM      4  O   UNL     1     109.009 129.264 138.701  0.00  0.00    +0.000 OA
ATOM      5  O   UNL     1     109.014 132.183 138.605  0.00  0.00    +0.000 OA
ATOM      6  C   UNL     1     111.372 129.296 139.519  0.00  0.00    +0.000 A 
ATOM      7  C   UNL     1     111.767 130.012 139.632  0.00  0.00    +0.000 A 
ATOM      8  C   UNL     1     110.593 129.291 139.250  0.00  0.00    +0.000 A 
ATOM      9  C   UNL     1     110.207 130.003 139.092  0.00  0.00    +0.000 A 
ATOM     10  C   UNL     1     110.600 130.720 139.204  0.00  0.00    +0.000 A 
ATOM     11  C   UNL     1     109.395 129.986 138.811  0.00  0.00    +0.000 A 
ATOM     12  C   UNL     1     110.210 131.468 139.043  0.00  0.00    +0.000 A 
ATOM     13  C   UNL     1     108.988 130.724 138.645  0.00  0.00    +0.000 A 
ATOM     14  C   UNL     1     109.397 131.470 138.762  0.00  0.00    +0.000 A 
BRANCH   7  17
ATOM     15  O   UNL     1     113.647 130.330 141.760  0.00  0.00    +0.000 OA
ATOM     16  O   UNL     1     114.885 130.031 140.711  0.00  0.00    +0.000 OA
ATOM     17  C   UNL     1     112.545 130.017 139.902  0.00  0.00    +0.000 A 
ATOM     18  C   UNL     1     112.707 130.171 140.696  0.00  0.00    +0.000 A 
ATOM     19  C   UNL     1     113.164 129.867 139.377  0.00  0.00    +0.000 A 
ATOM     20  C   UNL     1     113.486 130.176 140.966  0.00  0.00    +0.000 A 
ATOM     21  C   UNL     1     113.945 129.872 139.647  0.00  0.00    +0.000 A 
ATOM     22  C   UNL     1     114.105 130.026 140.441  0.00  0.00    +0.000 A 
ENDBRANCH   7  17
ENDBRANCH   1   6
BRANCH   1  30
ATOM     23  O   UNL     1     111.062 128.318 140.896  0.00  0.00    +0.000 OA
ATOM     24  O   UNL     1     111.184 125.889 140.435  0.00  0.00    +0.000 OA
ATOM     25  O   UNL     1     110.447 126.432 141.807  0.00  0.00    +0.000 OA
ATOM     26  C   UNL     1     111.143 126.699 140.589  0.00  0.00    +0.000 C 
ATOM     27  C   UNL     1     110.775 126.970 141.275  0.00  0.00    +0.000 C 
ATOM     28  C   UNL     1     111.471 127.236 140.056  0.00  0.00    +0.000 C 
ATOM     29  C   UNL     1     110.734 127.779 141.428  0.00  0.00    +0.000 C 
ATOM     30  C   UNL     1     111.431 128.046 140.209  0.00  0.00    +0.000 C 
BRANCH  29  32
ATOM     31  O   UNL     1     110.818 128.377 142.724  0.00  0.00    +0.000 OA
ATOM     32  C   UNL     1     110.366 128.051 142.115  0.00  0.00    +0.000 C 
ENDBRANCH  29  32
BRANCH  28  33
ATOM     33  O   UNL     1     111.840 126.965 139.370  0.00  0.00    +0.000 OA
BRANCH  33  35
ATOM     34  O   UNL     1     112.978 126.556 140.131  0.00  0.00    +0.000 OA
ATOM     35  C   UNL     1     112.563 126.572 139.418  0.00  0.00    +0.000 C 
BRANCH  35  36
ATOM     36  C   UNL     1     112.874 126.195 138.752  0.00  0.00    +0.000 C 
ATOM     37  C   UNL     1     113.659 126.325 138.534  0.00  0.00    +0.000 C 
BRANCH  37  39
ATOM     38  O   UNL     1     114.899 124.819 135.872  0.00  0.00    +0.000 OA
ATOM     39  C   UNL     1     113.969 125.949 137.869  0.00  0.00    +0.000 A 
ATOM     40  C   UNL     1     114.384 125.240 137.951  0.00  0.00    +0.000 A 
ATOM     41  C   UNL     1     113.864 126.280 137.121  0.00  0.00    +0.000 A 
ATOM     42  C   UNL     1     114.694 124.864 137.286  0.00  0.00    +0.000 A 
ATOM     43  C   UNL     1     114.174 125.904 136.455  0.00  0.00    +0.000 A 
ATOM     44  C   UNL     1     114.589 125.195 136.538  0.00  0.00    +0.000 A 
ENDBRANCH  37  39
ENDBRANCH  35  36
ENDBRANCH  33  35
ENDBRANCH  28  33
ENDBRANCH   1  30
TORSDOF 8
ENDMDL
MODEL 4
REMARK VINA RESULT:      -9.8      8.091     10.410
REMARK  Name = 44259191
REMARK  8 active torsions:
REMARK  status: ('A' for Active; 'I' for Inactive)
REMARK    1  A    between atoms: O_2  and  C_17
REMARK    2  A    between atoms: O_2  and  C_22
REMARK    3  A    between atoms: O_3  and  C_19
REMARK    4  A    between atoms: O_3  and  C_21
REMARK    5  A    between atoms: C_18  and  C_20
REMARK    6  A    between atoms: C_22  and  C_28
REMARK    7  A    between atoms: C_23  and  C_27
REMARK    8  A    between atoms: C_33  and  C_39
REMARK                            x       y       z     vdW  Elec       q    Type
REMARK                         _______ _______ _______ _____ _____    ______ ____
ROOT
ATOM      1  O   UNL     1     105.870 127.442 143.410  0.00  0.00    +0.000 OA
ENDROOT
BRANCH   1   6
ATOM      2  O   UNL     1     106.880 127.142 145.321  0.00  0.00    +0.000 OA
ATOM      3  O   UNL     1     105.201 126.014 143.894  0.00  0.00    +0.000 OA
ATOM      4  O   UNL     1     105.072 124.938 144.847  0.00  0.00    +0.000 OA
ATOM      5  O   UNL     1     106.672 125.005 147.290  0.00  0.00    +0.000 OA
ATOM      6  C   UNL     1     106.095 127.104 144.127  0.00  0.00    +0.000 A 
ATOM      7  C   UNL     1     106.655 127.481 144.603  0.00  0.00    +0.000 A 
ATOM      8  C   UNL     1     105.761 126.390 144.369  0.00  0.00    +0.000 A 
ATOM      9  C   UNL     1     105.986 126.052 145.087  0.00  0.00    +0.000 A 
ATOM     10  C   UNL     1     106.546 126.427 145.563  0.00  0.00    +0.000 A 
ATOM     11  C   UNL     1     105.631 125.307 145.329  0.00  0.00    +0.000 A 
ATOM     12  C   UNL     1     106.789 126.086 146.313  0.00  0.00    +0.000 A 
ATOM     13  C   UNL     1     105.862 124.950 146.075  0.00  0.00    +0.000 A 
ATOM     14  C   UNL     1     106.445 125.341 146.571  0.00  0.00    +0.000 A 
BRANCH   7  17
ATOM     15  O   UNL     1     108.823 128.928 143.432  0.00  0.00    +0.000 OA
ATOM     16  O   UNL     1     107.991 130.339 143.635  0.00  0.00    +0.000 OA
ATOM     17  C   UNL     1     106.989 128.194 144.361  0.00  0.00    +0.000 A 
ATOM     18  C   UNL     1     107.739 128.204 144.018  0.00  0.00    +0.000 A 
ATOM     19  C   UNL     1     106.573 128.900 144.462  0.00  0.00    +0.000 A 
ATOM     20  C   UNL     1     108.073 128.918 143.776  0.00  0.00    +0.000 A 
ATOM     21  C   UNL     1     106.907 129.615 144.220  0.00  0.00    +0.000 A 
ATOM     22  C   UNL     1     107.657 129.623 143.877  0.00  0.00    +0.000 A 
ENDBRANCH   7  17
ENDBRANCH   1   6
BRANCH   1  30
ATOM     23  O   UNL     1     106.576 126.493 142.609  0.00  0.00    +0.000 OA
ATOM     24  O   UNL     1     104.898 126.761 140.810  0.00  0.00    +0.000 OA
ATOM     25  O   UNL     1     106.163 125.722 140.610  0.00  0.00    +0.000 OA
ATOM     26  C   UNL     1     105.457 126.671 141.410  0.00  0.00    +0.000 C 
ATOM     27  C   UNL     1     106.090 126.152 141.309  0.00  0.00    +0.000 C 
ATOM     28  C   UNL     1     105.383 127.102 142.110  0.00  0.00    +0.000 C 
ATOM     29  C   UNL     1     106.649 126.063 141.909  0.00  0.00    +0.000 C 
ATOM     30  C   UNL     1     105.943 127.013 142.709  0.00  0.00    +0.000 C 
BRANCH  29  32
ATOM     31  O   UNL     1     108.055 125.832 141.807  0.00  0.00    +0.000 OA
ATOM     32  C   UNL     1     107.282 125.543 141.809  0.00  0.00    +0.000 C 
ENDBRANCH  29  32
BRANCH  28  33
ATOM     33  O   UNL     1     104.751 127.621 142.210  0.00  0.00    +0.000 OA
BRANCH  33  35
ATOM     34  O   UNL     1     105.364 128.561 141.325  0.00  0.00    +0.000 OA
ATOM     35  C   UNL     1     104.709 128.312 141.761  0.00  0.00    +0.000 C 
BRANCH  35  36
ATOM     36  C   UNL     1     104.012 128.754 141.747  0.00  0.00    +0.000 C 
ATOM     37  C   UNL     1     104.047 129.579 141.731  0.00  0.00    +0.000 C 
BRANCH  37  39
ATOM     38  O   UNL     1     101.260 131.346 141.678  0.00  0.00    +0.000 OA
ATOM     39  C   UNL     1     103.351 130.020 141.718  0.00  0.00    +0.000 A 
ATOM     40  C   UNL     1     102.876 130.023 141.043  0.00  0.00    +0.000 A 
ATOM     41  C   UNL     1     103.128 130.460 142.379  0.00  0.00    +0.000 A 
ATOM     42  C   UNL     1     102.180 130.464 141.029  0.00  0.00    +0.000 A 
ATOM     43  C   UNL     1     102.431 130.902 142.366  0.00  0.00    +0.000 A 
ATOM     44  C   UNL     1     101.957 130.904 141.691  0.00  0.00    +0.000 A 
ENDBRANCH  37  39
ENDBRANCH  35  36
ENDBRANCH  33  35
ENDBRANCH  28  33
ENDBRANCH   1  30
TORSDOF 8
ENDMDL
MODEL 5
REMARK VINA RESULT:      -9.7      2.077      5.954
REMARK  Name = 44259191
REMARK  8 active torsions:
REMARK  status: ('A' for Active; 'I' for Inactive)
REMARK    1  A    between atoms: O_2  and  C_17
REMARK    2  A    between atoms: O_2  and  C_22
REMARK    3  A    between atoms: O_3  and  C_19
REMARK    4  A    between atoms: O_3  and  C_21
REMARK    5  A    between atoms: C_18  and  C_20
REMARK    6  A    between atoms: C_22  and  C_28
REMARK    7  A    between atoms: C_23  and  C_27
REMARK    8  A    between atoms: C_33  and  C_39
REMARK                            x       y       z     vdW  Elec       q    Type
REMARK                         _______ _______ _______ _____ _____    ______ ____
ROOT
ATOM      1  O   UNL     1     112.029 127.667 138.464  0.00  0.00    +0.000 OA
ENDROOT
BRANCH   1   6
ATOM      2  O   UNL     1     113.817 126.461 138.800  0.00  0.00    +0.000 OA
ATOM      3  O   UNL     1     112.071 126.778 137.074  0.00  0.00    +0.000 OA
ATOM      4  O   UNL     1     112.682 125.779 136.231  0.00  0.00    +0.000 OA
ATOM      5  O   UNL     1     115.105 124.433 137.153  0.00  0.00    +0.000 OA
ATOM      6  C   UNL     1     112.632 127.117 138.344  0.00  0.00    +0.000 A 
ATOM      7  C   UNL     1     113.214 127.011 138.920  0.00  0.00    +0.000 A 
ATOM      8  C   UNL     1     112.653 126.673 137.650  0.00  0.00    +0.000 A 
ATOM      9  C   UNL     1     113.256 126.123 137.530  0.00  0.00    +0.000 A 
ATOM     10  C   UNL     1     113.838 126.017 138.104  0.00  0.00    +0.000 A 
ATOM     11  C   UNL     1     113.268 125.666 136.801  0.00  0.00    +0.000 A 
ATOM     12  C   UNL     1     114.472 125.448 137.992  0.00  0.00    +0.000 A 
ATOM     13  C   UNL     1     113.894 125.092 136.671  0.00  0.00    +0.000 A 
ATOM     14  C   UNL     1     114.500 124.982 137.270  0.00  0.00    +0.000 A 
BRANCH   7  17
ATOM     15  O   UNL     1     112.583 127.231 141.699  0.00  0.00    +0.000 OA
ATOM     16  O   UNL     1     113.129 128.788 141.700  0.00  0.00    +0.000 OA
ATOM     17  C   UNL     1     113.192 127.455 139.614  0.00  0.00    +0.000 A 
ATOM     18  C   UNL     1     112.898 127.121 140.309  0.00  0.00    +0.000 A 
ATOM     19  C   UNL     1     113.465 128.233 139.615  0.00  0.00    +0.000 A 
ATOM     20  C   UNL     1     112.877 127.565 141.004  0.00  0.00    +0.000 A 
ATOM     21  C   UNL     1     113.444 128.678 140.310  0.00  0.00    +0.000 A 
ATOM     22  C   UNL     1     113.150 128.343 141.004  0.00  0.00    +0.000 A 
ENDBRANCH   7  17
ENDBRANCH   1   6
BRANCH   1  30
ATOM     23  O   UNL     1     111.031 126.673 138.710  0.00  0.00    +0.000 OA
ATOM     24  O   UNL     1     109.291 128.205 137.843  0.00  0.00    +0.000 OA
ATOM     25  O   UNL     1     108.875 126.701 138.377  0.00  0.00    +0.000 OA
ATOM     26  C   UNL     1     109.871 127.694 138.132  0.00  0.00    +0.000 C 
ATOM     27  C   UNL     1     109.663 126.943 138.399  0.00  0.00    +0.000 C 
ATOM     28  C   UNL     1     110.660 127.936 138.153  0.00  0.00    +0.000 C 
ATOM     29  C   UNL     1     110.243 126.432 138.688  0.00  0.00    +0.000 C 
ATOM     30  C   UNL     1     111.240 127.426 138.442  0.00  0.00    +0.000 C 
BRANCH  29  32
ATOM     31  O   UNL     1     110.194 125.461 139.735  0.00  0.00    +0.000 OA
ATOM     32  C   UNL     1     110.035 125.680 138.955  0.00  0.00    +0.000 C 
ENDBRANCH  29  32
BRANCH  28  33
ATOM     33  O   UNL     1     110.869 128.688 137.886  0.00  0.00    +0.000 OA
BRANCH  33  35
ATOM     34  O   UNL     1     110.382 129.307 139.079  0.00  0.00    +0.000 OA
ATOM     35  C   UNL     1     110.596 129.357 138.284  0.00  0.00    +0.000 C 
BRANCH  35  36
ATOM     36  C   UNL     1     110.538 130.079 137.886  0.00  0.00    +0.000 C 
ATOM     37  C   UNL     1     110.827 130.767 138.237  0.00  0.00    +0.000 C 
BRANCH  37  39
ATOM     38  O   UNL     1     110.593 133.650 136.648  0.00  0.00    +0.000 OA
ATOM     39  C   UNL     1     110.769 131.487 137.840  0.00  0.00    +0.000 A 
ATOM     40  C   UNL     1     111.343 131.703 137.287  0.00  0.00    +0.000 A 
ATOM     41  C   UNL     1     110.136 131.994 137.995  0.00  0.00    +0.000 A 
ATOM     42  C   UNL     1     111.284 132.423 136.890  0.00  0.00    +0.000 A 
ATOM     43  C   UNL     1     110.077 132.715 137.598  0.00  0.00    +0.000 A 
ATOM     44  C   UNL     1     110.652 132.929 137.045  0.00  0.00    +0.000 A 
ENDBRANCH  37  39
ENDBRANCH  35  36
ENDBRANCH  33  35
ENDBRANCH  28  33
ENDBRANCH   1  30
TORSDOF 8
ENDMDL
MODEL 6
REMARK VINA RESULT:      -9.7      0.917      2.711
REMARK  Name = 44259191
REMARK  8 active torsions:
REMARK  status: ('A' for Active; 'I' for Inactive)
REMARK    1  A    between atoms: O_2  and  C_17
REMARK    2  A    between atoms: O_2  and  C_22
REMARK    3  A    between atoms: O_3  and  C_19
REMARK    4  A    between atoms: O_3  and  C_21
REMARK    5  A    between atoms: C_18  and  C_20
REMARK    6  A    between atoms: C_22  and  C_28
REMARK    7  A    between atoms: C_23  and  C_27
REMARK    8  A    between atoms: C_33  and  C_39
REMARK                            x       y       z     vdW  Elec       q    Type
REMARK                         _______ _______ _______ _____ _____    ______ ____
ROOT
ATOM      1  O   UNL     1     112.747 129.285 137.498  0.00  0.00    +0.000 OA
ENDROOT
BRANCH   1   6
ATOM      2  O   UNL     1     111.873 131.019 138.494  0.00  0.00    +0.000 OA
ATOM      3  O   UNL     1     111.697 129.812 136.340  0.00  0.00    +0.000 OA
ATOM      4  O   UNL     1     110.694 130.737 135.871  0.00  0.00    +0.000 OA
ATOM      5  O   UNL     1     109.852 132.924 137.614  0.00  0.00    +0.000 OA
ATOM      6  C   UNL     1     112.280 129.951 137.637  0.00  0.00    +0.000 A 
ATOM      7  C   UNL     1     112.339 130.353 138.355  0.00  0.00    +0.000 A 
ATOM      8  C   UNL     1     111.756 130.214 137.058  0.00  0.00    +0.000 A 
ATOM      9  C   UNL     1     111.289 130.880 137.197  0.00  0.00    +0.000 A 
ATOM     10  C   UNL     1     111.347 131.283 137.915  0.00  0.00    +0.000 A 
ATOM     11  C   UNL     1     110.746 131.146 136.586  0.00  0.00    +0.000 A 
ATOM     12  C   UNL     1     110.867 131.978 138.072  0.00  0.00    +0.000 A 
ATOM     13  C   UNL     1     110.257 131.839 136.725  0.00  0.00    +0.000 A 
ATOM     14  C   UNL     1     110.318 132.258 137.473  0.00  0.00    +0.000 A 
BRANCH   7  17
ATOM     15  O   UNL     1     114.830 130.599 139.736  0.00  0.00    +0.000 OA
ATOM     16  O   UNL     1     114.439 129.298 140.673  0.00  0.00    +0.000 OA
ATOM     17  C   UNL     1     112.864 130.089 138.934  0.00  0.00    +0.000 A 
ATOM     18  C   UNL     1     113.584 130.476 139.046  0.00  0.00    +0.000 A 
ATOM     19  C   UNL     1     112.668 129.439 139.403  0.00  0.00    +0.000 A 
ATOM     20  C   UNL     1     114.109 130.212 139.625  0.00  0.00    +0.000 A 
ATOM     21  C   UNL     1     113.194 129.175 139.983  0.00  0.00    +0.000 A 
ATOM     22  C   UNL     1     113.914 129.562 140.093  0.00  0.00    +0.000 A 
ENDBRANCH   7  17
ENDBRANCH   1   6
BRANCH   1  30
ATOM     23  O   UNL     1     113.659 129.946 136.619  0.00  0.00    +0.000 OA
ATOM     24  O   UNL     1     113.966 127.840 135.355  0.00  0.00    +0.000 OA
ATOM     25  O   UNL     1     114.775 129.203 134.897  0.00  0.00    +0.000 OA
ATOM     26  C   UNL     1     113.863 128.542 135.776  0.00  0.00    +0.000 C 
ATOM     27  C   UNL     1     114.268 129.223 135.547  0.00  0.00    +0.000 C 
ATOM     28  C   UNL     1     113.356 128.562 136.427  0.00  0.00    +0.000 C 
ATOM     29  C   UNL     1     114.166 129.925 135.969  0.00  0.00    +0.000 C 
ATOM     30  C   UNL     1     113.254 129.264 136.848  0.00  0.00    +0.000 C 
BRANCH  29  32
ATOM     31  O   UNL     1     115.154 130.923 136.231  0.00  0.00    +0.000 OA
ATOM     32  C   UNL     1     114.570 130.607 135.740  0.00  0.00    +0.000 C 
ENDBRANCH  29  32
BRANCH  28  33
ATOM     33  O   UNL     1     112.952 127.881 136.656  0.00  0.00    +0.000 OA
BRANCH  33  35
ATOM     34  O   UNL     1     114.095 127.318 137.302  0.00  0.00    +0.000 OA
ATOM     35  C   UNL     1     113.371 127.221 136.918  0.00  0.00    +0.000 C 
BRANCH  35  36
ATOM     36  C   UNL     1     113.066 126.463 136.798  0.00  0.00    +0.000 C 
ATOM     37  C   UNL     1     113.048 125.922 137.421  0.00  0.00    +0.000 C 
BRANCH  37  39
ATOM     38  O   UNL     1     111.830 122.893 136.938  0.00  0.00    +0.000 OA
ATOM     39  C   UNL     1     112.743 125.166 137.300  0.00  0.00    +0.000 A 
ATOM     40  C   UNL     1     111.969 124.990 137.527  0.00  0.00    +0.000 A 
ATOM     41  C   UNL     1     113.212 124.583 136.952  0.00  0.00    +0.000 A 
ATOM     42  C   UNL     1     111.665 124.234 137.406  0.00  0.00    +0.000 A 
ATOM     43  C   UNL     1     112.908 123.825 136.831  0.00  0.00    +0.000 A 
ATOM     44  C   UNL     1     112.134 123.651 137.059  0.00  0.00    +0.000 A 
ENDBRANCH  37  39
ENDBRANCH  35  36
ENDBRANCH  33  35
ENDBRANCH  28  33
ENDBRANCH   1  30
TORSDOF 8
ENDMDL
MODEL 7
REMARK VINA RESULT:      -9.5      2.107      3.522
REMARK  Name = 44259191
REMARK  8 active torsions:
REMARK  status: ('A' for Active; 'I' for Inactive)
REMARK    1  A    between atoms: O_2  and  C_17
REMARK    2  A    between atoms: O_2  and  C_22
REMARK    3  A    between atoms: O_3  and  C_19
REMARK    4  A    between atoms: O_3  and  C_21
REMARK    5  A    between atoms: C_18  and  C_20
REMARK    6  A    between atoms: C_22  and  C_28
REMARK    7  A    between atoms: C_23  and  C_27
REMARK    8  A    between atoms: C_33  and  C_39
REMARK                            x       y       z     vdW  Elec       q    Type
REMARK                         _______ _______ _______ _____ _____    ______ ____
ROOT
ATOM      1  O   UNL     1     111.072 129.474 137.890  0.00  0.00    +0.000 OA
ENDROOT
BRANCH   1   6
ATOM      2  O   UNL     1     109.113 129.812 138.791  0.00  0.00    +0.000 OA
ATOM      3  O   UNL     1     111.500 130.225 139.295  0.00  0.00    +0.000 OA
ATOM      4  O   UNL     1     111.157 130.848 140.551  0.00  0.00    +0.000 OA
ATOM      5  O   UNL     1     108.344 131.057 141.309  0.00  0.00    +0.000 OA
ATOM      6  C   UNL     1     110.490 129.712 138.424  0.00  0.00    +0.000 A 
ATOM      7  C   UNL     1     109.694 129.574 138.256  0.00  0.00    +0.000 A 
ATOM      8  C   UNL     1     110.705 130.087 139.127  0.00  0.00    +0.000 A 
ATOM      9  C   UNL     1     110.123 130.324 139.661  0.00  0.00    +0.000 A 
ATOM     10  C   UNL     1     109.327 130.187 139.494  0.00  0.00    +0.000 A 
ATOM     11  C   UNL     1     110.359 130.714 140.391  0.00  0.00    +0.000 A 
ATOM     12  C   UNL     1     108.712 130.429 140.042  0.00  0.00    +0.000 A 
ATOM     13  C   UNL     1     109.757 130.964 140.951  0.00  0.00    +0.000 A 
ATOM     14  C   UNL     1     108.928 130.821 140.776  0.00  0.00    +0.000 A 
BRANCH   7  17
ATOM     15  O   UNL     1     108.650 129.705 135.598  0.00  0.00    +0.000 OA
ATOM     16  O   UNL     1     108.836 128.073 135.445  0.00  0.00    +0.000 OA
ATOM     17  C   UNL     1     109.480 129.199 137.554  0.00  0.00    +0.000 A 
ATOM     18  C   UNL     1     109.172 129.640 136.927  0.00  0.00    +0.000 A 
ATOM     19  C   UNL     1     109.573 128.383 137.477  0.00  0.00    +0.000 A 
ATOM     20  C   UNL     1     108.958 129.265 136.225  0.00  0.00    +0.000 A 
ATOM     21  C   UNL     1     109.358 128.007 136.774  0.00  0.00    +0.000 A 
ATOM     22  C   UNL     1     109.051 128.449 136.148  0.00  0.00    +0.000 A 
ENDBRANCH   7  17
ENDBRANCH   1   6
BRANCH   1  30
ATOM     23  O   UNL     1     111.368 130.799 137.442  0.00  0.00    +0.000 OA
ATOM     24  O   UNL     1     113.712 130.129 137.014  0.00  0.00    +0.000 OA
ATOM     25  O   UNL     1     113.227 131.676 136.709  0.00  0.00    +0.000 OA
ATOM     26  C   UNL     1     112.931 130.352 137.157  0.00  0.00    +0.000 C 
ATOM     27  C   UNL     1     112.689 131.126 137.004  0.00  0.00    +0.000 C 
ATOM     28  C   UNL     1     112.392 129.801 137.452  0.00  0.00    +0.000 C 
ATOM     29  C   UNL     1     111.907 131.349 137.147  0.00  0.00    +0.000 C 
ATOM     30  C   UNL     1     111.611 130.024 137.595  0.00  0.00    +0.000 C 
BRANCH  29  32
ATOM     31  O   UNL     1     110.953 132.260 136.599  0.00  0.00    +0.000 OA
ATOM     32  C   UNL     1     111.664 132.122 136.995  0.00  0.00    +0.000 C 
ENDBRANCH  29  32
BRANCH  28  33
ATOM     33  O   UNL     1     112.634 129.028 137.604  0.00  0.00    +0.000 OA
BRANCH  33  35
ATOM     34  O   UNL     1     112.621 128.708 136.211  0.00  0.00    +0.000 OA
ATOM     35  C   UNL     1     112.863 128.537 136.981  0.00  0.00    +0.000 C 
BRANCH  35  36
ATOM     36  C   UNL     1     113.333 127.875 137.129  0.00  0.00    +0.000 C 
ATOM     37  C   UNL     1     113.090 127.130 136.871  0.00  0.00    +0.000 C 
BRANCH  37  39
ATOM     38  O   UNL     1     114.972 124.484 137.460  0.00  0.00    +0.000 OA
ATOM     39  C   UNL     1     113.560 126.469 137.019  0.00  0.00    +0.000 A 
ATOM     40  C   UNL     1     113.529 126.095 137.754  0.00  0.00    +0.000 A 
ATOM     41  C   UNL     1     114.062 126.181 136.431  0.00  0.00    +0.000 A 
ATOM     42  C   UNL     1     113.999 125.434 137.901  0.00  0.00    +0.000 A 
ATOM     43  C   UNL     1     114.533 125.519 136.578  0.00  0.00    +0.000 A 
ATOM     44  C   UNL     1     114.501 125.146 137.313  0.00  0.00    +0.000 A 
ENDBRANCH  37  39
ENDBRANCH  35  36
ENDBRANCH  33  35
ENDBRANCH  28  33
ENDBRANCH   1  30
TORSDOF 8
ENDMDL
MODEL 8
REMARK VINA RESULT:      -9.5      1.171      2.942
REMARK  Name = 44259191
REMARK  8 active torsions:
REMARK  status: ('A' for Active; 'I' for Inactive)
REMARK    1  A    between atoms: O_2  and  C_17
REMARK    2  A    between atoms: O_2  and  C_22
REMARK    3  A    between atoms: O_3  and  C_19
REMARK    4  A    between atoms: O_3  and  C_21
REMARK    5  A    between atoms: C_18  and  C_20
REMARK    6  A    between atoms: C_22  and  C_28
REMARK    7  A    between atoms: C_23  and  C_27
REMARK    8  A    between atoms: C_33  and  C_39
REMARK                            x       y       z     vdW  Elec       q    Type
REMARK                         _______ _______ _______ _____ _____    ______ ____
ROOT
ATOM      1  O   UNL     1     112.654 129.497 138.085  0.00  0.00    +0.000 OA
ENDROOT
BRANCH   1   6
ATOM      2  O   UNL     1     114.428 130.605 138.707  0.00  0.00    +0.000 OA
ATOM      3  O   UNL     1     112.484 129.461 139.726  0.00  0.00    +0.000 OA
ATOM      4  O   UNL     1     112.945 129.796 141.051  0.00  0.00    +0.000 OA
ATOM      5  O   UNL     1     115.420 131.318 141.352  0.00  0.00    +0.000 OA
ATOM      6  C   UNL     1     113.217 129.861 138.566  0.00  0.00    +0.000 A 
ATOM      7  C   UNL     1     113.865 130.242 138.226  0.00  0.00    +0.000 A 
ATOM      8  C   UNL     1     113.132 129.842 139.386  0.00  0.00    +0.000 A 
ATOM      9  C   UNL     1     113.696 130.206 139.867  0.00  0.00    +0.000 A 
ATOM     10  C   UNL     1     114.344 130.587 139.528  0.00  0.00    +0.000 A 
ATOM     11  C   UNL     1     113.596 130.180 140.721  0.00  0.00    +0.000 A 
ATOM     12  C   UNL     1     114.937 130.969 140.018  0.00  0.00    +0.000 A 
ATOM     13  C   UNL     1     114.180 130.557 141.226  0.00  0.00    +0.000 A 
ATOM     14  C   UNL     1     114.855 130.954 140.873  0.00  0.00    +0.000 A 
BRANCH   7  17
ATOM     15  O   UNL     1     114.558 128.938 135.779  0.00  0.00    +0.000 OA
ATOM     16  O   UNL     1     114.205 130.316 134.944  0.00  0.00    +0.000 OA
ATOM     17  C   UNL     1     113.950 130.260 137.406  0.00  0.00    +0.000 A 
ATOM     18  C   UNL     1     114.212 129.590 137.003  0.00  0.00    +0.000 A 
ATOM     19  C   UNL     1     113.773 130.950 136.989  0.00  0.00    +0.000 A 
ATOM     20  C   UNL     1     114.297 129.608 136.183  0.00  0.00    +0.000 A 
ATOM     21  C   UNL     1     113.858 130.968 136.168  0.00  0.00    +0.000 A 
ATOM     22  C   UNL     1     114.120 130.297 135.765  0.00  0.00    +0.000 A 
ENDBRANCH   7  17
ENDBRANCH   1   6
BRANCH   1  30
ATOM     23  O   UNL     1     111.655 130.500 138.281  0.00  0.00    +0.000 OA
ATOM     24  O   UNL     1     109.887 128.785 138.048  0.00  0.00    +0.000 OA
ATOM     25  O   UNL     1     109.478 130.359 138.322  0.00  0.00    +0.000 OA
ATOM     26  C   UNL     1     110.476 129.356 138.126  0.00  0.00    +0.000 C 
ATOM     27  C   UNL     1     110.272 130.143 138.263  0.00  0.00    +0.000 C 
ATOM     28  C   UNL     1     111.270 129.140 138.066  0.00  0.00    +0.000 C 
ATOM     29  C   UNL     1     110.861 130.715 138.340  0.00  0.00    +0.000 C 
ATOM     30  C   UNL     1     111.860 129.712 138.144  0.00  0.00    +0.000 C 
BRANCH  29  32
ATOM     31  O   UNL     1     110.925 132.093 137.965  0.00  0.00    +0.000 OA
ATOM     32  C   UNL     1     110.657 131.503 138.477  0.00  0.00    +0.000 C 
ENDBRANCH  29  32
BRANCH  28  33
ATOM     33  O   UNL     1     111.475 128.353 137.930  0.00  0.00    +0.000 OA
BRANCH  33  35
ATOM     34  O   UNL     1     111.111 128.473 136.553  0.00  0.00    +0.000 OA
ATOM     35  C   UNL     1     111.302 128.003 137.203  0.00  0.00    +0.000 C 
BRANCH  35  36
ATOM     36  C   UNL     1     111.320 127.181 137.127  0.00  0.00    +0.000 C 
ATOM     37  C   UNL     1     111.747 126.833 136.513  0.00  0.00    +0.000 C 
BRANCH  37  39
ATOM     38  O   UNL     1     111.818 123.547 136.208  0.00  0.00    +0.000 OA
ATOM     39  C   UNL     1     111.764 126.012 136.436  0.00  0.00    +0.000 A 
ATOM     40  C   UNL     1     111.135 125.617 136.077  0.00  0.00    +0.000 A 
ATOM     41  C   UNL     1     112.411 125.585 136.720  0.00  0.00    +0.000 A 
ATOM     42  C   UNL     1     111.153 124.796 136.001  0.00  0.00    +0.000 A 
ATOM     43  C   UNL     1     112.429 124.763 136.644  0.00  0.00    +0.000 A 
ATOM     44  C   UNL     1     111.800 124.369 136.284  0.00  0.00    +0.000 A 
ENDBRANCH  37  39
ENDBRANCH  35  36
ENDBRANCH  33  35
ENDBRANCH  28  33
ENDBRANCH   1  30
TORSDOF 8
ENDMDL
MODEL 9
REMARK VINA RESULT:      -9.5      1.804      5.331
REMARK  Name = 44259191
REMARK  8 active torsions:
REMARK  status: ('A' for Active; 'I' for Inactive)
REMARK    1  A    between atoms: O_2  and  C_17
REMARK    2  A    between atoms: O_2  and  C_22
REMARK    3  A    between atoms: O_3  and  C_19
REMARK    4  A    between atoms: O_3  and  C_21
REMARK    5  A    between atoms: C_18  and  C_20
REMARK    6  A    between atoms: C_22  and  C_28
REMARK    7  A    between atoms: C_23  and  C_27
REMARK    8  A    between atoms: C_33  and  C_39
REMARK                            x       y       z     vdW  Elec       q    Type
REMARK                         _______ _______ _______ _____ _____    ______ ____
ROOT
ATOM      1  O   UNL     1     112.016 127.838 137.653  0.00  0.00    +0.000 OA
ENDROOT
BRANCH   1   6
ATOM      2  O   UNL     1     112.572 126.260 136.252  0.00  0.00    +0.000 OA
ATOM      3  O   UNL     1     111.405 126.512 138.421  0.00  0.00    +0.000 OA
ATOM      4  O   UNL     1     111.167 125.090 138.491  0.00  0.00    +0.000 OA
ATOM      5  O   UNL     1     112.129 123.382 136.326  0.00  0.00    +0.000 OA
ATOM      6  C   UNL     1     112.099 127.091 137.314  0.00  0.00    +0.000 A 
ATOM      7  C   UNL     1     112.488 127.008 136.591  0.00  0.00    +0.000 A 
ATOM      8  C   UNL     1     111.794 126.428 137.698  0.00  0.00    +0.000 A 
ATOM      9  C   UNL     1     111.877 125.681 137.359  0.00  0.00    +0.000 A 
ATOM     10  C   UNL     1     112.266 125.596 136.636  0.00  0.00    +0.000 A 
ATOM     11  C   UNL     1     111.555 124.997 137.768  0.00  0.00    +0.000 A 
ATOM     12  C   UNL     1     112.360 124.823 136.273  0.00  0.00    +0.000 A 
ATOM     13  C   UNL     1     111.639 124.216 137.420  0.00  0.00    +0.000 A 
ATOM     14  C   UNL     1     112.044 124.128 136.667  0.00  0.00    +0.000 A 
BRANCH   7  17
ATOM     15  O   UNL     1     112.241 129.056 134.614  0.00  0.00    +0.000 OA
ATOM     16  O   UNL     1     113.711 129.661 135.056  0.00  0.00    +0.000 OA
ATOM     17  C   UNL     1     112.793 127.670 136.208  0.00  0.00    +0.000 A 
ATOM     18  C   UNL     1     112.364 128.032 135.603  0.00  0.00    +0.000 A 
ATOM     19  C   UNL     1     113.528 127.973 136.429  0.00  0.00    +0.000 A 
ATOM     20  C   UNL     1     112.670 128.694 135.219  0.00  0.00    +0.000 A 
ATOM     21  C   UNL     1     113.834 128.636 136.045  0.00  0.00    +0.000 A 
ATOM     22  C   UNL     1     113.405 128.997 135.440  0.00  0.00    +0.000 A 
ENDBRANCH   7  17
ENDBRANCH   1   6
BRANCH   1  30
ATOM     23  O   UNL     1     110.627 127.948 137.332  0.00  0.00    +0.000 OA
ATOM     24  O   UNL     1     110.281 129.383 139.319  0.00  0.00    +0.000 OA
ATOM     25  O   UNL     1     109.010 129.015 138.336  0.00  0.00    +0.000 OA
ATOM     26  C   UNL     1     110.397 128.905 138.657  0.00  0.00    +0.000 C 
ATOM     27  C   UNL     1     109.761 128.721 138.166  0.00  0.00    +0.000 C 
ATOM     28  C   UNL     1     111.149 128.611 138.487  0.00  0.00    +0.000 C 
ATOM     29  C   UNL     1     109.876 128.243 137.503  0.00  0.00    +0.000 C 
ATOM     30  C   UNL     1     111.264 128.133 137.824  0.00  0.00    +0.000 C 
BRANCH  29  32
ATOM     31  O   UNL     1     109.230 128.331 136.232  0.00  0.00    +0.000 OA
ATOM     32  C   UNL     1     109.240 128.058 137.011  0.00  0.00    +0.000 C 
ENDBRANCH  29  32
BRANCH  28  33
ATOM     33  O   UNL     1     111.785 128.795 138.978  0.00  0.00    +0.000 OA
BRANCH  33  35
ATOM     34  O   UNL     1     111.786 130.133 138.478  0.00  0.00    +0.000 OA
ATOM     35  C   UNL     1     112.088 129.562 138.991  0.00  0.00    +0.000 C 
BRANCH  35  36
ATOM     36  C   UNL     1     112.692 129.759 139.517  0.00  0.00    +0.000 C 
ATOM     37  C   UNL     1     113.247 130.334 139.312  0.00  0.00    +0.000 C 
BRANCH  37  39
ATOM     38  O   UNL     1     115.664 131.118 141.418  0.00  0.00    +0.000 OA
ATOM     39  C   UNL     1     113.851 130.530 139.838  0.00  0.00    +0.000 A 
ATOM     40  C   UNL     1     114.625 130.614 139.566  0.00  0.00    +0.000 A 
ATOM     41  C   UNL     1     113.681 130.642 140.638  0.00  0.00    +0.000 A 
ATOM     42  C   UNL     1     115.229 130.810 140.092  0.00  0.00    +0.000 A 
ATOM     43  C   UNL     1     114.286 130.838 141.165  0.00  0.00    +0.000 A 
ATOM     44  C   UNL     1     115.059 130.922 140.891  0.00  0.00    +0.000 A 
ENDBRANCH  37  39
ENDBRANCH  35  36
ENDBRANCH  33  35
ENDBRANCH  28  33
ENDBRANCH   1  30
TORSDOF 8
ENDMDL
MODEL 10
REMARK VINA RESULT:      -9.5      1.887      5.071
REMARK  Name = 44259191
REMARK  8 active torsions:
REMARK  status: ('A' for Active; 'I' for Inactive)
REMARK    1  A    between atoms: O_2  and  C_17
REMARK    2  A    between atoms: O_2  and  C_22
REMARK    3  A    between atoms: O_3  and  C_19
REMARK    4  A    between atoms: O_3  and  C_21
REMARK    5  A    between atoms: C_18  and  C_20
REMARK    6  A    between atoms: C_22  and  C_28
REMARK    7  A    between atoms: C_23  and  C_27
REMARK    8  A    between atoms: C_33  and  C_39
REMARK                            x       y       z     vdW  Elec       q    Type
REMARK                         _______ _______ _______ _____ _____    ______ ____
ROOT
ATOM      1  O   UNL     1     111.459 128.289 137.056  0.00  0.00    +0.000 OA
ENDROOT
BRANCH   1   6
ATOM      2  O   UNL     1     112.489 126.599 136.137  0.00  0.00    +0.000 OA
ATOM      3  O   UNL     1     110.742 127.025 137.838  0.00  0.00    +0.000 OA
ATOM      4  O   UNL     1     110.587 125.610 138.075  0.00  0.00    +0.000 OA
ATOM      5  O   UNL     1     112.229 123.728 136.561  0.00  0.00    +0.000 OA
ATOM      6  C   UNL     1     111.683 127.515 136.880  0.00  0.00    +0.000 A 
ATOM      7  C   UNL     1     112.265 127.373 136.313  0.00  0.00    +0.000 A 
ATOM      8  C   UNL     1     111.325 126.883 137.271  0.00  0.00    +0.000 A 
ATOM      9  C   UNL     1     111.548 126.109 137.095  0.00  0.00    +0.000 A 
ATOM     10  C   UNL     1     112.130 125.966 136.528  0.00  0.00    +0.000 A 
ATOM     11  C   UNL     1     111.168 125.458 137.509  0.00  0.00    +0.000 A 
ATOM     12  C   UNL     1     112.373 125.165 136.335  0.00  0.00    +0.000 A 
ATOM     13  C   UNL     1     111.397 124.650 137.329  0.00  0.00    +0.000 A 
ATOM     14  C   UNL     1     112.003 124.502 136.739  0.00  0.00    +0.000 A 
BRANCH   7  17
ATOM     15  O   UNL     1     114.475 129.157 135.999  0.00  0.00    +0.000 OA
ATOM     16  O   UNL     1     113.698 129.901 134.748  0.00  0.00    +0.000 OA
ATOM     17  C   UNL     1     112.623 128.004 135.922  0.00  0.00    +0.000 A 
ATOM     18  C   UNL     1     113.370 128.265 136.156  0.00  0.00    +0.000 A 
ATOM     19  C   UNL     1     112.234 128.376 135.296  0.00  0.00    +0.000 A 
ATOM     20  C   UNL     1     113.728 128.897 135.765  0.00  0.00    +0.000 A 
ATOM     21  C   UNL     1     112.593 129.009 134.904  0.00  0.00    +0.000 A 
ATOM     22  C   UNL     1     113.339 129.268 135.139  0.00  0.00    +0.000 A 
ENDBRANCH   7  17
ENDBRANCH   1   6
BRANCH   1  30
ATOM     23  O   UNL     1     112.112 128.311 138.327  0.00  0.00    +0.000 OA
ATOM     24  O   UNL     1     110.413 129.900 139.172  0.00  0.00    +0.000 OA
ATOM     25  O   UNL     1     111.632 129.392 140.160  0.00  0.00    +0.000 OA
ATOM     26  C   UNL     1     110.979 129.370 138.891  0.00  0.00    +0.000 C 
ATOM     27  C   UNL     1     111.589 129.116 139.385  0.00  0.00    +0.000 C 
ATOM     28  C   UNL     1     110.935 129.095 138.114  0.00  0.00    +0.000 C 
ATOM     29  C   UNL     1     112.155 128.587 139.103  0.00  0.00    +0.000 C 
ATOM     30  C   UNL     1     111.502 128.565 137.832  0.00  0.00    +0.000 C 
BRANCH  29  32
ATOM     31  O   UNL     1     113.547 128.533 139.423  0.00  0.00    +0.000 OA
ATOM     32  C   UNL     1     112.765 128.333 139.597  0.00  0.00    +0.000 C 
ENDBRANCH  29  32
BRANCH  28  33
ATOM     33  O   UNL     1     110.326 129.348 137.620  0.00  0.00    +0.000 OA
BRANCH  33  35
ATOM     34  O   UNL     1     110.952 130.628 137.502  0.00  0.00    +0.000 OA
ATOM     35  C   UNL     1     110.320 130.123 137.337  0.00  0.00    +0.000 C 
BRANCH  35  36
ATOM     36  C   UNL     1     109.682 130.394 136.889  0.00  0.00    +0.000 C 
ATOM     37  C   UNL     1     109.770 131.055 136.403  0.00  0.00    +0.000 C 
BRANCH  37  39
ATOM     38  O   UNL     1     107.218 132.138 134.612  0.00  0.00    +0.000 OA
ATOM     39  C   UNL     1     109.133 131.326 135.955  0.00  0.00    +0.000 A 
ATOM     40  C   UNL     1     109.190 131.358 135.133  0.00  0.00    +0.000 A 
ATOM     41  C   UNL     1     108.438 131.564 136.330  0.00  0.00    +0.000 A 
ATOM     42  C   UNL     1     108.552 131.629 134.685  0.00  0.00    +0.000 A 
ATOM     43  C   UNL     1     107.799 131.835 135.882  0.00  0.00    +0.000 A 
ATOM     44  C   UNL     1     107.857 131.867 135.060  0.00  0.00    +0.000 A 
ENDBRANCH  37  39
ENDBRANCH  35  36
ENDBRANCH  33  35
ENDBRANCH  28  33
ENDBRANCH   1  30
TORSDOF 8
ENDMDL
