MODEL 1
REMARK VINA RESULT:     -10.6      0.000      0.000
REMARK  Name = 74977693
REMARK  5 active torsions:
REMARK  status: ('A' for Active; 'I' for Inactive)
REMARK    1  A    between atoms: O_1  and  C_15
REMARK    2  A    between atoms: O_1  and  C_16
REMARK    3  A    between atoms: O_13  and  C_39
REMARK    4  A    between atoms: C_19  and  C_25
REMARK    5  A    between atoms: C_35  and  C_36
REMARK                            x       y       z     vdW  Elec       q    Type
REMARK                         _______ _______ _______ _____ _____    ______ ____
ROOT
ATOM      1  O   UNL     1     106.417 128.135 144.661  0.00  0.00    +0.000 OA
ATOM      2  O   UNL     1     105.419 125.786 143.373  0.00  0.00    +0.000 OA
ATOM      3  O   UNL     1     106.493 125.591 146.039  0.00  0.00    +0.000 OA
ATOM      4  O   UNL     1     106.963 128.078 145.995  0.00  0.00    +0.000 OA
ATOM      5  C   UNL     1     105.918 126.960 144.017  0.00  0.00    +0.000 A 
ATOM      6  C   UNL     1     106.263 127.324 144.672  0.00  0.00    +0.000 A 
ATOM      7  C   UNL     1     105.764 126.150 144.029  0.00  0.00    +0.000 A 
ATOM      8  C   UNL     1     106.454 126.877 145.340  0.00  0.00    +0.000 A 
ATOM      9  C   UNL     1     105.954 125.703 144.695  0.00  0.00    +0.000 A 
ATOM     10  C   UNL     1     106.299 126.067 145.351  0.00  0.00    +0.000 A 
ATOM     11  C   UNL     1     106.812 127.268 146.015  0.00  0.00    +0.000 A 
ATOM     12  C   UNL     1     107.013 126.807 146.713  0.00  0.00    +0.000 A 
ATOM     13  C   UNL     1     106.853 125.964 146.725  0.00  0.00    +0.000 A 
ENDROOT
BRANCH   5  18
ATOM     14  O   UNL     1     105.060 127.893 143.356  0.00  0.00    +0.000 OA
ATOM     15  O   UNL     1     106.488 127.775 141.338  0.00  0.00    +0.000 OA
ATOM     16  O   UNL     1     105.155 128.747 141.350  0.00  0.00    +0.000 OA
ATOM     17  C   UNL     1     106.203 127.367 142.678  0.00  0.00    +0.000 C 
ATOM     18  C   UNL     1     105.727 127.407 143.350  0.00  0.00    +0.000 C 
ATOM     19  C   UNL     1     106.012 127.815 142.010  0.00  0.00    +0.000 C 
ATOM     20  C   UNL     1     104.870 128.340 142.690  0.00  0.00    +0.000 C 
ATOM     21  C   UNL     1     105.346 128.301 142.016  0.00  0.00    +0.000 C 
ATOM     22  C   UNL     1     104.204 128.826 142.695  0.00  0.00    +0.000 C 
BRANCH  17  23
ATOM     23  O   UNL     1     106.870 126.881 142.672  0.00  0.00    +0.000 OA
BRANCH  23  28
ATOM     24  O   UNL     1     107.823 127.946 142.641  0.00  0.00    +0.000 OA
ATOM     25  O   UNL     1     107.874 125.955 141.747  0.00  0.00    +0.000 OA
ATOM     26  O   UNL     1     109.329 126.557 141.253  0.00  0.00    +0.000 OA
ATOM     27  O   UNL     1     109.780 128.084 141.684  0.00  0.00    +0.000 OA
ATOM     28  C   UNL     1     107.597 127.183 142.425  0.00  0.00    +0.000 C 
ATOM     29  C   UNL     1     108.099 126.720 141.963  0.00  0.00    +0.000 C 
ATOM     30  C   UNL     1     108.827 127.020 141.715  0.00  0.00    +0.000 C 
ATOM     31  C   UNL     1     109.052 127.783 141.932  0.00  0.00    +0.000 C 
ATOM     32  C   UNL     1     108.549 128.246 142.394  0.00  0.00    +0.000 C 
ATOM     33  C   UNL     1     108.775 129.010 142.610  0.00  0.00    +0.000 C 
ENDBRANCH  23  28
ENDBRANCH  17  23
ENDBRANCH   5  18
BRANCH  13  35
ATOM     34  O   UNL     1     107.614 124.168 149.387  0.00  0.00    +0.000 OA
ATOM     35  C   UNL     1     107.043 125.515 147.391  0.00  0.00    +0.000 A 
ATOM     36  C   UNL     1     106.444 125.236 147.885  0.00  0.00    +0.000 A 
ATOM     37  C   UNL     1     107.832 125.344 147.562  0.00  0.00    +0.000 A 
ATOM     38  C   UNL     1     106.635 124.787 148.551  0.00  0.00    +0.000 A 
ATOM     39  C   UNL     1     108.022 124.895 148.227  0.00  0.00    +0.000 A 
ATOM     40  C   UNL     1     107.424 124.617 148.721  0.00  0.00    +0.000 A 
BRANCH  38  41
ATOM     41  O   UNL     1     106.036 124.509 149.045  0.00  0.00    +0.000 OA
ATOM     42  C   UNL     1     105.355 124.959 149.162  0.00  0.00    +0.000 C 
ENDBRANCH  38  41
ENDBRANCH  13  35
TORSDOF 5
ENDMDL
MODEL 2
REMARK VINA RESULT:     -10.5      7.036      9.103
REMARK  Name = 74977693
REMARK  5 active torsions:
REMARK  status: ('A' for Active; 'I' for Inactive)
REMARK    1  A    between atoms: O_1  and  C_15
REMARK    2  A    between atoms: O_1  and  C_16
REMARK    3  A    between atoms: O_13  and  C_39
REMARK    4  A    between atoms: C_19  and  C_25
REMARK    5  A    between atoms: C_35  and  C_36
REMARK                            x       y       z     vdW  Elec       q    Type
REMARK                         _______ _______ _______ _____ _____    ______ ____
ROOT
ATOM      1  O   UNL     1     113.341 126.019 139.417  0.00  0.00    +0.000 OA
ATOM      2  O   UNL     1     112.816 127.448 136.998  0.00  0.00    +0.000 OA
ATOM      3  O   UNL     1     113.632 128.898 139.350  0.00  0.00    +0.000 OA
ATOM      4  O   UNL     1     113.751 126.709 140.616  0.00  0.00    +0.000 OA
ATOM      5  C   UNL     1     113.078 126.734 138.208  0.00  0.00    +0.000 A 
ATOM      6  C   UNL     1     113.301 126.731 139.002  0.00  0.00    +0.000 A 
ATOM      7  C   UNL     1     113.039 127.446 137.793  0.00  0.00    +0.000 A 
ATOM      8  C   UNL     1     113.484 127.441 139.381  0.00  0.00    +0.000 A 
ATOM      9  C   UNL     1     113.222 128.155 138.172  0.00  0.00    +0.000 A 
ATOM     10  C   UNL     1     113.444 128.153 138.966  0.00  0.00    +0.000 A 
ATOM     11  C   UNL     1     113.714 127.424 140.209  0.00  0.00    +0.000 A 
ATOM     12  C   UNL     1     113.906 128.161 140.610  0.00  0.00    +0.000 A 
ATOM     13  C   UNL     1     113.865 128.902 140.178  0.00  0.00    +0.000 A 
ENDROOT
BRANCH   5  18
ATOM     14  O   UNL     1     113.456 125.658 137.346  0.00  0.00    +0.000 OA
ATOM     15  O   UNL     1     111.226 124.629 137.656  0.00  0.00    +0.000 OA
ATOM     16  O   UNL     1     112.346 123.896 136.691  0.00  0.00    +0.000 OA
ATOM     17  C   UNL     1     112.152 125.682 137.932  0.00  0.00    +0.000 C 
ATOM     18  C   UNL     1     112.895 126.024 137.828  0.00  0.00    +0.000 C 
ATOM     19  C   UNL     1     111.969 124.972 137.552  0.00  0.00    +0.000 C 
ATOM     20  C   UNL     1     113.273 124.949 136.967  0.00  0.00    +0.000 C 
ATOM     21  C   UNL     1     112.529 124.605 137.070  0.00  0.00    +0.000 C 
ATOM     22  C   UNL     1     113.833 124.583 136.484  0.00  0.00    +0.000 C 
BRANCH  17  23
ATOM     23  O   UNL     1     111.592 126.048 138.414  0.00  0.00    +0.000 OA
BRANCH  23  28
ATOM     24  O   UNL     1     110.724 126.382 137.330  0.00  0.00    +0.000 OA
ATOM     25  O   UNL     1     110.295 125.973 139.431  0.00  0.00    +0.000 OA
ATOM     26  O   UNL     1     108.777 126.270 138.854  0.00  0.00    +0.000 OA
ATOM     27  O   UNL     1     108.557 126.641 137.262  0.00  0.00    +0.000 OA
ATOM     28  C   UNL     1     110.834 126.196 138.125  0.00  0.00    +0.000 C 
ATOM     29  C   UNL     1     110.185 126.159 138.634  0.00  0.00    +0.000 C 
ATOM     30  C   UNL     1     109.426 126.307 138.346  0.00  0.00    +0.000 C 
ATOM     31  C   UNL     1     109.317 126.493 137.550  0.00  0.00    +0.000 C 
ATOM     32  C   UNL     1     109.966 126.530 137.042  0.00  0.00    +0.000 C 
ATOM     33  C   UNL     1     109.855 126.716 136.245  0.00  0.00    +0.000 C 
ENDBRANCH  23  28
ENDBRANCH  17  23
ENDBRANCH   5  18
BRANCH  13  35
ATOM     34  O   UNL     1     114.595 131.745 141.685  0.00  0.00    +0.000 OA
ATOM     35  C   UNL     1     114.047 129.613 140.555  0.00  0.00    +0.000 A 
ATOM     36  C   UNL     1     113.480 129.992 141.019  0.00  0.00    +0.000 A 
ATOM     37  C   UNL     1     114.797 129.946 140.468  0.00  0.00    +0.000 A 
ATOM     38  C   UNL     1     113.663 130.703 141.396  0.00  0.00    +0.000 A 
ATOM     39  C   UNL     1     114.980 130.656 140.844  0.00  0.00    +0.000 A 
ATOM     40  C   UNL     1     114.413 131.035 141.308  0.00  0.00    +0.000 A 
BRANCH  38  41
ATOM     41  O   UNL     1     113.095 131.081 141.860  0.00  0.00    +0.000 OA
ATOM     42  C   UNL     1     112.475 130.648 142.187  0.00  0.00    +0.000 C 
ENDBRANCH  38  41
ENDBRANCH  13  35
TORSDOF 5
ENDMDL
MODEL 3
REMARK VINA RESULT:     -10.4      1.897      6.331
REMARK  Name = 74977693
REMARK  5 active torsions:
REMARK  status: ('A' for Active; 'I' for Inactive)
REMARK    1  A    between atoms: O_1  and  C_15
REMARK    2  A    between atoms: O_1  and  C_16
REMARK    3  A    between atoms: O_13  and  C_39
REMARK    4  A    between atoms: C_19  and  C_25
REMARK    5  A    between atoms: C_35  and  C_36
REMARK                            x       y       z     vdW  Elec       q    Type
REMARK                         _______ _______ _______ _____ _____    ______ ____
ROOT
ATOM      1  O   UNL     1     105.784 127.190 146.436  0.00  0.00    +0.000 OA
ATOM      2  O   UNL     1     106.320 124.950 144.745  0.00  0.00    +0.000 OA
ATOM      3  O   UNL     1     105.444 127.431 143.572  0.00  0.00    +0.000 OA
ATOM      4  O   UNL     1     105.344 128.450 145.887  0.00  0.00    +0.000 OA
ATOM      5  C   UNL     1     106.052 126.070 145.590  0.00  0.00    +0.000 A 
ATOM      6  C   UNL     1     105.818 126.855 145.683  0.00  0.00    +0.000 A 
ATOM      7  C   UNL     1     106.086 125.735 144.836  0.00  0.00    +0.000 A 
ATOM      8  C   UNL     1     105.617 127.307 145.021  0.00  0.00    +0.000 A 
ATOM      9  C   UNL     1     105.885 126.186 144.176  0.00  0.00    +0.000 A 
ATOM     10  C   UNL     1     105.650 126.972 144.268  0.00  0.00    +0.000 A 
ATOM     11  C   UNL     1     105.374 128.124 145.131  0.00  0.00    +0.000 A 
ATOM     12  C   UNL     1     105.164 128.599 144.445  0.00  0.00    +0.000 A 
ATOM     13  C   UNL     1     105.199 128.250 143.661  0.00  0.00    +0.000 A 
ENDROOT
BRANCH   5  18
ATOM     14  O   UNL     1     106.989 125.719 146.611  0.00  0.00    +0.000 OA
ATOM     15  O   UNL     1     105.383 124.067 147.515  0.00  0.00    +0.000 OA
ATOM     16  O   UNL     1     106.855 124.266 148.234  0.00  0.00    +0.000 OA
ATOM     17  C   UNL     1     105.718 125.069 146.552  0.00  0.00    +0.000 C 
ATOM     18  C   UNL     1     106.253 125.619 146.251  0.00  0.00    +0.000 C 
ATOM     19  C   UNL     1     105.919 124.617 147.214  0.00  0.00    +0.000 C 
ATOM     20  C   UNL     1     107.189 125.268 147.271  0.00  0.00    +0.000 C 
ATOM     21  C   UNL     1     106.654 124.717 147.573  0.00  0.00    +0.000 C 
ATOM     22  C   UNL     1     107.925 125.368 147.631  0.00  0.00    +0.000 C 
BRANCH  17  23
ATOM     23  O   UNL     1     104.982 124.969 146.193  0.00  0.00    +0.000 OA
BRANCH  23  28
ATOM     24  O   UNL     1     104.239 125.511 147.287  0.00  0.00    +0.000 OA
ATOM     25  O   UNL     1     103.715 123.978 145.825  0.00  0.00    +0.000 OA
ATOM     26  O   UNL     1     102.339 124.024 146.735  0.00  0.00    +0.000 OA
ATOM     27  O   UNL     1     102.231 125.062 148.013  0.00  0.00    +0.000 OA
ATOM     28  C   UNL     1     104.294 124.993 146.649  0.00  0.00    +0.000 C 
ATOM     29  C   UNL     1     103.661 124.497 146.465  0.00  0.00    +0.000 C 
ATOM     30  C   UNL     1     102.973 124.520 146.919  0.00  0.00    +0.000 C 
ATOM     31  C   UNL     1     102.919 125.039 147.558  0.00  0.00    +0.000 C 
ATOM     32  C   UNL     1     103.552 125.534 147.742  0.00  0.00    +0.000 C 
ATOM     33  C   UNL     1     103.497 126.053 148.381  0.00  0.00    +0.000 C 
ENDBRANCH  23  28
ENDBRANCH  17  23
ENDBRANCH   5  18
BRANCH  13  35
ATOM     34  O   UNL     1     104.396 130.045 141.011  0.00  0.00    +0.000 OA
ATOM     35  C   UNL     1     104.998 128.699 142.998  0.00  0.00    +0.000 A 
ATOM     36  C   UNL     1     105.590 128.981 142.497  0.00  0.00    +0.000 A 
ATOM     37  C   UNL     1     104.207 128.866 142.837  0.00  0.00    +0.000 A 
ATOM     38  C   UNL     1     105.389 129.430 141.834  0.00  0.00    +0.000 A 
ATOM     39  C   UNL     1     104.006 129.314 142.175  0.00  0.00    +0.000 A 
ATOM     40  C   UNL     1     104.597 129.596 141.674  0.00  0.00    +0.000 A 
BRANCH  38  41
ATOM     41  O   UNL     1     105.980 129.712 141.333  0.00  0.00    +0.000 OA
ATOM     42  C   UNL     1     106.706 129.947 141.644  0.00  0.00    +0.000 C 
ENDBRANCH  38  41
ENDBRANCH  13  35
TORSDOF 5
ENDMDL
MODEL 4
REMARK VINA RESULT:     -10.4      5.626      9.130
REMARK  Name = 74977693
REMARK  5 active torsions:
REMARK  status: ('A' for Active; 'I' for Inactive)
REMARK    1  A    between atoms: O_1  and  C_15
REMARK    2  A    between atoms: O_1  and  C_16
REMARK    3  A    between atoms: O_13  and  C_39
REMARK    4  A    between atoms: C_19  and  C_25
REMARK    5  A    between atoms: C_35  and  C_36
REMARK                            x       y       z     vdW  Elec       q    Type
REMARK                         _______ _______ _______ _____ _____    ______ ____
ROOT
ATOM      1  O   UNL     1     112.726 129.108 139.095  0.00  0.00    +0.000 OA
ATOM      2  O   UNL     1     114.250 127.712 141.068  0.00  0.00    +0.000 OA
ATOM      3  O   UNL     1     113.069 126.242 138.890  0.00  0.00    +0.000 OA
ATOM      4  O   UNL     1     112.118 128.408 137.989  0.00  0.00    +0.000 OA
ATOM      5  C   UNL     1     113.488 128.409 140.082  0.00  0.00    +0.000 A 
ATOM      6  C   UNL     1     113.037 128.404 139.391  0.00  0.00    +0.000 A 
ATOM      7  C   UNL     1     113.799 127.705 140.377  0.00  0.00    +0.000 A 
ATOM      8  C   UNL     1     112.897 127.692 138.996  0.00  0.00    +0.000 A 
ATOM      9  C   UNL     1     113.659 126.995 139.983  0.00  0.00    +0.000 A 
ATOM     10  C   UNL     1     113.208 126.988 139.292  0.00  0.00    +0.000 A 
ATOM     11  C   UNL     1     112.425 127.700 138.278  0.00  0.00    +0.000 A 
ATOM     12  C   UNL     1     112.276 126.962 137.862  0.00  0.00    +0.000 A 
ATOM     13  C   UNL     1     112.600 126.228 138.170  0.00  0.00    +0.000 A 
ENDROOT
BRANCH   5  18
ATOM     14  O   UNL     1     114.200 129.644 140.194  0.00  0.00    +0.000 OA
ATOM     15  O   UNL     1     112.904 130.206 142.226  0.00  0.00    +0.000 OA
ATOM     16  O   UNL     1     114.047 131.252 141.661  0.00  0.00    +0.000 OA
ATOM     17  C   UNL     1     113.196 129.308 141.154  0.00  0.00    +0.000 C 
ATOM     18  C   UNL     1     113.628 129.121 140.477  0.00  0.00    +0.000 C 
ATOM     19  C   UNL     1     113.336 130.019 141.549  0.00  0.00    +0.000 C 
ATOM     20  C   UNL     1     114.340 130.354 140.589  0.00  0.00    +0.000 C 
ATOM     21  C   UNL     1     113.908 130.542 141.267  0.00  0.00    +0.000 C 
ATOM     22  C   UNL     1     114.911 130.877 140.306  0.00  0.00    +0.000 C 
BRANCH  17  23
ATOM     23  O   UNL     1     112.624 128.784 141.437  0.00  0.00    +0.000 OA
BRANCH  23  28
ATOM     24  O   UNL     1     111.516 129.636 141.138  0.00  0.00    +0.000 OA
ATOM     25  O   UNL     1     111.806 128.173 142.732  0.00  0.00    +0.000 OA
ATOM     26  O   UNL     1     110.288 128.720 143.082  0.00  0.00    +0.000 OA
ATOM     27  O   UNL     1     109.590 129.877 142.136  0.00  0.00    +0.000 OA
ATOM     28  C   UNL     1     111.865 129.058 141.611  0.00  0.00    +0.000 C 
ATOM     29  C   UNL     1     111.456 128.752 142.259  0.00  0.00    +0.000 C 
ATOM     30  C   UNL     1     110.698 129.025 142.434  0.00  0.00    +0.000 C 
ATOM     31  C   UNL     1     110.349 129.604 141.961  0.00  0.00    +0.000 C 
ATOM     32  C   UNL     1     110.758 129.909 141.313  0.00  0.00    +0.000 C 
ATOM     33  C   UNL     1     110.408 130.488 140.840  0.00  0.00    +0.000 C 
ENDBRANCH  23  28
ENDBRANCH  17  23
ENDBRANCH   5  18
BRANCH  13  35
ATOM     34  O   UNL     1     112.045 123.380 136.599  0.00  0.00    +0.000 OA
ATOM     35  C   UNL     1     112.461 125.516 137.777  0.00  0.00    +0.000 A 
ATOM     36  C   UNL     1     113.040 125.199 137.282  0.00  0.00    +0.000 A 
ATOM     37  C   UNL     1     111.744 125.122 137.878  0.00  0.00    +0.000 A 
ATOM     38  C   UNL     1     112.901 124.486 136.890  0.00  0.00    +0.000 A 
ATOM     39  C   UNL     1     111.605 124.411 137.486  0.00  0.00    +0.000 A 
ATOM     40  C   UNL     1     112.183 124.092 136.992  0.00  0.00    +0.000 A 
BRANCH  38  41
ATOM     41  O   UNL     1     113.480 124.168 136.395  0.00  0.00    +0.000 OA
ATOM     42  C   UNL     1     114.194 124.566 136.289  0.00  0.00    +0.000 C 
ENDBRANCH  38  41
ENDBRANCH  13  35
TORSDOF 5
ENDMDL
MODEL 5
REMARK VINA RESULT:     -10.2      6.150      7.394
REMARK  Name = 74977693
REMARK  5 active torsions:
REMARK  status: ('A' for Active; 'I' for Inactive)
REMARK    1  A    between atoms: O_1  and  C_15
REMARK    2  A    between atoms: O_1  and  C_16
REMARK    3  A    between atoms: O_13  and  C_39
REMARK    4  A    between atoms: C_19  and  C_25
REMARK    5  A    between atoms: C_35  and  C_36
REMARK                            x       y       z     vdW  Elec       q    Type
REMARK                         _______ _______ _______ _____ _____    ______ ____
ROOT
ATOM      1  O   UNL     1     111.534 132.409 142.486  0.00  0.00    +0.000 OA
ATOM      2  O   UNL     1     111.016 129.663 143.085  0.00  0.00    +0.000 OA
ATOM      3  O   UNL     1     111.874 131.434 145.190  0.00  0.00    +0.000 OA
ATOM      4  O   UNL     1     111.965 133.328 143.513  0.00  0.00    +0.000 OA
ATOM      5  C   UNL     1     111.275 131.036 142.787  0.00  0.00    +0.000 A 
ATOM      6  C   UNL     1     111.503 131.790 143.031  0.00  0.00    +0.000 A 
ATOM      7  C   UNL     1     111.244 130.417 143.331  0.00  0.00    +0.000 A 
ATOM      8  C   UNL     1     111.701 131.925 143.821  0.00  0.00    +0.000 A 
ATOM      9  C   UNL     1     111.442 130.552 144.120  0.00  0.00    +0.000 A 
ATOM     10  C   UNL     1     111.670 131.306 144.366  0.00  0.00    +0.000 A 
ATOM     11  C   UNL     1     111.937 132.715 144.063  0.00  0.00    +0.000 A 
ATOM     12  C   UNL     1     112.145 132.861 144.885  0.00  0.00    +0.000 A 
ATOM     13  C   UNL     1     112.112 132.217 145.452  0.00  0.00    +0.000 A 
ENDROOT
BRANCH   5  18
ATOM     14  O   UNL     1     110.285 130.868 141.769  0.00  0.00    +0.000 OA
ATOM     15  O   UNL     1     112.070 130.564 140.082  0.00  0.00    +0.000 OA
ATOM     16  O   UNL     1     110.485 130.497 139.628  0.00  0.00    +0.000 OA
ATOM     17  C   UNL     1     111.673 130.800 141.434  0.00  0.00    +0.000 C 
ATOM     18  C   UNL     1     111.077 130.901 141.996  0.00  0.00    +0.000 C 
ATOM     19  C   UNL     1     111.475 130.665 140.644  0.00  0.00    +0.000 C 
ATOM     20  C   UNL     1     110.088 130.734 140.980  0.00  0.00    +0.000 C 
ATOM     21  C   UNL     1     110.682 130.632 140.417  0.00  0.00    +0.000 C 
ATOM     22  C   UNL     1     109.295 130.701 140.753  0.00  0.00    +0.000 C 
BRANCH  17  23
ATOM     23  O   UNL     1     112.465 130.833 141.662  0.00  0.00    +0.000 OA
BRANCH  23  28
ATOM     24  O   UNL     1     112.747 129.457 141.398  0.00  0.00    +0.000 OA
ATOM     25  O   UNL     1     113.998 131.235 141.203  0.00  0.00    +0.000 OA
ATOM     26  O   UNL     1     115.047 130.061 140.711  0.00  0.00    +0.000 OA
ATOM     27  O   UNL     1     114.563 128.484 140.677  0.00  0.00    +0.000 OA
ATOM     28  C   UNL     1     112.989 130.245 141.415  0.00  0.00    +0.000 C 
ATOM     29  C   UNL     1     113.756 130.446 141.186  0.00  0.00    +0.000 C 
ATOM     30  C   UNL     1     114.280 129.859 140.940  0.00  0.00    +0.000 C 
ATOM     31  C   UNL     1     114.038 129.071 140.923  0.00  0.00    +0.000 C 
ATOM     32  C   UNL     1     113.271 128.870 141.152  0.00  0.00    +0.000 C 
ATOM     33  C   UNL     1     113.030 128.081 141.135  0.00  0.00    +0.000 C 
ENDBRANCH  23  28
ENDBRANCH  17  23
ENDBRANCH   5  18
BRANCH  13  35
ATOM     34  O   UNL     1     112.902 132.744 148.612  0.00  0.00    +0.000 OA
ATOM     35  C   UNL     1     112.310 132.349 146.242  0.00  0.00    +0.000 A 
ATOM     36  C   UNL     1     111.812 132.800 146.722  0.00  0.00    +0.000 A 
ATOM     37  C   UNL     1     113.004 132.030 146.553  0.00  0.00    +0.000 A 
ATOM     38  C   UNL     1     112.010 132.932 147.512  0.00  0.00    +0.000 A 
ATOM     39  C   UNL     1     113.201 132.161 147.342  0.00  0.00    +0.000 A 
ATOM     40  C   UNL     1     112.705 132.612 147.822  0.00  0.00    +0.000 A 
BRANCH  38  41
ATOM     41  O   UNL     1     111.513 133.383 147.991  0.00  0.00    +0.000 OA
ATOM     42  C   UNL     1     110.699 133.375 147.863  0.00  0.00    +0.000 C 
ENDBRANCH  38  41
ENDBRANCH  13  35
TORSDOF 5
ENDMDL
MODEL 6
REMARK VINA RESULT:     -10.1      8.645     10.053
REMARK  Name = 74977693
REMARK  5 active torsions:
REMARK  status: ('A' for Active; 'I' for Inactive)
REMARK    1  A    between atoms: O_1  and  C_15
REMARK    2  A    between atoms: O_1  and  C_16
REMARK    3  A    between atoms: O_13  and  C_39
REMARK    4  A    between atoms: C_19  and  C_25
REMARK    5  A    between atoms: C_35  and  C_36
REMARK                            x       y       z     vdW  Elec       q    Type
REMARK                         _______ _______ _______ _____ _____    ______ ____
ROOT
ATOM      1  O   UNL     1     112.221 129.170 135.755  0.00  0.00    +0.000 OA
ATOM      2  O   UNL     1     111.938 129.394 138.590  0.00  0.00    +0.000 OA
ATOM      3  O   UNL     1     112.144 126.783 137.389  0.00  0.00    +0.000 OA
ATOM      4  O   UNL     1     112.327 127.881 135.115  0.00  0.00    +0.000 OA
ATOM      5  C   UNL     1     112.080 129.282 137.173  0.00  0.00    +0.000 A 
ATOM      6  C   UNL     1     112.161 128.815 136.497  0.00  0.00    +0.000 A 
ATOM      7  C   UNL     1     112.020 128.926 137.915  0.00  0.00    +0.000 A 
ATOM      8  C   UNL     1     112.183 127.993 136.564  0.00  0.00    +0.000 A 
ATOM      9  C   UNL     1     112.041 128.105 137.981  0.00  0.00    +0.000 A 
ATOM     10  C   UNL     1     112.123 127.637 137.306  0.00  0.00    +0.000 A 
ATOM     11  C   UNL     1     112.268 127.518 135.853  0.00  0.00    +0.000 A 
ATOM     12  C   UNL     1     112.291 126.661 135.917  0.00  0.00    +0.000 A 
ATOM     13  C   UNL     1     112.229 126.291 136.689  0.00  0.00    +0.000 A 
ENDROOT
BRANCH   5  18
ATOM     14  O   UNL     1     112.759 130.528 137.005  0.00  0.00    +0.000 OA
ATOM     15  O   UNL     1     110.593 131.721 137.105  0.00  0.00    +0.000 OA
ATOM     16  O   UNL     1     111.993 132.570 136.904  0.00  0.00    +0.000 OA
ATOM     17  C   UNL     1     111.336 130.501 137.139  0.00  0.00    +0.000 C 
ATOM     18  C   UNL     1     112.058 130.104 137.105  0.00  0.00    +0.000 C 
ATOM     19  C   UNL     1     111.315 131.324 137.071  0.00  0.00    +0.000 C 
ATOM     20  C   UNL     1     112.737 131.350 136.938  0.00  0.00    +0.000 C 
ATOM     21  C   UNL     1     112.015 131.748 136.971  0.00  0.00    +0.000 C 
ATOM     22  C   UNL     1     113.438 131.774 136.838  0.00  0.00    +0.000 C 
BRANCH  17  23
ATOM     23  O   UNL     1     110.636 130.077 137.239  0.00  0.00    +0.000 OA
BRANCH  23  28
ATOM     24  O   UNL     1     110.143 130.349 135.925  0.00  0.00    +0.000 OA
ATOM     25  O   UNL     1     109.088 130.022 137.808  0.00  0.00    +0.000 OA
ATOM     26  O   UNL     1     107.821 130.267 136.780  0.00  0.00    +0.000 OA
ATOM     27  O   UNL     1     108.102 130.567 135.182  0.00  0.00    +0.000 OA
ATOM     28  C   UNL     1     110.003 130.200 136.724  0.00  0.00    +0.000 C 
ATOM     29  C   UNL     1     109.229 130.172 137.009  0.00  0.00    +0.000 C 
ATOM     30  C   UNL     1     108.595 130.295 136.495  0.00  0.00    +0.000 C 
ATOM     31  C   UNL     1     108.736 130.444 135.696  0.00  0.00    +0.000 C 
ATOM     32  C   UNL     1     109.510 130.472 135.411  0.00  0.00    +0.000 C 
ATOM     33  C   UNL     1     109.650 130.621 134.612  0.00  0.00    +0.000 C 
ENDBRANCH  23  28
ENDBRANCH  17  23
ENDBRANCH   5  18
BRANCH  13  35
ATOM     34  O   UNL     1     112.312 123.004 136.968  0.00  0.00    +0.000 OA
ATOM     35  C   UNL     1     112.250 125.469 136.759  0.00  0.00    +0.000 A 
ATOM     36  C   UNL     1     112.961 125.088 136.930  0.00  0.00    +0.000 A 
ATOM     37  C   UNL     1     111.559 125.029 136.659  0.00  0.00    +0.000 A 
ATOM     38  C   UNL     1     112.982 124.265 136.999  0.00  0.00    +0.000 A 
ATOM     39  C   UNL     1     111.580 124.208 136.728  0.00  0.00    +0.000 A 
ATOM     40  C   UNL     1     112.291 123.826 136.898  0.00  0.00    +0.000 A 
BRANCH  38  41
ATOM     41  O   UNL     1     113.693 123.884 137.170  0.00  0.00    +0.000 OA
ATOM     42  C   UNL     1     114.376 124.326 137.299  0.00  0.00    +0.000 C 
ENDBRANCH  38  41
ENDBRANCH  13  35
TORSDOF 5
ENDMDL
MODEL 7
REMARK VINA RESULT:     -10.1      6.737      9.964
REMARK  Name = 74977693
REMARK  5 active torsions:
REMARK  status: ('A' for Active; 'I' for Inactive)
REMARK    1  A    between atoms: O_1  and  C_15
REMARK    2  A    between atoms: O_1  and  C_16
REMARK    3  A    between atoms: O_13  and  C_39
REMARK    4  A    between atoms: C_19  and  C_25
REMARK    5  A    between atoms: C_35  and  C_36
REMARK                            x       y       z     vdW  Elec       q    Type
REMARK                         _______ _______ _______ _____ _____    ______ ____
ROOT
ATOM      1  O   UNL     1     109.579 126.477 136.558  0.00  0.00    +0.000 OA
ATOM      2  O   UNL     1     112.336 127.226 136.518  0.00  0.00    +0.000 OA
ATOM      3  O   UNL     1     110.324 129.198 135.914  0.00  0.00    +0.000 OA
ATOM      4  O   UNL     1     108.541 127.435 136.261  0.00  0.00    +0.000 OA
ATOM      5  C   UNL     1     110.957 126.852 136.537  0.00  0.00    +0.000 A 
ATOM      6  C   UNL     1     110.162 127.049 136.445  0.00  0.00    +0.000 A 
ATOM      7  C   UNL     1     111.541 127.425 136.425  0.00  0.00    +0.000 A 
ATOM      8  C   UNL     1     109.949 127.820 136.240  0.00  0.00    +0.000 A 
ATOM      9  C   UNL     1     111.328 128.194 136.220  0.00  0.00    +0.000 A 
ATOM     10  C   UNL     1     110.533 128.393 136.128  0.00  0.00    +0.000 A 
ATOM     11  C   UNL     1     109.117 128.013 136.147  0.00  0.00    +0.000 A 
ATOM     12  C   UNL     1     108.890 128.815 135.933  0.00  0.00    +0.000 A 
ATOM     13  C   UNL     1     109.497 129.411 135.816  0.00  0.00    +0.000 A 
ENDROOT
BRANCH   5  18
ATOM     14  O   UNL     1     111.428 125.556 136.161  0.00  0.00    +0.000 OA
ATOM     15  O   UNL     1     111.290 124.821 138.520  0.00  0.00    +0.000 OA
ATOM     16  O   UNL     1     111.806 123.770 137.358  0.00  0.00    +0.000 OA
ATOM     17  C   UNL     1     111.123 125.836 137.529  0.00  0.00    +0.000 C 
ATOM     18  C   UNL     1     111.170 126.081 136.742  0.00  0.00    +0.000 C 
ATOM     19  C   UNL     1     111.336 125.065 137.734  0.00  0.00    +0.000 C 
ATOM     20  C   UNL     1     111.640 124.786 136.366  0.00  0.00    +0.000 C 
ATOM     21  C   UNL     1     111.594 124.540 137.153  0.00  0.00    +0.000 C 
ATOM     22  C   UNL     1     111.898 124.261 135.785  0.00  0.00    +0.000 C 
BRANCH  17  23
ATOM     23  O   UNL     1     110.865 126.362 138.110  0.00  0.00    +0.000 OA
BRANCH  23  28
ATOM     24  O   UNL     1     112.126 126.483 138.772  0.00  0.00    +0.000 OA
ATOM     25  O   UNL     1     110.091 126.501 139.561  0.00  0.00    +0.000 OA
ATOM     26  O   UNL     1     110.965 126.691 140.947  0.00  0.00    +0.000 OA
ATOM     27  O   UNL     1     112.613 126.742 140.884  0.00  0.00    +0.000 OA
ATOM     28  C   UNL     1     111.303 126.457 138.803  0.00  0.00    +0.000 C 
ATOM     29  C   UNL     1     110.916 126.526 139.529  0.00  0.00    +0.000 C 
ATOM     30  C   UNL     1     111.352 126.621 140.222  0.00  0.00    +0.000 C 
ATOM     31  C   UNL     1     112.176 126.647 140.190  0.00  0.00    +0.000 C 
ATOM     32  C   UNL     1     112.563 126.578 139.464  0.00  0.00    +0.000 C 
ATOM     33  C   UNL     1     113.387 126.603 139.433  0.00  0.00    +0.000 C 
ENDBRANCH  23  28
ENDBRANCH  17  23
ENDBRANCH   5  18
BRANCH  13  35
ATOM     34  O   UNL     1     108.659 132.495 134.995  0.00  0.00    +0.000 OA
ATOM     35  C   UNL     1     109.288 130.182 135.611  0.00  0.00    +0.000 A 
ATOM     36  C   UNL     1     109.111 130.732 136.201  0.00  0.00    +0.000 A 
ATOM     37  C   UNL     1     109.254 130.403 134.817  0.00  0.00    +0.000 A 
ATOM     38  C   UNL     1     108.902 131.504 135.995  0.00  0.00    +0.000 A 
ATOM     39  C   UNL     1     109.045 131.174 134.612  0.00  0.00    +0.000 A 
ATOM     40  C   UNL     1     108.869 131.724 135.200  0.00  0.00    +0.000 A 
BRANCH  38  41
ATOM     41  O   UNL     1     108.725 132.054 136.584  0.00  0.00    +0.000 OA
ATOM     42  C   UNL     1     109.142 132.043 137.295  0.00  0.00    +0.000 C 
ENDBRANCH  38  41
ENDBRANCH  13  35
TORSDOF 5
ENDMDL
MODEL 8
REMARK VINA RESULT:     -10.0      8.147      9.843
REMARK  Name = 74977693
REMARK  5 active torsions:
REMARK  status: ('A' for Active; 'I' for Inactive)
REMARK    1  A    between atoms: O_1  and  C_15
REMARK    2  A    between atoms: O_1  and  C_16
REMARK    3  A    between atoms: O_13  and  C_39
REMARK    4  A    between atoms: C_19  and  C_25
REMARK    5  A    between atoms: C_35  and  C_36
REMARK                            x       y       z     vdW  Elec       q    Type
REMARK                         _______ _______ _______ _____ _____    ______ ____
ROOT
ATOM      1  O   UNL     1     110.685 128.997 137.665  0.00  0.00    +0.000 OA
ATOM      2  O   UNL     1     112.495 129.621 135.543  0.00  0.00    +0.000 OA
ATOM      3  O   UNL     1     112.031 126.865 136.243  0.00  0.00    +0.000 OA
ATOM      4  O   UNL     1     110.426 127.629 138.046  0.00  0.00    +0.000 OA
ATOM      5  C   UNL     1     111.590 129.308 136.604  0.00  0.00    +0.000 A 
ATOM      6  C   UNL     1     111.209 128.751 137.077  0.00  0.00    +0.000 A 
ATOM      7  C   UNL     1     112.114 129.062 136.016  0.00  0.00    +0.000 A 
ATOM      8  C   UNL     1     111.351 127.946 136.961  0.00  0.00    +0.000 A 
ATOM      9  C   UNL     1     112.256 128.259 135.901  0.00  0.00    +0.000 A 
ATOM     10  C   UNL     1     111.875 127.700 136.373  0.00  0.00    +0.000 A 
ATOM     11  C   UNL     1     110.947 127.375 137.461  0.00  0.00    +0.000 A 
ATOM     12  C   UNL     1     111.092 126.535 137.345  0.00  0.00    +0.000 A 
ATOM     13  C   UNL     1     111.637 126.278 136.733  0.00  0.00    +0.000 A 
ENDROOT
BRANCH   5  18
ATOM     14  O   UNL     1     110.750 130.453 136.440  0.00  0.00    +0.000 OA
ATOM     15  O   UNL     1     112.417 131.846 137.626  0.00  0.00    +0.000 OA
ATOM     16  O   UNL     1     111.021 132.526 137.066  0.00  0.00    +0.000 OA
ATOM     17  C   UNL     1     112.003 130.577 137.115  0.00  0.00    +0.000 C 
ATOM     18  C   UNL     1     111.448 130.113 136.720  0.00  0.00    +0.000 C 
ATOM     19  C   UNL     1     111.861 131.382 137.230  0.00  0.00    +0.000 C 
ATOM     20  C   UNL     1     110.608 131.257 136.555  0.00  0.00    +0.000 C 
ATOM     21  C   UNL     1     111.163 131.722 136.951  0.00  0.00    +0.000 C 
ATOM     22  C   UNL     1     109.910 131.597 136.276  0.00  0.00    +0.000 C 
BRANCH  17  23
ATOM     23  O   UNL     1     112.701 130.237 137.395  0.00  0.00    +0.000 OA
BRANCH  23  28
ATOM     24  O   UNL     1     112.338 130.307 138.775  0.00  0.00    +0.000 OA
ATOM     25  O   UNL     1     114.285 130.460 137.801  0.00  0.00    +0.000 OA
ATOM     26  O   UNL     1     114.713 130.640 139.384  0.00  0.00    +0.000 OA
ATOM     27  O   UNL     1     113.558 130.598 140.561  0.00  0.00    +0.000 OA
ATOM     28  C   UNL     1     112.915 130.328 138.187  0.00  0.00    +0.000 C 
ATOM     29  C   UNL     1     113.707 130.439 138.390  0.00  0.00    +0.000 C 
ATOM     30  C   UNL     1     113.921 130.529 139.181  0.00  0.00    +0.000 C 
ATOM     31  C   UNL     1     113.343 130.508 139.769  0.00  0.00    +0.000 C 
ATOM     32  C   UNL     1     112.551 130.397 139.566  0.00  0.00    +0.000 C 
ATOM     33  C   UNL     1     111.974 130.376 140.155  0.00  0.00    +0.000 C 
ENDBRANCH  23  28
ENDBRANCH  17  23
ENDBRANCH   5  18
BRANCH  13  35
ATOM     34  O   UNL     1     112.212 123.064 136.262  0.00  0.00    +0.000 OA
ATOM     35  C   UNL     1     111.781 125.475 136.615  0.00  0.00    +0.000 A 
ATOM     36  C   UNL     1     112.466 125.129 136.920  0.00  0.00    +0.000 A 
ATOM     37  C   UNL     1     111.241 125.016 136.193  0.00  0.00    +0.000 A 
ATOM     38  C   UNL     1     112.609 124.325 136.802  0.00  0.00    +0.000 A 
ATOM     39  C   UNL     1     111.384 124.213 136.075  0.00  0.00    +0.000 A 
ATOM     40  C   UNL     1     112.068 123.867 136.379  0.00  0.00    +0.000 A 
BRANCH  38  41
ATOM     41  O   UNL     1     113.294 123.980 137.106  0.00  0.00    +0.000 OA
ATOM     42  C   UNL     1     113.989 124.419 137.157  0.00  0.00    +0.000 C 
ENDBRANCH  38  41
ENDBRANCH  13  35
TORSDOF 5
ENDMDL
MODEL 9
REMARK VINA RESULT:      -9.8      5.348      6.969
REMARK  Name = 74977693
REMARK  5 active torsions:
REMARK  status: ('A' for Active; 'I' for Inactive)
REMARK    1  A    between atoms: O_1  and  C_15
REMARK    2  A    between atoms: O_1  and  C_16
REMARK    3  A    between atoms: O_13  and  C_39
REMARK    4  A    between atoms: C_19  and  C_25
REMARK    5  A    between atoms: C_35  and  C_36
REMARK                            x       y       z     vdW  Elec       q    Type
REMARK                         _______ _______ _______ _____ _____    ______ ____
ROOT
ATOM      1  O   UNL     1     112.218 131.130 142.124  0.00  0.00    +0.000 OA
ATOM      2  O   UNL     1     111.415 128.688 143.372  0.00  0.00    +0.000 OA
ATOM      3  O   UNL     1     111.447 131.122 144.914  0.00  0.00    +0.000 OA
ATOM      4  O   UNL     1     112.247 132.370 142.862  0.00  0.00    +0.000 OA
ATOM      5  C   UNL     1     111.816 129.909 142.749  0.00  0.00    +0.000 A 
ATOM      6  C   UNL     1     111.957 130.721 142.791  0.00  0.00    +0.000 A 
ATOM      7  C   UNL     1     111.555 129.500 143.416  0.00  0.00    +0.000 A 
ATOM      8  C   UNL     1     111.837 131.124 143.502  0.00  0.00    +0.000 A 
ATOM      9  C   UNL     1     111.435 129.902 144.126  0.00  0.00    +0.000 A 
ATOM     10  C   UNL     1     111.576 130.714 144.169  0.00  0.00    +0.000 A 
ATOM     11  C   UNL     1     111.987 131.969 143.533  0.00  0.00    +0.000 A 
ATOM     12  C   UNL     1     111.863 132.394 144.271  0.00  0.00    +0.000 A 
ATOM     13  C   UNL     1     111.592 131.968 144.965  0.00  0.00    +0.000 A 
ENDROOT
BRANCH   5  18
ATOM     14  O   UNL     1     112.701 129.312 141.798  0.00  0.00    +0.000 OA
ATOM     15  O   UNL     1     110.766 128.689 140.388  0.00  0.00    +0.000 OA
ATOM     16  O   UNL     1     112.296 128.300 139.908  0.00  0.00    +0.000 OA
ATOM     17  C   UNL     1     111.291 129.299 141.568  0.00  0.00    +0.000 C 
ATOM     18  C   UNL     1     111.936 129.507 142.038  0.00  0.00    +0.000 C 
ATOM     19  C   UNL     1     111.411 128.897 140.857  0.00  0.00    +0.000 C 
ATOM     20  C   UNL     1     112.821 128.910 141.089  0.00  0.00    +0.000 C 
ATOM     21  C   UNL     1     112.176 128.702 140.618  0.00  0.00    +0.000 C 
ATOM     22  C   UNL     1     113.586 128.716 140.849  0.00  0.00    +0.000 C 
BRANCH  17  23
ATOM     23  O   UNL     1     110.526 129.494 141.808  0.00  0.00    +0.000 OA
BRANCH  23  28
ATOM     24  O   UNL     1     110.295 130.455 140.776  0.00  0.00    +0.000 OA
ATOM     25  O   UNL     1     108.932 129.070 141.770  0.00  0.00    +0.000 OA
ATOM     26  O   UNL     1     107.904 129.819 140.719  0.00  0.00    +0.000 OA
ATOM     27  O   UNL     1     108.470 130.993 139.706  0.00  0.00    +0.000 OA
ATOM     28  C   UNL     1     110.012 129.869 141.282  0.00  0.00    +0.000 C 
ATOM     29  C   UNL     1     109.215 129.657 141.263  0.00  0.00    +0.000 C 
ATOM     30  C   UNL     1     108.701 130.031 140.738  0.00  0.00    +0.000 C 
ATOM     31  C   UNL     1     108.984 130.618 140.232  0.00  0.00    +0.000 C 
ATOM     32  C   UNL     1     109.781 130.830 140.251  0.00  0.00    +0.000 C 
ATOM     33  C   UNL     1     110.064 131.417 139.744  0.00  0.00    +0.000 C 
ENDBRANCH  23  28
ENDBRANCH  17  23
ENDBRANCH   5  18
BRANCH  13  35
ATOM     34  O   UNL     1     111.109 133.567 147.811  0.00  0.00    +0.000 OA
ATOM     35  C   UNL     1     111.471 132.368 145.677  0.00  0.00    +0.000 A 
ATOM     36  C   UNL     1     110.746 132.732 145.827  0.00  0.00    +0.000 A 
ATOM     37  C   UNL     1     112.075 132.403 146.238  0.00  0.00    +0.000 A 
ATOM     38  C   UNL     1     110.626 133.132 146.539  0.00  0.00    +0.000 A 
ATOM     39  C   UNL     1     111.954 132.803 146.949  0.00  0.00    +0.000 A 
ATOM     40  C   UNL     1     111.230 133.167 147.100  0.00  0.00    +0.000 A 
BRANCH  38  41
ATOM     41  O   UNL     1     109.901 133.497 146.690  0.00  0.00    +0.000 OA
ATOM     42  C   UNL     1     109.201 133.137 146.445  0.00  0.00    +0.000 C 
ENDBRANCH  38  41
ENDBRANCH  13  35
TORSDOF 5
ENDMDL
MODEL 10
REMARK VINA RESULT:      -7.7      7.172     10.387
REMARK  Name = 74977693
REMARK  5 active torsions:
REMARK  status: ('A' for Active; 'I' for Inactive)
REMARK    1  A    between atoms: O_1  and  C_15
REMARK    2  A    between atoms: O_1  and  C_16
REMARK    3  A    between atoms: O_13  and  C_39
REMARK    4  A    between atoms: C_19  and  C_25
REMARK    5  A    between atoms: C_35  and  C_36
REMARK                            x       y       z     vdW  Elec       q    Type
REMARK                         _______ _______ _______ _____ _____    ______ ____
ROOT
ATOM      1  O   UNL     1     113.219 128.133 136.904  0.00  0.00    +0.000 OA
ATOM      2  O   UNL     1     111.550 125.876 136.367  0.00  0.00    +0.000 OA
ATOM      3  O   UNL     1     110.538 128.531 135.888  0.00  0.00    +0.000 OA
ATOM      4  O   UNL     1     112.749 129.479 136.677  0.00  0.00    +0.000 OA
ATOM      5  C   UNL     1     112.384 127.005 136.635  0.00  0.00    +0.000 A 
ATOM      6  C   UNL     1     112.500 127.822 136.647  0.00  0.00    +0.000 A 
ATOM      7  C   UNL     1     111.665 126.694 136.379  0.00  0.00    +0.000 A 
ATOM      8  C   UNL     1     111.895 128.327 136.402  0.00  0.00    +0.000 A 
ATOM      9  C   UNL     1     111.061 127.199 136.134  0.00  0.00    +0.000 A 
ATOM     10  C   UNL     1     111.175 128.016 136.145  0.00  0.00    +0.000 A 
ATOM     11  C   UNL     1     112.028 129.176 136.419  0.00  0.00    +0.000 A 
ATOM     12  C   UNL     1     111.401 129.708 136.165  0.00  0.00    +0.000 A 
ATOM     13  C   UNL     1     110.652 129.383 135.898  0.00  0.00    +0.000 A 
ENDROOT
BRANCH   5  18
ATOM     14  O   UNL     1     113.622 126.338 136.376  0.00  0.00    +0.000 OA
ATOM     15  O   UNL     1     113.537 125.308 138.625  0.00  0.00    +0.000 OA
ATOM     16  O   UNL     1     114.802 124.985 137.616  0.00  0.00    +0.000 OA
ATOM     17  C   UNL     1     112.960 126.157 137.630  0.00  0.00    +0.000 C 
ATOM     18  C   UNL     1     112.989 126.500 136.881  0.00  0.00    +0.000 C 
ATOM     19  C   UNL     1     113.565 125.651 137.876  0.00  0.00    +0.000 C 
ATOM     20  C   UNL     1     114.225 125.833 136.622  0.00  0.00    +0.000 C 
ATOM     21  C   UNL     1     114.198 125.489 137.371  0.00  0.00    +0.000 C 
ATOM     22  C   UNL     1     114.858 125.672 136.117  0.00  0.00    +0.000 C 
BRANCH  17  23
ATOM     23  O   UNL     1     112.328 126.318 138.135  0.00  0.00    +0.000 OA
BRANCH  23  28
ATOM     24  O   UNL     1     113.099 127.060 139.081  0.00  0.00    +0.000 OA
ATOM     25  O   UNL     1     111.355 125.776 139.352  0.00  0.00    +0.000 OA
ATOM     26  O   UNL     1     111.640 126.247 140.908  0.00  0.00    +0.000 OA
ATOM     27  O   UNL     1     112.898 127.260 141.246  0.00  0.00    +0.000 OA
ATOM     28  C   UNL     1     112.471 126.554 138.912  0.00  0.00    +0.000 C 
ATOM     29  C   UNL     1     111.985 126.283 139.521  0.00  0.00    +0.000 C 
ATOM     30  C   UNL     1     112.127 126.518 140.299  0.00  0.00    +0.000 C 
ATOM     31  C   UNL     1     112.755 127.024 140.467  0.00  0.00    +0.000 C 
ATOM     32  C   UNL     1     113.242 127.296 139.859  0.00  0.00    +0.000 C 
ATOM     33  C   UNL     1     113.871 127.802 140.028  0.00  0.00    +0.000 C 
ENDBRANCH  23  28
ENDBRANCH  17  23
ENDBRANCH   5  18
BRANCH  13  35
ATOM     34  O   UNL     1     108.228 131.395 134.914  0.00  0.00    +0.000 OA
ATOM     35  C   UNL     1     110.046 129.886 135.652  0.00  0.00    +0.000 A 
ATOM     36  C   UNL     1     109.501 130.174 136.201  0.00  0.00    +0.000 A 
ATOM     37  C   UNL     1     109.984 130.101 134.858  0.00  0.00    +0.000 A 
ATOM     38  C   UNL     1     108.895 130.677 135.954  0.00  0.00    +0.000 A 
ATOM     39  C   UNL     1     109.379 130.603 134.612  0.00  0.00    +0.000 A 
ATOM     40  C   UNL     1     108.834 130.892 135.160  0.00  0.00    +0.000 A 
BRANCH  38  41
ATOM     41  O   UNL     1     108.350 130.965 136.503  0.00  0.00    +0.000 OA
ATOM     42  C   UNL     1     108.602 131.193 137.253  0.00  0.00    +0.000 C 
ENDBRANCH  38  41
ENDBRANCH  13  35
TORSDOF 5
ENDMDL
