MODEL 1
REMARK VINA RESULT:      -9.5      0.000      0.000
REMARK  Name = 131832278
REMARK  8 active torsions:
REMARK  status: ('A' for Active; 'I' for Inactive)
REMARK    1  A    between atoms: O_3  and  C_20
REMARK    2  A    between atoms: O_3  and  C_32
REMARK    3  A    between atoms: O_9  and  C_28
REMARK    4  A    between atoms: C_19  and  C_29
REMARK    5  A    between atoms: C_26  and  C_30
REMARK    6  A    between atoms: C_30  and  C_31
REMARK    7  A    between atoms: C_31  and  C_33
REMARK    8  A    between atoms: C_33  and  C_34
REMARK                            x       y       z     vdW  Elec       q    Type
REMARK                         _______ _______ _______ _____ _____    ______ ____
ROOT
ATOM      1  C   UNL     1     109.126 127.518 135.581  0.00  0.00    +0.000 C 
ENDROOT
BRANCH   1   3
ATOM      2  C   UNL     1     110.688 125.601 135.504  0.00  0.00    +0.000 A 
ATOM      3  C   UNL     1     109.647 126.879 135.555  0.00  0.00    +0.000 A 
ATOM      4  C   UNL     1     110.156 125.675 136.131  0.00  0.00    +0.000 A 
ATOM      5  C   UNL     1     110.699 126.166 134.904  0.00  0.00    +0.000 A 
ATOM      6  C   UNL     1     109.635 126.314 136.157  0.00  0.00    +0.000 A 
ATOM      7  C   UNL     1     110.178 126.805 134.929  0.00  0.00    +0.000 A 
BRANCH   2   8
ATOM      8  O   UNL     1     111.209 124.961 135.478  0.00  0.00    +0.000 OA
BRANCH   8  17
ATOM      9  O   UNL     1     112.290 125.632 136.131  0.00  0.00    +0.000 OA
ATOM     10  O   UNL     1     112.970 123.502 137.192  0.00  0.00    +0.000 OA
ATOM     11  O   UNL     1     113.823 124.881 137.490  0.00  0.00    +0.000 OA
ATOM     12  O   UNL     1     111.663 123.541 136.185  0.00  0.00    +0.000 OA
ATOM     13  C   UNL     1     112.743 124.212 136.838  0.00  0.00    +0.000 C 
ATOM     14  C   UNL     1     113.170 124.902 136.987  0.00  0.00    +0.000 C 
ATOM     15  C   UNL     1     112.089 124.232 136.334  0.00  0.00    +0.000 C 
ATOM     16  C   UNL     1     112.943 125.612 136.633  0.00  0.00    +0.000 C 
ATOM     17  C   UNL     1     111.863 124.942 135.981  0.00  0.00    +0.000 C 
BRANCH  16  20
ATOM     18  O   UNL     1     113.175 126.776 137.429  0.00  0.00    +0.000 OA
ATOM     19  O   UNL     1     113.992 126.517 136.286  0.00  0.00    +0.000 OA
ATOM     20  C   UNL     1     113.369 126.301 136.783  0.00  0.00    +0.000 C 
ENDBRANCH  16  20
ENDBRANCH   8  17
ENDBRANCH   2   8
ENDBRANCH   1   3
BRANCH   1  21
ATOM     21  C   UNL     1     109.365 128.233 135.917  0.00  0.00    +0.000 C 
BRANCH  21  23
ATOM     22  O   UNL     1     108.011 128.689 135.927  0.00  0.00    +0.000 OA
ATOM     23  C   UNL     1     108.815 128.834 136.044  0.00  0.00    +0.000 C 
BRANCH  23  35
ATOM     24  O   UNL     1     109.840 131.844 137.046  0.00  0.00    +0.000 OA
ATOM     25  O   UNL     1     109.281 131.423 134.612  0.00  0.00    +0.000 OA
ATOM     26  O   UNL     1     108.959 130.058 134.947  0.00  0.00    +0.000 OA
ATOM     27  C   UNL     1     109.918 132.486 136.479  0.00  0.00    +0.000 C 
ATOM     28  C   UNL     1     109.728 132.346 135.653  0.00  0.00    +0.000 C 
ATOM     29  C   UNL     1     109.465 131.567 135.404  0.00  0.00    +0.000 C 
ATOM     30  C   UNL     1     109.394 130.938 135.985  0.00  0.00    +0.000 A 
ATOM     31  C   UNL     1     109.575 131.072 136.779  0.00  0.00    +0.000 A 
ATOM     32  C   UNL     1     110.106 133.270 136.307  0.00  0.00    +0.000 C 
ATOM     33  C   UNL     1     110.169 132.992 137.081  0.00  0.00    +0.000 C 
ATOM     34  C   UNL     1     109.140 130.192 135.740  0.00  0.00    +0.000 A 
ATOM     35  C   UNL     1     109.068 129.580 136.289  0.00  0.00    +0.000 A 
ATOM     36  C   UNL     1     109.503 130.460 137.327  0.00  0.00    +0.000 A 
ATOM     37  C   UNL     1     109.250 129.715 137.083  0.00  0.00    +0.000 A 
BRANCH  37  38
ATOM     38  O   UNL     1     109.178 129.103 137.632  0.00  0.00    +0.000 OA
ATOM     39  C   UNL     1     109.367 129.234 138.424  0.00  0.00    +0.000 C 
ENDBRANCH  37  38
ENDBRANCH  23  35
ENDBRANCH  21  23
ENDBRANCH   1  21
TORSDOF 8
ENDMDL
MODEL 2
REMARK VINA RESULT:      -9.4      1.432      6.347
REMARK  Name = 131832278
REMARK  8 active torsions:
REMARK  status: ('A' for Active; 'I' for Inactive)
REMARK    1  A    between atoms: O_3  and  C_20
REMARK    2  A    between atoms: O_3  and  C_32
REMARK    3  A    between atoms: O_9  and  C_28
REMARK    4  A    between atoms: C_19  and  C_29
REMARK    5  A    between atoms: C_26  and  C_30
REMARK    6  A    between atoms: C_30  and  C_31
REMARK    7  A    between atoms: C_31  and  C_33
REMARK    8  A    between atoms: C_33  and  C_34
REMARK                            x       y       z     vdW  Elec       q    Type
REMARK                         _______ _______ _______ _____ _____    ______ ____
ROOT
ATOM      1  C   UNL     1     108.808 128.432 135.723  0.00  0.00    +0.000 C 
ENDROOT
BRANCH   1   3
ATOM      2  C   UNL     1     109.065 130.893 135.771  0.00  0.00    +0.000 A 
ATOM      3  C   UNL     1     108.893 129.253 135.739  0.00  0.00    +0.000 A 
ATOM      4  C   UNL     1     108.351 130.548 136.000  0.00  0.00    +0.000 A 
ATOM      5  C   UNL     1     109.693 130.417 135.527  0.00  0.00    +0.000 A 
ATOM      6  C   UNL     1     108.265 129.728 135.984  0.00  0.00    +0.000 A 
ATOM      7  C   UNL     1     109.607 129.597 135.510  0.00  0.00    +0.000 A 
BRANCH   2   8
ATOM      8  O   UNL     1     109.151 131.714 135.787  0.00  0.00    +0.000 OA
BRANCH   8  17
ATOM      9  O   UNL     1     109.400 131.743 137.194  0.00  0.00    +0.000 OA
ATOM     10  O   UNL     1     110.659 133.857 136.928  0.00  0.00    +0.000 OA
ATOM     11  O   UNL     1     110.487 133.181 138.423  0.00  0.00    +0.000 OA
ATOM     12  O   UNL     1     109.991 133.123 135.610  0.00  0.00    +0.000 OA
ATOM     13  C   UNL     1     110.239 133.152 137.017  0.00  0.00    +0.000 C 
ATOM     14  C   UNL     1     110.153 132.814 137.764  0.00  0.00    +0.000 C 
ATOM     15  C   UNL     1     109.905 132.785 136.357  0.00  0.00    +0.000 C 
ATOM     16  C   UNL     1     109.733 132.109 137.853  0.00  0.00    +0.000 C 
ATOM     17  C   UNL     1     109.485 132.080 136.446  0.00  0.00    +0.000 C 
BRANCH  16  20
ATOM     18  O   UNL     1     110.248 131.298 138.911  0.00  0.00    +0.000 OA
ATOM     19  O   UNL     1     108.962 131.908 139.038  0.00  0.00    +0.000 OA
ATOM     20  C   UNL     1     109.648 131.772 138.600  0.00  0.00    +0.000 C 
ENDBRANCH  16  20
ENDBRANCH   8  17
ENDBRANCH   2   8
ENDBRANCH   1   3
BRANCH   1  21
ATOM     21  C   UNL     1     109.272 127.959 136.215  0.00  0.00    +0.000 C 
BRANCH  21  23
ATOM     22  O   UNL     1     108.276 126.934 136.240  0.00  0.00    +0.000 OA
ATOM     23  C   UNL     1     109.057 127.174 136.355  0.00  0.00    +0.000 C 
BRANCH  23  35
ATOM     24  O   UNL     1     111.342 124.983 137.399  0.00  0.00    +0.000 OA
ATOM     25  O   UNL     1     110.810 125.206 134.933  0.00  0.00    +0.000 OA
ATOM     26  O   UNL     1     109.846 126.229 135.257  0.00  0.00    +0.000 OA
ATOM     27  C   UNL     1     111.758 124.487 136.832  0.00  0.00    +0.000 C 
ATOM     28  C   UNL     1     111.578 124.562 135.994  0.00  0.00    +0.000 C 
ATOM     29  C   UNL     1     110.988 125.129 135.735  0.00  0.00    +0.000 C 
ATOM     30  C   UNL     1     110.584 125.615 136.316  0.00  0.00    +0.000 A 
ATOM     31  C   UNL     1     110.755 125.545 137.120  0.00  0.00    +0.000 A 
ATOM     32  C   UNL     1     112.313 123.901 136.666  0.00  0.00    +0.000 C 
ATOM     33  C   UNL     1     112.182 124.135 137.445  0.00  0.00    +0.000 C 
ATOM     34  C   UNL     1     110.017 126.159 136.061  0.00  0.00    +0.000 A 
ATOM     35  C   UNL     1     109.623 126.632 136.610  0.00  0.00    +0.000 A 
ATOM     36  C   UNL     1     110.360 126.018 137.669  0.00  0.00    +0.000 A 
ATOM     37  C   UNL     1     109.794 126.561 137.414  0.00  0.00    +0.000 A 
BRANCH  37  38
ATOM     38  O   UNL     1     109.400 127.034 137.963  0.00  0.00    +0.000 OA
ATOM     39  C   UNL     1     109.574 126.967 138.766  0.00  0.00    +0.000 C 
ENDBRANCH  37  38
ENDBRANCH  23  35
ENDBRANCH  21  23
ENDBRANCH   1  21
TORSDOF 8
ENDMDL
MODEL 3
REMARK VINA RESULT:      -9.2      8.728     10.350
REMARK  Name = 131832278
REMARK  8 active torsions:
REMARK  status: ('A' for Active; 'I' for Inactive)
REMARK    1  A    between atoms: O_3  and  C_20
REMARK    2  A    between atoms: O_3  and  C_32
REMARK    3  A    between atoms: O_9  and  C_28
REMARK    4  A    between atoms: C_19  and  C_29
REMARK    5  A    between atoms: C_26  and  C_30
REMARK    6  A    between atoms: C_30  and  C_31
REMARK    7  A    between atoms: C_31  and  C_33
REMARK    8  A    between atoms: C_33  and  C_34
REMARK                            x       y       z     vdW  Elec       q    Type
REMARK                         _______ _______ _______ _____ _____    ______ ____
ROOT
ATOM      1  C   UNL     1     105.900 127.429 143.952  0.00  0.00    +0.000 C 
ENDROOT
BRANCH   1   3
ATOM      2  C   UNL     1     105.554 125.582 145.563  0.00  0.00    +0.000 A 
ATOM      3  C   UNL     1     105.785 126.813 144.489  0.00  0.00    +0.000 A 
ATOM      4  C   UNL     1     105.977 125.448 144.866  0.00  0.00    +0.000 A 
ATOM      5  C   UNL     1     105.247 126.331 145.721  0.00  0.00    +0.000 A 
ATOM      6  C   UNL     1     106.092 126.064 144.329  0.00  0.00    +0.000 A 
ATOM      7  C   UNL     1     105.362 126.946 145.184  0.00  0.00    +0.000 A 
BRANCH   2   8
ATOM      8  O   UNL     1     105.439 124.966 146.099  0.00  0.00    +0.000 OA
BRANCH   8  17
ATOM      9  O   UNL     1     106.661 125.179 146.810  0.00  0.00    +0.000 OA
ATOM     10  O   UNL     1     105.577 124.422 148.902  0.00  0.00    +0.000 OA
ATOM     11  O   UNL     1     107.159 124.888 148.914  0.00  0.00    +0.000 OA
ATOM     12  O   UNL     1     104.716 124.461 147.494  0.00  0.00    +0.000 OA
ATOM     13  C   UNL     1     105.938 124.675 148.204  0.00  0.00    +0.000 C 
ATOM     14  C   UNL     1     106.729 124.908 148.210  0.00  0.00    +0.000 C 
ATOM     15  C   UNL     1     105.508 124.694 147.500  0.00  0.00    +0.000 C 
ATOM     16  C   UNL     1     107.090 125.160 147.513  0.00  0.00    +0.000 C 
ATOM     17  C   UNL     1     105.869 124.947 146.803  0.00  0.00    +0.000 C 
BRANCH  16  20
ATOM     18  O   UNL     1     108.479 124.824 147.545  0.00  0.00    +0.000 OA
ATOM     19  O   UNL     1     108.075 126.194 147.500  0.00  0.00    +0.000 OA
ATOM     20  C   UNL     1     107.881 125.393 147.519  0.00  0.00    +0.000 C 
ENDBRANCH  16  20
ENDBRANCH   8  17
ENDBRANCH   2   8
ENDBRANCH   1   3
BRANCH   1  21
ATOM     21  C   UNL     1     105.258 127.884 143.701  0.00  0.00    +0.000 C 
BRANCH  21  23
ATOM     22  O   UNL     1     106.143 128.828 143.096  0.00  0.00    +0.000 OA
ATOM     23  C   UNL     1     105.380 128.533 143.207  0.00  0.00    +0.000 C 
BRANCH  23  35
ATOM     24  O   UNL     1     102.793 129.970 141.673  0.00  0.00    +0.000 OA
ATOM     25  O   UNL     1     104.055 128.077 140.560  0.00  0.00    +0.000 OA
ATOM     26  O   UNL     1     104.919 128.007 141.713  0.00  0.00    +0.000 OA
ATOM     27  C   UNL     1     102.547 129.701 140.894  0.00  0.00    +0.000 C 
ATOM     28  C   UNL     1     102.975 129.058 140.514  0.00  0.00    +0.000 C 
ATOM     29  C   UNL     1     103.640 128.694 140.917  0.00  0.00    +0.000 C 
ATOM     30  C   UNL     1     103.870 128.977 141.695  0.00  0.00    +0.000 A 
ATOM     31  C   UNL     1     103.461 129.593 142.061  0.00  0.00    +0.000 A 
ATOM     32  C   UNL     1     102.044 129.755 140.244  0.00  0.00    +0.000 C 
ATOM     33  C   UNL     1     101.943 130.262 140.886  0.00  0.00    +0.000 C 
ATOM     34  C   UNL     1     104.510 128.623 142.078  0.00  0.00    +0.000 A 
ATOM     35  C   UNL     1     104.741 128.886 142.825  0.00  0.00    +0.000 A 
ATOM     36  C   UNL     1     103.692 129.856 142.808  0.00  0.00    +0.000 A 
ATOM     37  C   UNL     1     104.331 129.503 143.190  0.00  0.00    +0.000 A 
BRANCH  37  38
ATOM     38  O   UNL     1     104.562 129.766 143.937  0.00  0.00    +0.000 OA
ATOM     39  C   UNL     1     104.169 130.399 144.291  0.00  0.00    +0.000 C 
ENDBRANCH  37  38
ENDBRANCH  23  35
ENDBRANCH  21  23
ENDBRANCH   1  21
TORSDOF 8
ENDMDL
MODEL 4
REMARK VINA RESULT:      -9.2      8.822     10.824
REMARK  Name = 131832278
REMARK  8 active torsions:
REMARK  status: ('A' for Active; 'I' for Inactive)
REMARK    1  A    between atoms: O_3  and  C_20
REMARK    2  A    between atoms: O_3  and  C_32
REMARK    3  A    between atoms: O_9  and  C_28
REMARK    4  A    between atoms: C_19  and  C_29
REMARK    5  A    between atoms: C_26  and  C_30
REMARK    6  A    between atoms: C_30  and  C_31
REMARK    7  A    between atoms: C_31  and  C_33
REMARK    8  A    between atoms: C_33  and  C_34
REMARK                            x       y       z     vdW  Elec       q    Type
REMARK                         _______ _______ _______ _____ _____    ______ ____
ROOT
ATOM      1  C   UNL     1     106.002 127.644 144.660  0.00  0.00    +0.000 C 
ENDROOT
BRANCH   1   3
ATOM      2  C   UNL     1     105.482 126.033 146.466  0.00  0.00    +0.000 A 
ATOM      3  C   UNL     1     105.828 127.107 145.262  0.00  0.00    +0.000 A 
ATOM      4  C   UNL     1     106.113 125.889 145.953  0.00  0.00    +0.000 A 
ATOM      5  C   UNL     1     105.025 126.714 146.376  0.00  0.00    +0.000 A 
ATOM      6  C   UNL     1     106.286 126.426 145.351  0.00  0.00    +0.000 A 
ATOM      7  C   UNL     1     105.198 127.251 145.774  0.00  0.00    +0.000 A 
BRANCH   2   8
ATOM      8  O   UNL     1     105.309 125.496 147.068  0.00  0.00    +0.000 OA
BRANCH   8  17
ATOM      9  O   UNL     1     104.677 124.465 146.306  0.00  0.00    +0.000 OA
ATOM     10  O   UNL     1     102.895 124.294 148.015  0.00  0.00    +0.000 OA
ATOM     11  O   UNL     1     102.858 123.321 146.684  0.00  0.00    +0.000 OA
ATOM     12  O   UNL     1     104.121 125.382 148.207  0.00  0.00    +0.000 OA
ATOM     13  C   UNL     1     103.489 124.351 147.445  0.00  0.00    +0.000 C 
ATOM     14  C   UNL     1     103.471 123.865 146.779  0.00  0.00    +0.000 C 
ATOM     15  C   UNL     1     104.103 124.895 147.541  0.00  0.00    +0.000 C 
ATOM     16  C   UNL     1     104.065 123.922 146.210  0.00  0.00    +0.000 C 
ATOM     17  C   UNL     1     104.697 124.952 146.972  0.00  0.00    +0.000 C 
BRANCH  16  20
ATOM     18  O   UNL     1     104.490 122.740 145.528  0.00  0.00    +0.000 OA
ATOM     19  O   UNL     1     103.583 123.644 144.894  0.00  0.00    +0.000 OA
ATOM     20  C   UNL     1     104.046 123.435 145.544  0.00  0.00    +0.000 C 
ENDBRANCH  16  20
ENDBRANCH   8  17
ENDBRANCH   2   8
ENDBRANCH   1   3
BRANCH   1  21
ATOM     21  C   UNL     1     105.488 127.725 144.019  0.00  0.00    +0.000 C 
BRANCH  21  23
ATOM     22  O   UNL     1     106.428 128.585 143.373  0.00  0.00    +0.000 OA
ATOM     23  C   UNL     1     105.691 128.216 143.387  0.00  0.00    +0.000 C 
BRANCH  23  35
ATOM     24  O   UNL     1     103.533 128.696 140.892  0.00  0.00    +0.000 OA
ATOM     25  O   UNL     1     103.601 130.295 142.855  0.00  0.00    +0.000 OA
ATOM     26  O   UNL     1     104.660 129.504 143.432  0.00  0.00    +0.000 OA
ATOM     27  C   UNL     1     102.993 129.365 140.909  0.00  0.00    +0.000 C 
ATOM     28  C   UNL     1     103.015 129.909 141.574  0.00  0.00    +0.000 C 
ATOM     29  C   UNL     1     103.574 129.778 142.213  0.00  0.00    +0.000 C 
ATOM     30  C   UNL     1     104.105 129.103 142.178  0.00  0.00    +0.000 A 
ATOM     31  C   UNL     1     104.085 128.580 141.540  0.00  0.00    +0.000 A 
ATOM     32  C   UNL     1     102.387 129.805 140.564  0.00  0.00    +0.000 C 
ATOM     33  C   UNL     1     102.674 129.132 140.185  0.00  0.00    +0.000 C 
ATOM     34  C   UNL     1     104.641 128.981 142.794  0.00  0.00    +0.000 A 
ATOM     35  C   UNL     1     105.156 128.337 142.772  0.00  0.00    +0.000 A 
ATOM     36  C   UNL     1     104.601 127.936 141.518  0.00  0.00    +0.000 A 
ATOM     37  C   UNL     1     105.135 127.815 142.133  0.00  0.00    +0.000 A 
BRANCH  37  38
ATOM     38  O   UNL     1     105.650 127.171 142.111  0.00  0.00    +0.000 OA
ATOM     39  C   UNL     1     105.605 126.627 141.492  0.00  0.00    +0.000 C 
ENDBRANCH  37  38
ENDBRANCH  23  35
ENDBRANCH  21  23
ENDBRANCH   1  21
TORSDOF 8
ENDMDL
MODEL 5
REMARK VINA RESULT:      -9.2     10.026     12.641
REMARK  Name = 131832278
REMARK  8 active torsions:
REMARK  status: ('A' for Active; 'I' for Inactive)
REMARK    1  A    between atoms: O_3  and  C_20
REMARK    2  A    between atoms: O_3  and  C_32
REMARK    3  A    between atoms: O_9  and  C_28
REMARK    4  A    between atoms: C_19  and  C_29
REMARK    5  A    between atoms: C_26  and  C_30
REMARK    6  A    between atoms: C_30  and  C_31
REMARK    7  A    between atoms: C_31  and  C_33
REMARK    8  A    between atoms: C_33  and  C_34
REMARK                            x       y       z     vdW  Elec       q    Type
REMARK                         _______ _______ _______ _____ _____    ______ ____
ROOT
ATOM      1  C   UNL     1     105.786 125.876 147.799  0.00  0.00    +0.000 C 
ENDROOT
BRANCH   1   3
ATOM      2  C   UNL     1     107.178 127.553 146.627  0.00  0.00    +0.000 A 
ATOM      3  C   UNL     1     106.250 126.435 147.408  0.00  0.00    +0.000 A 
ATOM      4  C   UNL     1     107.462 126.786 146.739  0.00  0.00    +0.000 A 
ATOM      5  C   UNL     1     106.430 127.760 146.906  0.00  0.00    +0.000 A 
ATOM      6  C   UNL     1     106.998 126.227 147.129  0.00  0.00    +0.000 A 
ATOM      7  C   UNL     1     105.966 127.201 147.297  0.00  0.00    +0.000 A 
BRANCH   2   8
ATOM      8  O   UNL     1     107.642 128.112 146.236  0.00  0.00    +0.000 OA
BRANCH   8  17
ATOM      9  O   UNL     1     107.293 127.697 144.914  0.00  0.00    +0.000 OA
ATOM     10  O   UNL     1     107.424 130.045 144.143  0.00  0.00    +0.000 OA
ATOM     11  O   UNL     1     107.031 128.848 143.079  0.00  0.00    +0.000 OA
ATOM     12  O   UNL     1     107.730 129.677 145.722  0.00  0.00    +0.000 OA
ATOM     13  C   UNL     1     107.380 129.263 144.400  0.00  0.00    +0.000 C 
ATOM     14  C   UNL     1     107.184 128.664 143.868  0.00  0.00    +0.000 C 
ATOM     15  C   UNL     1     107.534 129.078 145.190  0.00  0.00    +0.000 C 
ATOM     16  C   UNL     1     107.140 127.881 144.125  0.00  0.00    +0.000 C 
ATOM     17  C   UNL     1     107.490 128.296 145.447  0.00  0.00    +0.000 C 
BRANCH  16  20
ATOM     18  O   UNL     1     107.537 126.840 143.230  0.00  0.00    +0.000 OA
ATOM     19  O   UNL     1     106.151 127.127 143.423  0.00  0.00    +0.000 OA
ATOM     20  C   UNL     1     106.943 127.283 143.593  0.00  0.00    +0.000 C 
ENDBRANCH  16  20
ENDBRANCH   8  17
ENDBRANCH   2   8
ENDBRANCH   1   3
BRANCH   1  21
ATOM     21  C   UNL     1     105.117 125.563 147.429  0.00  0.00    +0.000 C 
BRANCH  21  23
ATOM     22  O   UNL     1     104.964 124.626 148.496  0.00  0.00    +0.000 OA
ATOM     23  C   UNL     1     104.693 124.954 147.789  0.00  0.00    +0.000 C 
BRANCH  23  35
ATOM     24  O   UNL     1     101.879 123.831 146.397  0.00  0.00    +0.000 OA
ATOM     25  O   UNL     1     104.127 122.930 145.656  0.00  0.00    +0.000 OA
ATOM     26  O   UNL     1     104.765 123.803 146.609  0.00  0.00    +0.000 OA
ATOM     27  C   UNL     1     101.910 123.231 145.782  0.00  0.00    +0.000 C 
ATOM     28  C   UNL     1     102.672 122.924 145.529  0.00  0.00    +0.000 C 
ATOM     29  C   UNL     1     103.392 123.219 145.893  0.00  0.00    +0.000 C 
ATOM     30  C   UNL     1     103.340 123.819 146.506  0.00  0.00    +0.000 A 
ATOM     31  C   UNL     1     102.610 124.115 146.750  0.00  0.00    +0.000 A 
ATOM     32  C   UNL     1     101.528 122.739 145.243  0.00  0.00    +0.000 C 
ATOM     33  C   UNL     1     101.087 123.242 145.725  0.00  0.00    +0.000 C 
ATOM     34  C   UNL     1     104.035 124.099 146.853  0.00  0.00    +0.000 A 
ATOM     35  C   UNL     1     103.999 124.675 147.443  0.00  0.00    +0.000 A 
ATOM     36  C   UNL     1     102.574 124.690 147.340  0.00  0.00    +0.000 A 
ATOM     37  C   UNL     1     103.268 124.970 147.686  0.00  0.00    +0.000 A 
BRANCH  37  38
ATOM     38  O   UNL     1     103.231 125.545 148.276  0.00  0.00    +0.000 OA
ATOM     39  C   UNL     1     102.500 125.826 148.535  0.00  0.00    +0.000 C 
ENDBRANCH  37  38
ENDBRANCH  23  35
ENDBRANCH  21  23
ENDBRANCH   1  21
TORSDOF 8
ENDMDL
MODEL 6
REMARK VINA RESULT:      -9.2      6.676      8.340
REMARK  Name = 131832278
REMARK  8 active torsions:
REMARK  status: ('A' for Active; 'I' for Inactive)
REMARK    1  A    between atoms: O_3  and  C_20
REMARK    2  A    between atoms: O_3  and  C_32
REMARK    3  A    between atoms: O_9  and  C_28
REMARK    4  A    between atoms: C_19  and  C_29
REMARK    5  A    between atoms: C_26  and  C_30
REMARK    6  A    between atoms: C_30  and  C_31
REMARK    7  A    between atoms: C_31  and  C_33
REMARK    8  A    between atoms: C_33  and  C_34
REMARK                            x       y       z     vdW  Elec       q    Type
REMARK                         _______ _______ _______ _____ _____    ______ ____
ROOT
ATOM      1  C   UNL     1     103.217 129.573 141.382  0.00  0.00    +0.000 C 
ENDROOT
BRANCH   1   3
ATOM      2  C   UNL     1     104.951 128.148 142.428  0.00  0.00    +0.000 A 
ATOM      3  C   UNL     1     103.795 129.098 141.731  0.00  0.00    +0.000 A 
ATOM      4  C   UNL     1     104.660 128.808 142.831  0.00  0.00    +0.000 A 
ATOM      5  C   UNL     1     104.663 127.965 141.677  0.00  0.00    +0.000 A 
ATOM      6  C   UNL     1     104.082 129.283 142.482  0.00  0.00    +0.000 A 
ATOM      7  C   UNL     1     104.085 128.440 141.328  0.00  0.00    +0.000 A 
BRANCH   2   8
ATOM      8  O   UNL     1     105.528 127.674 142.776  0.00  0.00    +0.000 OA
BRANCH   8  17
ATOM      9  O   UNL     1     106.611 128.432 142.233  0.00  0.00    +0.000 OA
ATOM     10  O   UNL     1     108.055 126.424 142.307  0.00  0.00    +0.000 OA
ATOM     11  O   UNL     1     108.655 127.851 141.740  0.00  0.00    +0.000 OA
ATOM     12  O   UNL     1     106.491 126.335 142.825  0.00  0.00    +0.000 OA
ATOM     13  C   UNL     1     107.574 127.093 142.282  0.00  0.00    +0.000 C 
ATOM     14  C   UNL     1     107.874 127.807 141.999  0.00  0.00    +0.000 C 
ATOM     15  C   UNL     1     106.791 127.049 142.542  0.00  0.00    +0.000 C 
ATOM     16  C   UNL     1     107.392 128.477 141.974  0.00  0.00    +0.000 C 
ATOM     17  C   UNL     1     106.310 127.718 142.517  0.00  0.00    +0.000 C 
BRANCH  16  20
ATOM     18  O   UNL     1     107.642 129.370 140.887  0.00  0.00    +0.000 OA
ATOM     19  O   UNL     1     108.044 129.726 142.211  0.00  0.00    +0.000 OA
ATOM     20  C   UNL     1     107.693 129.190 141.691  0.00  0.00    +0.000 C 
ENDBRANCH  16  20
ENDBRANCH   8  17
ENDBRANCH   2   8
ENDBRANCH   1   3
BRANCH   1  21
ATOM     21  C   UNL     1     103.293 130.395 141.398  0.00  0.00    +0.000 C 
BRANCH  21  23
ATOM     22  O   UNL     1     102.253 130.511 140.426  0.00  0.00    +0.000 OA
ATOM     23  C   UNL     1     102.796 130.864 140.937  0.00  0.00    +0.000 C 
BRANCH  23  35
ATOM     24  O   UNL     1     102.972 134.187 141.146  0.00  0.00    +0.000 OA
ATOM     25  O   UNL     1     104.585 132.906 139.673  0.00  0.00    +0.000 OA
ATOM     26  O   UNL     1     103.942 131.679 140.075  0.00  0.00    +0.000 OA
ATOM     27  C   UNL     1     103.567 134.618 140.699  0.00  0.00    +0.000 C 
ATOM     28  C   UNL     1     104.116 134.185 140.198  0.00  0.00    +0.000 C 
ATOM     29  C   UNL     1     104.063 133.329 140.151  0.00  0.00    +0.000 C 
ATOM     30  C   UNL     1     103.461 132.916 140.605  0.00  0.00    +0.000 A 
ATOM     31  C   UNL     1     102.934 133.330 141.086  0.00  0.00    +0.000 A 
ATOM     32  C   UNL     1     103.922 135.329 140.481  0.00  0.00    +0.000 C 
ATOM     33  C   UNL     1     103.287 135.330 141.007  0.00  0.00    +0.000 C 
ATOM     34  C   UNL     1     103.415 132.093 140.556  0.00  0.00    +0.000 A 
ATOM     35  C   UNL     1     102.842 131.686 140.987  0.00  0.00    +0.000 A 
ATOM     36  C   UNL     1     102.361 132.922 141.517  0.00  0.00    +0.000 A 
ATOM     37  C   UNL     1     102.315 132.101 141.468  0.00  0.00    +0.000 A 
BRANCH  37  38
ATOM     38  O   UNL     1     101.742 131.693 141.899  0.00  0.00    +0.000 OA
ATOM     39  C   UNL     1     101.178 132.110 142.333  0.00  0.00    +0.000 C 
ENDBRANCH  37  38
ENDBRANCH  23  35
ENDBRANCH  21  23
ENDBRANCH   1  21
TORSDOF 8
ENDMDL
MODEL 7
REMARK VINA RESULT:      -9.1      1.572      6.830
REMARK  Name = 131832278
REMARK  8 active torsions:
REMARK  status: ('A' for Active; 'I' for Inactive)
REMARK    1  A    between atoms: O_3  and  C_20
REMARK    2  A    between atoms: O_3  and  C_32
REMARK    3  A    between atoms: O_9  and  C_28
REMARK    4  A    between atoms: C_19  and  C_29
REMARK    5  A    between atoms: C_26  and  C_30
REMARK    6  A    between atoms: C_30  and  C_31
REMARK    7  A    between atoms: C_31  and  C_33
REMARK    8  A    between atoms: C_33  and  C_34
REMARK                            x       y       z     vdW  Elec       q    Type
REMARK                         _______ _______ _______ _____ _____    ______ ____
ROOT
ATOM      1  C   UNL     1     112.573 129.327 136.743  0.00  0.00    +0.000 C 
ENDROOT
BRANCH   1   3
ATOM      2  C   UNL     1     111.070 131.178 137.406  0.00  0.00    +0.000 A 
ATOM      3  C   UNL     1     112.072 129.944 136.964  0.00  0.00    +0.000 A 
ATOM      4  C   UNL     1     111.559 131.260 136.745  0.00  0.00    +0.000 A 
ATOM      5  C   UNL     1     111.084 130.480 137.844  0.00  0.00    +0.000 A 
ATOM      6  C   UNL     1     112.060 130.643 136.524  0.00  0.00    +0.000 A 
ATOM      7  C   UNL     1     111.585 129.863 137.623  0.00  0.00    +0.000 A 
BRANCH   2   8
ATOM      8  O   UNL     1     110.569 131.795 137.627  0.00  0.00    +0.000 OA
BRANCH   8  17
ATOM      9  O   UNL     1     109.563 131.589 136.634  0.00  0.00    +0.000 OA
ATOM     10  O   UNL     1     107.810 132.112 138.302  0.00  0.00    +0.000 OA
ATOM     11  O   UNL     1     107.388 131.731 136.754  0.00  0.00    +0.000 OA
ATOM     12  O   UNL     1     109.401 132.144 138.739  0.00  0.00    +0.000 OA
ATOM     13  C   UNL     1     108.394 131.938 137.746  0.00  0.00    +0.000 C 
ATOM     14  C   UNL     1     108.184 131.747 136.971  0.00  0.00    +0.000 C 
ATOM     15  C   UNL     1     109.191 131.954 137.964  0.00  0.00    +0.000 C 
ATOM     16  C   UNL     1     108.768 131.573 136.415  0.00  0.00    +0.000 C 
ATOM     17  C   UNL     1     109.775 131.779 137.408  0.00  0.00    +0.000 C 
BRANCH  16  20
ATOM     18  O   UNL     1     108.522 131.972 135.066  0.00  0.00    +0.000 OA
ATOM     19  O   UNL     1     108.379 130.602 135.443  0.00  0.00    +0.000 OA
ATOM     20  C   UNL     1     108.557 131.382 135.642  0.00  0.00    +0.000 C 
ENDBRANCH  16  20
ENDBRANCH   8  17
ENDBRANCH   2   8
ENDBRANCH   1   3
BRANCH   1  21
ATOM     21  C   UNL     1     112.266 128.573 136.610  0.00  0.00    +0.000 C 
BRANCH  21  23
ATOM     22  O   UNL     1     113.329 128.272 135.705  0.00  0.00    +0.000 OA
ATOM     23  C   UNL     1     112.696 128.022 136.171  0.00  0.00    +0.000 C 
BRANCH  23  35
ATOM     24  O   UNL     1     111.868 124.795 136.276  0.00  0.00    +0.000 OA
ATOM     25  O   UNL     1     113.796 125.671 137.665  0.00  0.00    +0.000 OA
ATOM     26  O   UNL     1     113.549 126.989 137.135  0.00  0.00    +0.000 OA
ATOM     27  C   UNL     1     112.308 124.251 136.776  0.00  0.00    +0.000 C 
ATOM     28  C   UNL     1     112.963 124.546 137.248  0.00  0.00    +0.000 C 
ATOM     29  C   UNL     1     113.169 125.380 137.215  0.00  0.00    +0.000 C 
ATOM     30  C   UNL     1     112.717 125.907 136.709  0.00  0.00    +0.000 A 
ATOM     31  C   UNL     1     112.089 125.625 136.256  0.00  0.00    +0.000 A 
ATOM     32  C   UNL     1     112.435 123.491 137.068  0.00  0.00    +0.000 C 
ATOM     33  C   UNL     1     111.827 123.628 136.529  0.00  0.00    +0.000 C 
ATOM     34  C   UNL     1     112.920 126.707 136.681  0.00  0.00    +0.000 A 
ATOM     35  C   UNL     1     112.494 127.224 136.199  0.00  0.00    +0.000 A 
ATOM     36  C   UNL     1     111.663 126.142 135.774  0.00  0.00    +0.000 A 
ATOM     37  C   UNL     1     111.865 126.941 135.746  0.00  0.00    +0.000 A 
BRANCH  37  38
ATOM     38  O   UNL     1     111.439 127.457 135.265  0.00  0.00    +0.000 OA
ATOM     39  C   UNL     1     110.821 127.172 134.799  0.00  0.00    +0.000 C 
ENDBRANCH  37  38
ENDBRANCH  23  35
ENDBRANCH  21  23
ENDBRANCH   1  21
TORSDOF 8
ENDMDL
MODEL 8
REMARK VINA RESULT:      -9.1      1.699      6.793
REMARK  Name = 131832278
REMARK  8 active torsions:
REMARK  status: ('A' for Active; 'I' for Inactive)
REMARK    1  A    between atoms: O_3  and  C_20
REMARK    2  A    between atoms: O_3  and  C_32
REMARK    3  A    between atoms: O_9  and  C_28
REMARK    4  A    between atoms: C_19  and  C_29
REMARK    5  A    between atoms: C_26  and  C_30
REMARK    6  A    between atoms: C_30  and  C_31
REMARK    7  A    between atoms: C_31  and  C_33
REMARK    8  A    between atoms: C_33  and  C_34
REMARK                            x       y       z     vdW  Elec       q    Type
REMARK                         _______ _______ _______ _____ _____    ______ ____
ROOT
ATOM      1  C   UNL     1     112.271 129.540 138.188  0.00  0.00    +0.000 C 
ENDROOT
BRANCH   1   3
ATOM      2  C   UNL     1     110.681 131.303 137.490  0.00  0.00    +0.000 A 
ATOM      3  C   UNL     1     111.741 130.127 137.955  0.00  0.00    +0.000 A 
ATOM      4  C   UNL     1     111.389 131.200 137.079  0.00  0.00    +0.000 A 
ATOM      5  C   UNL     1     110.503 130.818 138.133  0.00  0.00    +0.000 A 
ATOM      6  C   UNL     1     111.920 130.612 137.312  0.00  0.00    +0.000 A 
ATOM      7  C   UNL     1     111.033 130.230 138.366  0.00  0.00    +0.000 A 
BRANCH   2   8
ATOM      8  O   UNL     1     110.150 131.891 137.257  0.00  0.00    +0.000 OA
BRANCH   8  17
ATOM      9  O   UNL     1     109.255 131.055 136.522  0.00  0.00    +0.000 OA
ATOM     10  O   UNL     1     108.998 132.832 134.817  0.00  0.00    +0.000 OA
ATOM     11  O   UNL     1     108.188 131.405 134.650  0.00  0.00    +0.000 OA
ATOM     12  O   UNL     1     109.979 133.075 136.121  0.00  0.00    +0.000 OA
ATOM     13  C   UNL     1     109.084 132.240 135.385  0.00  0.00    +0.000 C 
ATOM     14  C   UNL     1     108.679 131.526 135.302  0.00  0.00    +0.000 C 
ATOM     15  C   UNL     1     109.575 132.361 136.038  0.00  0.00    +0.000 C 
ATOM     16  C   UNL     1     108.764 130.934 135.870  0.00  0.00    +0.000 C 
ATOM     17  C   UNL     1     109.660 131.769 136.606  0.00  0.00    +0.000 C 
BRANCH  16  20
ATOM     18  O   UNL     1     107.618 130.123 136.135  0.00  0.00    +0.000 OA
ATOM     19  O   UNL     1     108.696 129.604 135.353  0.00  0.00    +0.000 OA
ATOM     20  C   UNL     1     108.359 130.221 135.786  0.00  0.00    +0.000 C 
ENDBRANCH  16  20
ENDBRANCH   8  17
ENDBRANCH   2   8
ENDBRANCH   1   3
BRANCH   1  21
ATOM     21  C   UNL     1     112.250 128.798 137.826  0.00  0.00    +0.000 C 
BRANCH  21  23
ATOM     22  O   UNL     1     113.357 128.377 138.625  0.00  0.00    +0.000 OA
ATOM     23  C   UNL     1     112.785 128.212 138.054  0.00  0.00    +0.000 C 
BRANCH  23  35
ATOM     24  O   UNL     1     112.640 125.190 136.655  0.00  0.00    +0.000 OA
ATOM     25  O   UNL     1     111.410 125.663 138.817  0.00  0.00    +0.000 OA
ATOM     26  O   UNL     1     111.906 127.017 138.775  0.00  0.00    +0.000 OA
ATOM     27  C   UNL     1     112.184 124.562 137.025  0.00  0.00    +0.000 C 
ATOM     28  C   UNL     1     111.766 124.721 137.759  0.00  0.00    +0.000 C 
ATOM     29  C   UNL     1     111.809 125.503 138.113  0.00  0.00    +0.000 C 
ATOM     30  C   UNL     1     112.270 126.116 137.727  0.00  0.00    +0.000 A 
ATOM     31  C   UNL     1     112.672 125.966 137.023  0.00  0.00    +0.000 A 
ATOM     32  C   UNL     1     111.910 123.785 137.032  0.00  0.00    +0.000 C 
ATOM     33  C   UNL     1     112.396 124.045 136.419  0.00  0.00    +0.000 C 
ATOM     34  C   UNL     1     112.308 126.866 138.071  0.00  0.00    +0.000 A 
ATOM     35  C   UNL     1     112.747 127.464 137.710  0.00  0.00    +0.000 A 
ATOM     36  C   UNL     1     113.111 126.564 136.662  0.00  0.00    +0.000 A 
ATOM     37  C   UNL     1     113.149 127.312 137.005  0.00  0.00    +0.000 A 
BRANCH  37  38
ATOM     38  O   UNL     1     113.588 127.910 136.645  0.00  0.00    +0.000 OA
ATOM     39  C   UNL     1     114.017 127.750 135.958  0.00  0.00    +0.000 C 
ENDBRANCH  37  38
ENDBRANCH  23  35
ENDBRANCH  21  23
ENDBRANCH   1  21
TORSDOF 8
ENDMDL
MODEL 9
REMARK VINA RESULT:      -9.1      3.336      6.568
REMARK  Name = 131832278
REMARK  8 active torsions:
REMARK  status: ('A' for Active; 'I' for Inactive)
REMARK    1  A    between atoms: O_3  and  C_20
REMARK    2  A    between atoms: O_3  and  C_32
REMARK    3  A    between atoms: O_9  and  C_28
REMARK    4  A    between atoms: C_19  and  C_29
REMARK    5  A    between atoms: C_26  and  C_30
REMARK    6  A    between atoms: C_30  and  C_31
REMARK    7  A    between atoms: C_31  and  C_33
REMARK    8  A    between atoms: C_33  and  C_34
REMARK                            x       y       z     vdW  Elec       q    Type
REMARK                         _______ _______ _______ _____ _____    ______ ____
ROOT
ATOM      1  C   UNL     1     113.525 126.794 139.456  0.00  0.00    +0.000 C 
ENDROOT
BRANCH   1   3
ATOM      2  C   UNL     1     112.856 127.963 141.533  0.00  0.00    +0.000 A 
ATOM      3  C   UNL     1     113.302 127.184 140.149  0.00  0.00    +0.000 A 
ATOM      4  C   UNL     1     112.518 127.234 141.342  0.00  0.00    +0.000 A 
ATOM      5  C   UNL     1     113.417 128.301 141.031  0.00  0.00    +0.000 A 
ATOM      6  C   UNL     1     112.741 126.845 140.650  0.00  0.00    +0.000 A 
ATOM      7  C   UNL     1     113.639 127.912 140.339  0.00  0.00    +0.000 A 
BRANCH   2   8
ATOM      8  O   UNL     1     112.633 128.353 142.225  0.00  0.00    +0.000 OA
BRANCH   8  17
ATOM      9  O   UNL     1     111.741 129.289 141.618  0.00  0.00    +0.000 OA
ATOM     10  O   UNL     1     110.222 129.104 143.563  0.00  0.00    +0.000 OA
ATOM     11  O   UNL     1     109.836 130.101 142.307  0.00  0.00    +0.000 OA
ATOM     12  O   UNL     1     111.620 128.229 143.522  0.00  0.00    +0.000 OA
ATOM     13  C   UNL     1     110.728 129.165 142.914  0.00  0.00    +0.000 C 
ATOM     14  C   UNL     1     110.536 129.664 142.286  0.00  0.00    +0.000 C 
ATOM     15  C   UNL     1     111.428 128.728 142.894  0.00  0.00    +0.000 C 
ATOM     16  C   UNL     1     111.042 129.726 141.638  0.00  0.00    +0.000 C 
ATOM     17  C   UNL     1     111.934 128.789 142.245  0.00  0.00    +0.000 C 
BRANCH  16  20
ATOM     18  O   UNL     1     110.367 129.951 140.398  0.00  0.00    +0.000 OA
ATOM     19  O   UNL     1     111.138 130.997 140.993  0.00  0.00    +0.000 OA
ATOM     20  C   UNL     1     110.849 130.224 141.010  0.00  0.00    +0.000 C 
ENDBRANCH  16  20
ENDBRANCH   8  17
ENDBRANCH   2   8
ENDBRANCH   1   3
BRANCH   1  21
ATOM     21  C   UNL     1     113.090 126.903 138.763  0.00  0.00    +0.000 C 
BRANCH  21  23
ATOM     22  O   UNL     1     114.034 126.116 138.035  0.00  0.00    +0.000 OA
ATOM     23  C   UNL     1     113.310 126.510 138.072  0.00  0.00    +0.000 C 
BRANCH  23  35
ATOM     24  O   UNL     1     111.281 126.528 135.427  0.00  0.00    +0.000 OA
ATOM     25  O   UNL     1     111.222 124.607 137.077  0.00  0.00    +0.000 OA
ATOM     26  O   UNL     1     112.260 125.259 137.836  0.00  0.00    +0.000 OA
ATOM     27  C   UNL     1     110.731 125.879 135.298  0.00  0.00    +0.000 C 
ATOM     28  C   UNL     1     110.710 125.226 135.857  0.00  0.00    +0.000 C 
ATOM     29  C   UNL     1     111.236 125.230 136.536  0.00  0.00    +0.000 C 
ATOM     30  C   UNL     1     111.778 125.887 136.647  0.00  0.00    +0.000 A 
ATOM     31  C   UNL     1     111.800 126.514 136.112  0.00  0.00    +0.000 A 
ATOM     32  C   UNL     1     110.138 125.522 134.851  0.00  0.00    +0.000 C 
ATOM     33  C   UNL     1     110.455 126.244 134.612  0.00  0.00    +0.000 C 
ATOM     34  C   UNL     1     112.282 125.886 137.301  0.00  0.00    +0.000 A 
ATOM     35  C   UNL     1     112.807 126.512 137.419  0.00  0.00    +0.000 A 
ATOM     36  C   UNL     1     112.325 127.140 136.229  0.00  0.00    +0.000 A 
ATOM     37  C   UNL     1     112.828 127.138 136.882  0.00  0.00    +0.000 A 
BRANCH  37  38
ATOM     38  O   UNL     1     113.353 127.764 137.000  0.00  0.00    +0.000 OA
ATOM     39  C   UNL     1     113.368 128.396 136.470  0.00  0.00    +0.000 C 
ENDBRANCH  37  38
ENDBRANCH  23  35
ENDBRANCH  21  23
ENDBRANCH   1  21
TORSDOF 8
ENDMDL
MODEL 10
REMARK VINA RESULT:      -9.1      8.975     10.816
REMARK  Name = 131832278
REMARK  8 active torsions:
REMARK  status: ('A' for Active; 'I' for Inactive)
REMARK    1  A    between atoms: O_3  and  C_20
REMARK    2  A    between atoms: O_3  and  C_32
REMARK    3  A    between atoms: O_9  and  C_28
REMARK    4  A    between atoms: C_19  and  C_29
REMARK    5  A    between atoms: C_26  and  C_30
REMARK    6  A    between atoms: C_30  and  C_31
REMARK    7  A    between atoms: C_31  and  C_33
REMARK    8  A    between atoms: C_33  and  C_34
REMARK                            x       y       z     vdW  Elec       q    Type
REMARK                         _______ _______ _______ _____ _____    ______ ____
ROOT
ATOM      1  C   UNL     1     106.131 126.838 144.203  0.00  0.00    +0.000 C 
ENDROOT
BRANCH   1   3
ATOM      2  C   UNL     1     105.560 124.811 145.503  0.00  0.00    +0.000 A 
ATOM      3  C   UNL     1     105.940 126.162 144.636  0.00  0.00    +0.000 A 
ATOM      4  C   UNL     1     105.891 125.465 145.883  0.00  0.00    +0.000 A 
ATOM      5  C   UNL     1     105.419 124.834 144.691  0.00  0.00    +0.000 A 
ATOM      6  C   UNL     1     106.081 126.141 145.449  0.00  0.00    +0.000 A 
ATOM      7  C   UNL     1     105.610 125.509 144.257  0.00  0.00    +0.000 A 
BRANCH   2   8
ATOM      8  O   UNL     1     105.369 124.135 145.937  0.00  0.00    +0.000 OA
BRANCH   8  17
ATOM      9  O   UNL     1     104.356 124.589 146.836  0.00  0.00    +0.000 OA
ATOM     10  O   UNL     1     102.881 122.740 146.106  0.00  0.00    +0.000 OA
ATOM     11  O   UNL     1     102.359 123.810 147.248  0.00  0.00    +0.000 OA
ATOM     12  O   UNL     1     104.386 122.903 145.451  0.00  0.00    +0.000 OA
ATOM     13  C   UNL     1     103.372 123.357 146.350  0.00  0.00    +0.000 C 
ATOM     14  C   UNL     1     103.112 123.892 146.920  0.00  0.00    +0.000 C 
ATOM     15  C   UNL     1     104.126 123.438 146.021  0.00  0.00    +0.000 C 
ATOM     16  C   UNL     1     103.604 124.508 147.164  0.00  0.00    +0.000 C 
ATOM     17  C   UNL     1     104.617 124.054 146.265  0.00  0.00    +0.000 C 
BRANCH  16  20
ATOM     18  O   UNL     1     103.540 124.930 148.527  0.00  0.00    +0.000 OA
ATOM     19  O   UNL     1     102.883 125.691 147.512  0.00  0.00    +0.000 OA
ATOM     20  C   UNL     1     103.342 125.043 147.734  0.00  0.00    +0.000 C 
ENDBRANCH  16  20
ENDBRANCH   8  17
ENDBRANCH   2   8
ENDBRANCH   1   3
BRANCH   1  21
ATOM     21  C   UNL     1     105.531 127.335 143.929  0.00  0.00    +0.000 C 
BRANCH  21  23
ATOM     22  O   UNL     1     106.513 128.232 143.405  0.00  0.00    +0.000 OA
ATOM     23  C   UNL     1     105.722 128.018 143.508  0.00  0.00    +0.000 C 
BRANCH  23  35
ATOM     24  O   UNL     1     103.300 129.921 142.233  0.00  0.00    +0.000 OA
ATOM     25  O   UNL     1     104.325 128.057 140.859  0.00  0.00    +0.000 OA
ATOM     26  O   UNL     1     105.188 127.744 141.971  0.00  0.00    +0.000 OA
ATOM     27  C   UNL     1     103.017 129.783 141.432  0.00  0.00    +0.000 C 
ATOM     28  C   UNL     1     103.364 129.151 140.964  0.00  0.00    +0.000 C 
ATOM     29  C   UNL     1     103.988 128.666 141.301  0.00  0.00    +0.000 C 
ATOM     30  C   UNL     1     104.256 128.819 142.102  0.00  0.00    +0.000 A 
ATOM     31  C   UNL     1     103.925 129.425 142.553  0.00  0.00    +0.000 A 
ATOM     32  C   UNL     1     102.516 129.977 140.807  0.00  0.00    +0.000 C 
ATOM     33  C   UNL     1     102.480 130.405 141.511  0.00  0.00    +0.000 C 
ATOM     34  C   UNL     1     104.856 128.350 142.421  0.00  0.00    +0.000 A 
ATOM     35  C   UNL     1     105.123 128.487 143.190  0.00  0.00    +0.000 A 
ATOM     36  C   UNL     1     104.192 129.563 143.321  0.00  0.00    +0.000 A 
ATOM     37  C   UNL     1     104.791 129.094 143.639  0.00  0.00    +0.000 A 
BRANCH  37  38
ATOM     38  O   UNL     1     105.058 129.231 144.408  0.00  0.00    +0.000 OA
ATOM     39  C   UNL     1     104.739 129.849 144.852  0.00  0.00    +0.000 C 
ENDBRANCH  37  38
ENDBRANCH  23  35
ENDBRANCH  21  23
ENDBRANCH   1  21
TORSDOF 8
ENDMDL
