MODEL 1
REMARK VINA RESULT:      -7.5      0.000      0.000
REMARK  Name = 75072284
REMARK  5 active torsions:
REMARK  status: ('A' for Active; 'I' for Inactive)
REMARK    1  A    between atoms: O_4  and  C_18
REMARK    2  A    between atoms: O_5  and  C_19
REMARK    3  A    between atoms: O_6  and  C_20
REMARK    4  A    between atoms: O_7  and  C_22
REMARK    5  A    between atoms: C_8  and  C_12
REMARK                            x       y       z     vdW  Elec       q    Type
REMARK                         _______ _______ _______ _____ _____    ______ ____
ROOT
ATOM      1  O   UNL     1     106.608 125.410 146.330  0.00  0.00    +0.000 OA
ATOM      2  O   UNL     1     107.996 125.377 147.268  0.00  0.00    +0.000 OA
ATOM      3  C   UNL     1     105.929 125.430 145.861  0.00  0.00    +0.000 C 
ATOM      4  C   UNL     1     105.212 125.152 146.160  0.00  0.00    +0.000 C 
ATOM      5  C   UNL     1     105.175 124.854 146.929  0.00  0.00    +0.000 C 
ATOM      6  C   UNL     1     105.853 124.834 147.398  0.00  0.00    +0.000 A 
ATOM      7  C   UNL     1     106.570 125.112 147.098  0.00  0.00    +0.000 A 
ATOM      8  C   UNL     1     105.801 124.522 148.197  0.00  0.00    +0.000 A 
ATOM      9  C   UNL     1     107.283 125.097 147.577  0.00  0.00    +0.000 A 
ATOM     10  C   UNL     1     107.250 124.788 148.377  0.00  0.00    +0.000 A 
ATOM     11  C   UNL     1     106.504 124.498 148.689  0.00  0.00    +0.000 A 
ENDROOT
BRANCH   3  13
ATOM     12  O   UNL     1     106.248 124.418 144.597  0.00  0.00    +0.000 OA
ATOM     13  C   UNL     1     105.968 125.728 145.093  0.00  0.00    +0.000 A 
ATOM     14  C   UNL     1     106.127 125.222 144.461  0.00  0.00    +0.000 A 
ATOM     15  C   UNL     1     105.846 126.533 144.956  0.00  0.00    +0.000 A 
ATOM     16  C   UNL     1     106.165 125.522 143.693  0.00  0.00    +0.000 A 
ATOM     17  C   UNL     1     105.885 126.831 144.188  0.00  0.00    +0.000 A 
ATOM     18  C   UNL     1     106.045 126.325 143.556  0.00  0.00    +0.000 A 
BRANCH  16  19
ATOM     19  O   UNL     1     106.325 125.016 143.061  0.00  0.00    +0.000 OA
ATOM     20  C   UNL     1     105.730 124.531 142.760  0.00  0.00    +0.000 C 
ENDBRANCH  16  19
BRANCH  17  21
ATOM     21  O   UNL     1     105.764 127.637 144.052  0.00  0.00    +0.000 OA
ATOM     22  C   UNL     1     105.367 128.095 144.612  0.00  0.00    +0.000 C 
ENDBRANCH  17  21
BRANCH  18  23
ATOM     23  O   UNL     1     106.083 126.625 142.788  0.00  0.00    +0.000 OA
ATOM     24  C   UNL     1     106.784 126.956 142.509  0.00  0.00    +0.000 C 
ENDBRANCH  18  23
ENDBRANCH   3  13
BRANCH  10  25
ATOM     25  O   UNL     1     107.931 124.770 148.844  0.00  0.00    +0.000 OA
ATOM     26  C   UNL     1     107.922 124.381 149.571  0.00  0.00    +0.000 C 
ENDBRANCH  10  25
TORSDOF 5
ENDMDL
MODEL 2
REMARK VINA RESULT:      -7.5      2.664      3.927
REMARK  Name = 75072284
REMARK  5 active torsions:
REMARK  status: ('A' for Active; 'I' for Inactive)
REMARK    1  A    between atoms: O_4  and  C_18
REMARK    2  A    between atoms: O_5  and  C_19
REMARK    3  A    between atoms: O_6  and  C_20
REMARK    4  A    between atoms: O_7  and  C_22
REMARK    5  A    between atoms: C_8  and  C_12
REMARK                            x       y       z     vdW  Elec       q    Type
REMARK                         _______ _______ _______ _____ _____    ______ ____
ROOT
ATOM      1  O   UNL     1     104.916 124.440 147.558  0.00  0.00    +0.000 OA
ATOM      2  O   UNL     1     105.861 124.119 148.903  0.00  0.00    +0.000 OA
ATOM      3  C   UNL     1     104.443 124.595 146.899  0.00  0.00    +0.000 C 
ATOM      4  C   UNL     1     104.762 124.985 146.245  0.00  0.00    +0.000 C 
ATOM      5  C   UNL     1     105.553 125.220 146.250  0.00  0.00    +0.000 C 
ATOM      6  C   UNL     1     106.025 125.066 146.908  0.00  0.00    +0.000 A 
ATOM      7  C   UNL     1     105.706 124.676 147.562  0.00  0.00    +0.000 A 
ATOM      8  C   UNL     1     106.847 125.316 146.902  0.00  0.00    +0.000 A 
ATOM      9  C   UNL     1     106.189 124.509 148.254  0.00  0.00    +0.000 A 
ATOM     10  C   UNL     1     107.012 124.752 148.265  0.00  0.00    +0.000 A 
ATOM     11  C   UNL     1     107.344 125.158 147.584  0.00  0.00    +0.000 A 
ENDROOT
BRANCH   3  13
ATOM     12  O   UNL     1     103.995 123.222 146.101  0.00  0.00    +0.000 OA
ATOM     13  C   UNL     1     103.653 124.359 146.894  0.00  0.00    +0.000 A 
ATOM     14  C   UNL     1     103.429 123.673 146.496  0.00  0.00    +0.000 A 
ATOM     15  C   UNL     1     103.086 124.811 147.289  0.00  0.00    +0.000 A 
ATOM     16  C   UNL     1     102.637 123.438 146.492  0.00  0.00    +0.000 A 
ATOM     17  C   UNL     1     102.296 124.576 147.285  0.00  0.00    +0.000 A 
ATOM     18  C   UNL     1     102.071 123.889 146.886  0.00  0.00    +0.000 A 
BRANCH  16  19
ATOM     19  O   UNL     1     102.413 122.752 146.093  0.00  0.00    +0.000 OA
ATOM     20  C   UNL     1     102.398 122.739 145.269  0.00  0.00    +0.000 C 
ENDBRANCH  16  19
BRANCH  17  21
ATOM     21  O   UNL     1     101.729 125.028 147.680  0.00  0.00    +0.000 OA
ATOM     22  C   UNL     1     101.959 125.687 148.119  0.00  0.00    +0.000 C 
ENDBRANCH  17  21
BRANCH  18  23
ATOM     23  O   UNL     1     101.280 123.655 146.883  0.00  0.00    +0.000 OA
ATOM     24  C   UNL     1     100.989 123.174 147.486  0.00  0.00    +0.000 C 
ENDBRANCH  18  23
ENDBRANCH   3  13
BRANCH  10  25
ATOM     25  O   UNL     1     107.482 124.595 148.926  0.00  0.00    +0.000 OA
ATOM     26  C   UNL     1     108.303 124.661 148.872  0.00  0.00    +0.000 C 
ENDBRANCH  10  25
TORSDOF 5
ENDMDL
MODEL 3
REMARK VINA RESULT:      -7.4     10.295     11.564
REMARK  Name = 75072284
REMARK  5 active torsions:
REMARK  status: ('A' for Active; 'I' for Inactive)
REMARK    1  A    between atoms: O_4  and  C_18
REMARK    2  A    between atoms: O_5  and  C_19
REMARK    3  A    between atoms: O_6  and  C_20
REMARK    4  A    between atoms: O_7  and  C_22
REMARK    5  A    between atoms: C_8  and  C_12
REMARK                            x       y       z     vdW  Elec       q    Type
REMARK                         _______ _______ _______ _____ _____    ______ ____
ROOT
ATOM      1  O   UNL     1     112.650 126.431 136.821  0.00  0.00    +0.000 OA
ATOM      2  O   UNL     1     111.401 125.337 137.045  0.00  0.00    +0.000 OA
ATOM      3  C   UNL     1     113.260 126.977 136.711  0.00  0.00    +0.000 C 
ATOM      4  C   UNL     1     114.032 126.714 136.590  0.00  0.00    +0.000 C 
ATOM      5  C   UNL     1     114.195 125.905 136.579  0.00  0.00    +0.000 C 
ATOM      6  C   UNL     1     113.586 125.360 136.688  0.00  0.00    +0.000 A 
ATOM      7  C   UNL     1     112.814 125.623 136.809  0.00  0.00    +0.000 A 
ATOM      8  C   UNL     1     113.769 124.520 136.675  0.00  0.00    +0.000 A 
ATOM      9  C   UNL     1     112.171 125.064 136.925  0.00  0.00    +0.000 A 
ATOM     10  C   UNL     1     112.335 124.221 136.914  0.00  0.00    +0.000 A 
ATOM     11  C   UNL     1     113.139 123.947 136.788  0.00  0.00    +0.000 A 
ENDROOT
BRANCH   3  13
ATOM     12  O   UNL     1     113.318 127.812 138.133  0.00  0.00    +0.000 OA
ATOM     13  C   UNL     1     113.095 127.785 136.722  0.00  0.00    +0.000 A 
ATOM     14  C   UNL     1     113.125 128.203 137.433  0.00  0.00    +0.000 A 
ATOM     15  C   UNL     1     112.902 128.176 136.021  0.00  0.00    +0.000 A 
ATOM     16  C   UNL     1     112.961 129.011 137.443  0.00  0.00    +0.000 A 
ATOM     17  C   UNL     1     112.738 128.985 136.032  0.00  0.00    +0.000 A 
ATOM     18  C   UNL     1     112.767 129.402 136.743  0.00  0.00    +0.000 A 
BRANCH  16  19
ATOM     19  O   UNL     1     112.990 129.429 138.154  0.00  0.00    +0.000 OA
ATOM     20  C   UNL     1     112.399 129.324 138.719  0.00  0.00    +0.000 C 
ENDBRANCH  16  19
BRANCH  17  21
ATOM     21  O   UNL     1     112.544 129.376 135.332  0.00  0.00    +0.000 OA
ATOM     22  C   UNL     1     112.153 128.971 134.728  0.00  0.00    +0.000 C 
ENDBRANCH  17  21
BRANCH  18  23
ATOM     23  O   UNL     1     112.603 130.211 136.753  0.00  0.00    +0.000 OA
ATOM     24  C   UNL     1     113.206 130.756 136.620  0.00  0.00    +0.000 C 
ENDBRANCH  18  23
ENDBRANCH   3  13
BRANCH  10  25
ATOM     25  O   UNL     1     111.723 123.678 137.024  0.00  0.00    +0.000 OA
ATOM     26  C   UNL     1     111.897 122.892 137.206  0.00  0.00    +0.000 C 
ENDBRANCH  10  25
TORSDOF 5
ENDMDL
MODEL 4
REMARK VINA RESULT:      -7.4     10.850     12.529
REMARK  Name = 75072284
REMARK  5 active torsions:
REMARK  status: ('A' for Active; 'I' for Inactive)
REMARK    1  A    between atoms: O_4  and  C_18
REMARK    2  A    between atoms: O_5  and  C_19
REMARK    3  A    between atoms: O_6  and  C_20
REMARK    4  A    between atoms: O_7  and  C_22
REMARK    5  A    between atoms: C_8  and  C_12
REMARK                            x       y       z     vdW  Elec       q    Type
REMARK                         _______ _______ _______ _____ _____    ______ ____
ROOT
ATOM      1  O   UNL     1     113.608 128.007 136.009  0.00  0.00    +0.000 OA
ATOM      2  O   UNL     1     114.515 128.710 134.788  0.00  0.00    +0.000 OA
ATOM      3  C   UNL     1     113.161 127.653 136.606  0.00  0.00    +0.000 C 
ATOM      4  C   UNL     1     112.959 128.083 137.281  0.00  0.00    +0.000 C 
ATOM      5  C   UNL     1     113.205 128.867 137.358  0.00  0.00    +0.000 C 
ATOM      6  C   UNL     1     113.651 129.221 136.762  0.00  0.00    +0.000 A 
ATOM      7  C   UNL     1     113.853 128.791 136.087  0.00  0.00    +0.000 A 
ATOM      8  C   UNL     1     113.900 130.038 136.854  0.00  0.00    +0.000 A 
ATOM      9  C   UNL     1     114.318 129.148 135.459  0.00  0.00    +0.000 A 
ATOM     10  C   UNL     1     114.575 129.964 135.534  0.00  0.00    +0.000 A 
ATOM     11  C   UNL     1     114.365 130.412 136.236  0.00  0.00    +0.000 A 
ENDROOT
BRANCH   3  13
ATOM     12  O   UNL     1     111.623 127.312 136.116  0.00  0.00    +0.000 OA
ATOM     13  C   UNL     1     112.917 126.869 136.528  0.00  0.00    +0.000 A 
ATOM     14  C   UNL     1     112.147 126.699 136.283  0.00  0.00    +0.000 A 
ATOM     15  C   UNL     1     113.442 126.255 136.695  0.00  0.00    +0.000 A 
ATOM     16  C   UNL     1     111.904 125.914 136.205  0.00  0.00    +0.000 A 
ATOM     17  C   UNL     1     113.198 125.471 136.617  0.00  0.00    +0.000 A 
ATOM     18  C   UNL     1     112.429 125.301 136.372  0.00  0.00    +0.000 A 
BRANCH  16  19
ATOM     19  O   UNL     1     111.135 125.744 135.960  0.00  0.00    +0.000 OA
ATOM     20  C   UNL     1     110.904 125.902 135.184  0.00  0.00    +0.000 C 
ENDBRANCH  16  19
BRANCH  17  21
ATOM     21  O   UNL     1     113.723 124.856 136.784  0.00  0.00    +0.000 OA
ATOM     22  C   UNL     1     114.536 124.997 136.783  0.00  0.00    +0.000 C 
ENDBRANCH  17  21
BRANCH  18  23
ATOM     23  O   UNL     1     112.185 124.516 136.294  0.00  0.00    +0.000 OA
ATOM     24  C   UNL     1     111.893 124.107 136.948  0.00  0.00    +0.000 C 
ENDBRANCH  18  23
ENDBRANCH   3  13
BRANCH  10  25
ATOM     25  O   UNL     1     115.022 130.315 134.935  0.00  0.00    +0.000 OA
ATOM     26  C   UNL     1     115.365 131.056 135.057  0.00  0.00    +0.000 C 
ENDBRANCH  10  25
TORSDOF 5
ENDMDL
MODEL 5
REMARK VINA RESULT:      -7.3     10.214     11.432
REMARK  Name = 75072284
REMARK  5 active torsions:
REMARK  status: ('A' for Active; 'I' for Inactive)
REMARK    1  A    between atoms: O_4  and  C_18
REMARK    2  A    between atoms: O_5  and  C_19
REMARK    3  A    between atoms: O_6  and  C_20
REMARK    4  A    between atoms: O_7  and  C_22
REMARK    5  A    between atoms: C_8  and  C_12
REMARK                            x       y       z     vdW  Elec       q    Type
REMARK                         _______ _______ _______ _____ _____    ______ ____
ROOT
ATOM      1  O   UNL     1     112.619 126.494 137.020  0.00  0.00    +0.000 OA
ATOM      2  O   UNL     1     111.424 125.377 137.386  0.00  0.00    +0.000 OA
ATOM      3  C   UNL     1     113.202 127.050 136.842  0.00  0.00    +0.000 C 
ATOM      4  C   UNL     1     113.943 126.801 136.580  0.00  0.00    +0.000 C 
ATOM      5  C   UNL     1     114.101 125.996 136.495  0.00  0.00    +0.000 C 
ATOM      6  C   UNL     1     113.519 125.440 136.673  0.00  0.00    +0.000 A 
ATOM      7  C   UNL     1     112.778 125.689 136.935  0.00  0.00    +0.000 A 
ATOM      8  C   UNL     1     113.696 124.604 136.580  0.00  0.00    +0.000 A 
ATOM      9  C   UNL     1     112.162 125.119 137.124  0.00  0.00    +0.000 A 
ATOM     10  C   UNL     1     112.322 124.279 137.037  0.00  0.00    +0.000 A 
ATOM     11  C   UNL     1     113.094 124.020 136.764  0.00  0.00    +0.000 A 
ENDROOT
BRANCH   3  13
ATOM     12  O   UNL     1     112.648 127.923 135.556  0.00  0.00    +0.000 OA
ATOM     13  C   UNL     1     113.043 127.855 136.927  0.00  0.00    +0.000 A 
ATOM     14  C   UNL     1     112.765 128.291 136.284  0.00  0.00    +0.000 A 
ATOM     15  C   UNL     1     113.161 128.224 137.656  0.00  0.00    +0.000 A 
ATOM     16  C   UNL     1     112.607 129.097 136.371  0.00  0.00    +0.000 A 
ATOM     17  C   UNL     1     113.002 129.029 137.741  0.00  0.00    +0.000 A 
ATOM     18  C   UNL     1     112.725 129.465 137.098  0.00  0.00    +0.000 A 
BRANCH  16  19
ATOM     19  O   UNL     1     112.329 129.533 135.728  0.00  0.00    +0.000 OA
ATOM     20  C   UNL     1     111.555 129.430 135.461  0.00  0.00    +0.000 C 
ENDBRANCH  16  19
BRANCH  17  21
ATOM     21  O   UNL     1     113.120 129.397 138.471  0.00  0.00    +0.000 OA
ATOM     22  C   UNL     1     113.066 128.960 139.168  0.00  0.00    +0.000 C 
ENDBRANCH  17  21
BRANCH  18  23
ATOM     23  O   UNL     1     112.566 130.270 137.185  0.00  0.00    +0.000 OA
ATOM     24  C   UNL     1     113.172 130.822 137.102  0.00  0.00    +0.000 C 
ENDBRANCH  18  23
ENDBRANCH   3  13
BRANCH  10  25
ATOM     25  O   UNL     1     111.736 123.725 137.216  0.00  0.00    +0.000 OA
ATOM     26  C   UNL     1     111.921 122.921 137.230  0.00  0.00    +0.000 C 
ENDBRANCH  10  25
TORSDOF 5
ENDMDL
MODEL 6
REMARK VINA RESULT:      -7.2     10.711     12.431
REMARK  Name = 75072284
REMARK  5 active torsions:
REMARK  status: ('A' for Active; 'I' for Inactive)
REMARK    1  A    between atoms: O_4  and  C_18
REMARK    2  A    between atoms: O_5  and  C_19
REMARK    3  A    between atoms: O_6  and  C_20
REMARK    4  A    between atoms: O_7  and  C_22
REMARK    5  A    between atoms: C_8  and  C_12
REMARK                            x       y       z     vdW  Elec       q    Type
REMARK                         _______ _______ _______ _____ _____    ______ ____
ROOT
ATOM      1  O   UNL     1     113.608 127.953 136.116  0.00  0.00    +0.000 OA
ATOM      2  O   UNL     1     114.630 128.592 134.951  0.00  0.00    +0.000 OA
ATOM      3  C   UNL     1     113.106 127.630 136.686  0.00  0.00    +0.000 C 
ATOM      4  C   UNL     1     112.817 128.104 137.297  0.00  0.00    +0.000 C 
ATOM      5  C   UNL     1     113.031 128.900 137.338  0.00  0.00    +0.000 C 
ATOM      6  C   UNL     1     113.533 129.222 136.769  0.00  0.00    +0.000 A 
ATOM      7  C   UNL     1     113.822 128.748 136.158  0.00  0.00    +0.000 A 
ATOM      8  C   UNL     1     113.749 130.052 136.823  0.00  0.00    +0.000 A 
ATOM      9  C   UNL     1     114.346 129.073 135.558  0.00  0.00    +0.000 A 
ATOM     10  C   UNL     1     114.572 129.901 135.597  0.00  0.00    +0.000 A 
ATOM     11  C   UNL     1     114.272 130.393 136.233  0.00  0.00    +0.000 A 
ENDROOT
BRANCH   3  13
ATOM     12  O   UNL     1     114.013 126.490 137.459  0.00  0.00    +0.000 OA
ATOM     13  C   UNL     1     112.892 126.835 136.644  0.00  0.00    +0.000 A 
ATOM     14  C   UNL     1     113.346 126.264 137.030  0.00  0.00    +0.000 A 
ATOM     15  C   UNL     1     112.224 126.609 136.214  0.00  0.00    +0.000 A 
ATOM     16  C   UNL     1     113.131 125.469 136.987  0.00  0.00    +0.000 A 
ATOM     17  C   UNL     1     112.010 125.814 136.172  0.00  0.00    +0.000 A 
ATOM     18  C   UNL     1     112.464 125.243 136.559  0.00  0.00    +0.000 A 
BRANCH  16  19
ATOM     19  O   UNL     1     113.585 124.898 137.374  0.00  0.00    +0.000 OA
ATOM     20  C   UNL     1     114.338 124.712 137.096  0.00  0.00    +0.000 C 
ENDBRANCH  16  19
BRANCH  17  21
ATOM     21  O   UNL     1     111.342 125.589 135.742  0.00  0.00    +0.000 OA
ATOM     22  C   UNL     1     110.995 126.117 135.212  0.00  0.00    +0.000 C 
ENDBRANCH  17  21
BRANCH  18  23
ATOM     23  O   UNL     1     112.249 124.448 136.516  0.00  0.00    +0.000 OA
ATOM     24  C   UNL     1     111.727 124.131 137.069  0.00  0.00    +0.000 C 
ENDBRANCH  18  23
ENDBRANCH   3  13
BRANCH  10  25
ATOM     25  O   UNL     1     115.075 130.220 135.025  0.00  0.00    +0.000 OA
ATOM     26  C   UNL     1     115.363 130.988 135.113  0.00  0.00    +0.000 C 
ENDBRANCH  10  25
TORSDOF 5
ENDMDL
MODEL 7
REMARK VINA RESULT:      -7.1      2.477      4.608
REMARK  Name = 75072284
REMARK  5 active torsions:
REMARK  status: ('A' for Active; 'I' for Inactive)
REMARK    1  A    between atoms: O_4  and  C_18
REMARK    2  A    between atoms: O_5  and  C_19
REMARK    3  A    between atoms: O_6  and  C_20
REMARK    4  A    between atoms: O_7  and  C_22
REMARK    5  A    between atoms: C_8  and  C_12
REMARK                            x       y       z     vdW  Elec       q    Type
REMARK                         _______ _______ _______ _____ _____    ______ ____
ROOT
ATOM      1  O   UNL     1     104.225 124.334 146.950  0.00  0.00    +0.000 OA
ATOM      2  O   UNL     1     103.794 123.181 145.814  0.00  0.00    +0.000 OA
ATOM      3  C   UNL     1     104.446 124.900 147.509  0.00  0.00    +0.000 C 
ATOM      4  C   UNL     1     103.868 125.313 147.929  0.00  0.00    +0.000 C 
ATOM      5  C   UNL     1     103.069 125.159 147.790  0.00  0.00    +0.000 C 
ATOM      6  C   UNL     1     102.849 124.593 147.233  0.00  0.00    +0.000 A 
ATOM      7  C   UNL     1     103.427 124.180 146.813  0.00  0.00    +0.000 A 
ATOM      8  C   UNL     1     102.013 124.442 147.098  0.00  0.00    +0.000 A 
ATOM      9  C   UNL     1     103.209 123.588 146.229  0.00  0.00    +0.000 A 
ATOM     10  C   UNL     1     102.379 123.424 146.081  0.00  0.00    +0.000 A 
ATOM     11  C   UNL     1     101.777 123.854 146.518  0.00  0.00    +0.000 A 
ENDROOT
BRANCH   3  13
ATOM     12  O   UNL     1     105.233 126.047 146.620  0.00  0.00    +0.000 OA
ATOM     13  C   UNL     1     105.245 125.053 147.646  0.00  0.00    +0.000 A 
ATOM     14  C   UNL     1     105.638 125.627 147.202  0.00  0.00    +0.000 A 
ATOM     15  C   UNL     1     105.651 124.632 148.229  0.00  0.00    +0.000 A 
ATOM     16  C   UNL     1     106.437 125.779 147.341  0.00  0.00    +0.000 A 
ATOM     17  C   UNL     1     106.450 124.785 148.367  0.00  0.00    +0.000 A 
ATOM     18  C   UNL     1     106.843 125.359 147.923  0.00  0.00    +0.000 A 
BRANCH  16  19
ATOM     19  O   UNL     1     106.830 126.352 146.897  0.00  0.00    +0.000 OA
ATOM     20  C   UNL     1     106.657 127.151 147.007  0.00  0.00    +0.000 C 
ENDBRANCH  16  19
BRANCH  17  21
ATOM     21  O   UNL     1     106.856 124.364 148.950  0.00  0.00    +0.000 OA
ATOM     22  C   UNL     1     106.437 123.964 149.537  0.00  0.00    +0.000 C 
ENDBRANCH  17  21
BRANCH  18  23
ATOM     23  O   UNL     1     107.642 125.511 148.061  0.00  0.00    +0.000 OA
ATOM     24  C   UNL     1     108.219 125.038 147.711  0.00  0.00    +0.000 C 
ENDBRANCH  18  23
ENDBRANCH   3  13
BRANCH  10  25
ATOM     25  O   UNL     1     102.162 122.857 145.522  0.00  0.00    +0.000 OA
ATOM     26  C   UNL     1     101.368 122.764 145.316  0.00  0.00    +0.000 C 
ENDBRANCH  10  25
TORSDOF 5
ENDMDL
MODEL 8
REMARK VINA RESULT:      -7.1      2.474      4.009
REMARK  Name = 75072284
REMARK  5 active torsions:
REMARK  status: ('A' for Active; 'I' for Inactive)
REMARK    1  A    between atoms: O_4  and  C_18
REMARK    2  A    between atoms: O_5  and  C_19
REMARK    3  A    between atoms: O_6  and  C_20
REMARK    4  A    between atoms: O_7  and  C_22
REMARK    5  A    between atoms: C_8  and  C_12
REMARK                            x       y       z     vdW  Elec       q    Type
REMARK                         _______ _______ _______ _____ _____    ______ ____
ROOT
ATOM      1  O   UNL     1     104.959 125.554 146.593  0.00  0.00    +0.000 OA
ATOM      2  O   UNL     1     105.307 126.911 145.674  0.00  0.00    +0.000 OA
ATOM      3  C   UNL     1     104.781 124.885 147.042  0.00  0.00    +0.000 C 
ATOM      4  C   UNL     1     105.311 124.619 147.616  0.00  0.00    +0.000 C 
ATOM      5  C   UNL     1     106.020 125.022 147.740  0.00  0.00    +0.000 C 
ATOM      6  C   UNL     1     106.199 125.691 147.292  0.00  0.00    +0.000 A 
ATOM      7  C   UNL     1     105.668 125.957 146.718  0.00  0.00    +0.000 A 
ATOM      8  C   UNL     1     106.941 126.102 147.431  0.00  0.00    +0.000 A 
ATOM      9  C   UNL     1     105.843 126.652 146.245  0.00  0.00    +0.000 A 
ATOM     10  C   UNL     1     106.580 127.076 146.370  0.00  0.00    +0.000 A 
ATOM     11  C   UNL     1     107.132 126.799 146.967  0.00  0.00    +0.000 A 
ENDROOT
BRANCH   3  13
ATOM     12  O   UNL     1     104.750 123.546 146.077  0.00  0.00    +0.000 OA
ATOM     13  C   UNL     1     104.072 124.482 146.917  0.00  0.00    +0.000 A 
ATOM     14  C   UNL     1     104.056 123.813 146.435  0.00  0.00    +0.000 A 
ATOM     15  C   UNL     1     103.377 124.749 147.275  0.00  0.00    +0.000 A 
ATOM     16  C   UNL     1     103.346 123.411 146.310  0.00  0.00    +0.000 A 
ATOM     17  C   UNL     1     102.668 124.347 147.150  0.00  0.00    +0.000 A 
ATOM     18  C   UNL     1     102.653 123.678 146.667  0.00  0.00    +0.000 A 
BRANCH  16  19
ATOM     19  O   UNL     1     103.331 122.742 145.828  0.00  0.00    +0.000 OA
ATOM     20  C   UNL     1     103.437 122.817 145.013  0.00  0.00    +0.000 C 
ENDBRANCH  16  19
BRANCH  17  21
ATOM     21  O   UNL     1     101.974 124.614 147.508  0.00  0.00    +0.000 OA
ATOM     22  C   UNL     1     101.947 125.366 147.847  0.00  0.00    +0.000 C 
ENDBRANCH  17  21
BRANCH  18  23
ATOM     23  O   UNL     1     101.943 123.276 146.543  0.00  0.00    +0.000 OA
ATOM     24  C   UNL     1     101.661 122.750 147.112  0.00  0.00    +0.000 C 
ENDBRANCH  18  23
ENDBRANCH   3  13
BRANCH  10  25
ATOM     25  O   UNL     1     106.755 127.745 145.919  0.00  0.00    +0.000 OA
ATOM     26  C   UNL     1     107.439 128.179 146.075  0.00  0.00    +0.000 C 
ENDBRANCH  10  25
TORSDOF 5
ENDMDL
MODEL 9
REMARK VINA RESULT:      -7.1     10.461     11.465
REMARK  Name = 75072284
REMARK  5 active torsions:
REMARK  status: ('A' for Active; 'I' for Inactive)
REMARK    1  A    between atoms: O_4  and  C_18
REMARK    2  A    between atoms: O_5  and  C_19
REMARK    3  A    between atoms: O_6  and  C_20
REMARK    4  A    between atoms: O_7  and  C_22
REMARK    5  A    between atoms: C_8  and  C_12
REMARK                            x       y       z     vdW  Elec       q    Type
REMARK                         _______ _______ _______ _____ _____    ______ ____
ROOT
ATOM      1  O   UNL     1     112.957 127.534 137.444  0.00  0.00    +0.000 OA
ATOM      2  O   UNL     1     112.826 128.337 138.909  0.00  0.00    +0.000 OA
ATOM      3  C   UNL     1     113.019 127.131 136.726  0.00  0.00    +0.000 C 
ATOM      4  C   UNL     1     113.276 127.529 136.050  0.00  0.00    +0.000 C 
ATOM      5  C   UNL     1     113.471 128.330 136.093  0.00  0.00    +0.000 C 
ATOM      6  C   UNL     1     113.410 128.732 136.810  0.00  0.00    +0.000 A 
ATOM      7  C   UNL     1     113.153 128.335 137.485  0.00  0.00    +0.000 A 
ATOM      8  C   UNL     1     113.616 129.566 136.840  0.00  0.00    +0.000 A 
ATOM      9  C   UNL     1     113.084 128.743 138.238  0.00  0.00    +0.000 A 
ATOM     10  C   UNL     1     113.286 129.577 138.288  0.00  0.00    +0.000 A 
ATOM     11  C   UNL     1     113.554 129.991 137.585  0.00  0.00    +0.000 A 
ENDROOT
BRANCH   3  13
ATOM     12  O   UNL     1     111.500 126.674 136.273  0.00  0.00    +0.000 OA
ATOM     13  C   UNL     1     112.824 126.331 136.685  0.00  0.00    +0.000 A 
ATOM     14  C   UNL     1     112.064 126.102 136.458  0.00  0.00    +0.000 A 
ATOM     15  C   UNL     1     113.389 125.759 136.871  0.00  0.00    +0.000 A 
ATOM     16  C   UNL     1     111.870 125.301 136.418  0.00  0.00    +0.000 A 
ATOM     17  C   UNL     1     113.194 124.958 136.829  0.00  0.00    +0.000 A 
ATOM     18  C   UNL     1     112.434 124.730 136.603  0.00  0.00    +0.000 A 
BRANCH  16  19
ATOM     19  O   UNL     1     111.111 125.073 136.191  0.00  0.00    +0.000 OA
ATOM     20  C   UNL     1     110.840 125.235 135.429  0.00  0.00    +0.000 C 
ENDBRANCH  16  19
BRANCH  17  21
ATOM     21  O   UNL     1     113.760 124.386 137.015  0.00  0.00    +0.000 OA
ATOM     22  C   UNL     1     114.528 124.614 137.211  0.00  0.00    +0.000 C 
ENDBRANCH  17  21
BRANCH  18  23
ATOM     23  O   UNL     1     112.240 123.929 136.562  0.00  0.00    +0.000 OA
ATOM     24  C   UNL     1     111.960 123.537 137.231  0.00  0.00    +0.000 C 
ENDBRANCH  18  23
ENDBRANCH   3  13
BRANCH  10  25
ATOM     25  O   UNL     1     113.223 129.977 139.007  0.00  0.00    +0.000 OA
ATOM     26  C   UNL     1     113.722 130.614 139.170  0.00  0.00    +0.000 C 
ENDBRANCH  10  25
TORSDOF 5
ENDMDL
MODEL 10
REMARK VINA RESULT:      -7.1      8.405      9.391
REMARK  Name = 75072284
REMARK  5 active torsions:
REMARK  status: ('A' for Active; 'I' for Inactive)
REMARK    1  A    between atoms: O_4  and  C_18
REMARK    2  A    between atoms: O_5  and  C_19
REMARK    3  A    between atoms: O_6  and  C_20
REMARK    4  A    between atoms: O_7  and  C_22
REMARK    5  A    between atoms: C_8  and  C_12
REMARK                            x       y       z     vdW  Elec       q    Type
REMARK                         _______ _______ _______ _____ _____    ______ ____
ROOT
ATOM      1  O   UNL     1     110.001 133.575 146.995  0.00  0.00    +0.000 OA
ATOM      2  O   UNL     1     109.836 134.304 148.494  0.00  0.00    +0.000 OA
ATOM      3  C   UNL     1     110.090 133.218 146.256  0.00  0.00    +0.000 C 
ATOM      4  C   UNL     1     109.447 132.849 145.895  0.00  0.00    +0.000 C 
ATOM      5  C   UNL     1     108.713 132.837 146.273  0.00  0.00    +0.000 C 
ATOM      6  C   UNL     1     108.624 133.193 147.011  0.00  0.00    +0.000 A 
ATOM      7  C   UNL     1     109.267 133.562 147.372  0.00  0.00    +0.000 A 
ATOM      8  C   UNL     1     107.855 133.174 147.395  0.00  0.00    +0.000 A 
ATOM      9  C   UNL     1     109.186 133.938 148.141  0.00  0.00    +0.000 A 
ATOM     10  C   UNL     1     108.425 133.928 148.539  0.00  0.00    +0.000 A 
ATOM     11  C   UNL     1     107.755 133.544 148.163  0.00  0.00    +0.000 A 
ENDROOT
BRANCH   3  13
ATOM     12  O   UNL     1     110.350 134.240 144.987  0.00  0.00    +0.000 OA
ATOM     13  C   UNL     1     110.824 133.230 145.878  0.00  0.00    +0.000 A 
ATOM     14  C   UNL     1     110.954 133.741 145.244  0.00  0.00    +0.000 A 
ATOM     15  C   UNL     1     111.429 132.730 146.137  0.00  0.00    +0.000 A 
ATOM     16  C   UNL     1     111.688 133.752 144.868  0.00  0.00    +0.000 A 
ATOM     17  C   UNL     1     112.162 132.743 145.759  0.00  0.00    +0.000 A 
ATOM     18  C   UNL     1     112.292 133.254 145.125  0.00  0.00    +0.000 A 
BRANCH  16  19
ATOM     19  O   UNL     1     111.818 134.264 144.233  0.00  0.00    +0.000 OA
ATOM     20  C   UNL     1     111.924 135.070 144.368  0.00  0.00    +0.000 C 
ENDBRANCH  16  19
BRANCH  17  21
ATOM     21  O   UNL     1     112.767 132.243 146.017  0.00  0.00    +0.000 OA
ATOM     22  C   UNL     1     112.830 132.051 146.817  0.00  0.00    +0.000 C 
ENDBRANCH  17  21
BRANCH  18  23
ATOM     23  O   UNL     1     113.026 133.265 144.748  0.00  0.00    +0.000 OA
ATOM     24  C   UNL     1     113.178 132.748 144.125  0.00  0.00    +0.000 C 
ENDBRANCH  18  23
ENDBRANCH   3  13
BRANCH  10  25
ATOM     25  O   UNL     1     108.339 134.287 149.278  0.00  0.00    +0.000 OA
ATOM     26  C   UNL     1     107.589 134.367 149.611  0.00  0.00    +0.000 C 
ENDBRANCH  10  25
TORSDOF 5
ENDMDL
