MODEL 1
REMARK VINA RESULT:     -10.2      0.000      0.000
REMARK  Name = 73840313
REMARK  7 active torsions:
REMARK  status: ('A' for Active; 'I' for Inactive)
REMARK    1  A    between atoms: O_1  and  C_16
REMARK    2  A    between atoms: O_1  and  C_19
REMARK    3  A    between atoms: O_7  and  C_25
REMARK    4  A    between atoms: O_7  and  C_28
REMARK    5  A    between atoms: C_18  and  C_26
REMARK    6  A    between atoms: C_24  and  C_27
REMARK    7  A    between atoms: C_35  and  C_37
REMARK                            x       y       z     vdW  Elec       q    Type
REMARK                         _______ _______ _______ _____ _____    ______ ____
ROOT
ATOM      1  O   UNL     1     109.851 127.606 135.389  0.00  0.00    +0.000 OA
ATOM      2  O   UNL     1     110.207 129.992 134.838  0.00  0.00    +0.000 OA
ATOM      3  O   UNL     1     111.437 128.910 134.649  0.00  0.00    +0.000 OA
ATOM      4  C   UNL     1     109.354 128.943 135.300  0.00  0.00    +0.000 C 
ATOM      5  C   UNL     1     110.089 129.197 135.022  0.00  0.00    +0.000 C 
ATOM      6  C   UNL     1     109.236 128.147 135.484  0.00  0.00    +0.000 C 
ATOM      7  C   UNL     1     110.704 128.655 134.927  0.00  0.00    +0.000 C 
ATOM      8  C   UNL     1     110.585 127.860 135.111  0.00  0.00    +0.000 C 
ENDROOT
BRANCH   6  10
ATOM      9  O   UNL     1     108.265 127.111 135.647  0.00  0.00    +0.000 OA
ATOM     10  C   UNL     1     108.501 127.893 135.762  0.00  0.00    +0.000 C 
ENDBRANCH   6  10
BRANCH   4  11
ATOM     11  O   UNL     1     108.739 129.484 135.395  0.00  0.00    +0.000 OA
BRANCH  11  16
ATOM     12  O   UNL     1     109.125 129.741 136.746  0.00  0.00    +0.000 OA
ATOM     13  O   UNL     1     107.836 130.865 135.390  0.00  0.00    +0.000 OA
ATOM     14  O   UNL     1     107.770 131.812 136.740  0.00  0.00    +0.000 OA
ATOM     15  O   UNL     1     108.607 131.378 138.093  0.00  0.00    +0.000 OA
ATOM     16  C   UNL     1     108.706 129.957 136.069  0.00  0.00    +0.000 C 
ATOM     17  C   UNL     1     108.255 130.648 136.067  0.00  0.00    +0.000 C 
ATOM     18  C   UNL     1     108.222 131.122 136.742  0.00  0.00    +0.000 C 
ATOM     19  C   UNL     1     108.641 130.904 137.419  0.00  0.00    +0.000 C 
ATOM     20  C   UNL     1     109.092 130.214 137.421  0.00  0.00    +0.000 C 
BRANCH  20  22
ATOM     21  O   UNL     1     109.264 129.350 138.546  0.00  0.00    +0.000 OA
ATOM     22  C   UNL     1     109.510 129.997 138.097  0.00  0.00    +0.000 C 
ENDBRANCH  20  22
ENDBRANCH  11  16
ENDBRANCH   4  11
BRANCH   8  23
ATOM     23  O   UNL     1     111.200 127.319 135.017  0.00  0.00    +0.000 OA
BRANCH  23  27
ATOM     24  O   UNL     1     112.202 126.686 137.677  0.00  0.00    +0.000 OA
ATOM     25  O   UNL     1     111.180 124.568 135.998  0.00  0.00    +0.000 OA
ATOM     26  O   UNL     1     111.684 124.291 137.321  0.00  0.00    +0.000 OA
ATOM     27  C   UNL     1     111.359 126.767 135.609  0.00  0.00    +0.000 A 
ATOM     28  C   UNL     1     111.706 127.019 136.354  0.00  0.00    +0.000 A 
ATOM     29  C   UNL     1     111.180 125.936 135.485  0.00  0.00    +0.000 A 
ATOM     30  C   UNL     1     111.869 126.437 136.965  0.00  0.00    +0.000 A 
ATOM     31  C   UNL     1     111.349 125.368 136.108  0.00  0.00    +0.000 A 
ATOM     32  C   UNL     1     111.696 125.639 136.846  0.00  0.00    +0.000 A 
ATOM     33  C   UNL     1     111.856 125.089 137.439  0.00  0.00    +0.000 A 
ATOM     34  C   UNL     1     112.362 126.136 138.271  0.00  0.00    +0.000 A 
ATOM     35  C   UNL     1     112.189 125.338 138.152  0.00  0.00    +0.000 A 
BRANCH  34  37
ATOM     36  O   UNL     1     113.695 127.129 141.122  0.00  0.00    +0.000 OA
ATOM     37  C   UNL     1     112.695 126.384 138.984  0.00  0.00    +0.000 A 
ATOM     38  C   UNL     1     112.210 126.546 139.631  0.00  0.00    +0.000 A 
ATOM     39  C   UNL     1     113.513 126.471 139.049  0.00  0.00    +0.000 A 
ATOM     40  C   UNL     1     112.544 126.794 140.345  0.00  0.00    +0.000 A 
ATOM     41  C   UNL     1     113.846 126.719 139.762  0.00  0.00    +0.000 A 
ATOM     42  C   UNL     1     113.361 126.880 140.409  0.00  0.00    +0.000 A 
ENDBRANCH  34  37
ENDBRANCH  23  27
ENDBRANCH   8  23
TORSDOF 7
ENDMDL
MODEL 2
REMARK VINA RESULT:     -10.1      1.510      2.148
REMARK  Name = 73840313
REMARK  7 active torsions:
REMARK  status: ('A' for Active; 'I' for Inactive)
REMARK    1  A    between atoms: O_1  and  C_16
REMARK    2  A    between atoms: O_1  and  C_19
REMARK    3  A    between atoms: O_7  and  C_25
REMARK    4  A    between atoms: O_7  and  C_28
REMARK    5  A    between atoms: C_18  and  C_26
REMARK    6  A    between atoms: C_24  and  C_27
REMARK    7  A    between atoms: C_35  and  C_37
REMARK                            x       y       z     vdW  Elec       q    Type
REMARK                         _______ _______ _______ _____ _____    ______ ____
ROOT
ATOM      1  O   UNL     1     109.639 128.900 135.539  0.00  0.00    +0.000 OA
ATOM      2  O   UNL     1     110.921 131.003 135.786  0.00  0.00    +0.000 OA
ATOM      3  O   UNL     1     111.466 129.817 134.776  0.00  0.00    +0.000 OA
ATOM      4  C   UNL     1     109.793 130.194 136.126  0.00  0.00    +0.000 C 
ATOM      5  C   UNL     1     110.494 130.302 135.703  0.00  0.00    +0.000 C 
ATOM      6  C   UNL     1     109.366 129.493 136.044  0.00  0.00    +0.000 C 
ATOM      7  C   UNL     1     110.767 129.709 135.199  0.00  0.00    +0.000 C 
ATOM      8  C   UNL     1     110.338 129.008 135.117  0.00  0.00    +0.000 C 
ENDROOT
BRANCH   6  10
ATOM      9  O   UNL     1     108.042 128.962 136.131  0.00  0.00    +0.000 OA
ATOM     10  C   UNL     1     108.665 129.385 136.467  0.00  0.00    +0.000 C 
ENDBRANCH   6  10
BRANCH   4  11
ATOM     11  O   UNL     1     109.520 130.787 136.631  0.00  0.00    +0.000 OA
BRANCH  11  16
ATOM     12  O   UNL     1     110.255 130.249 137.732  0.00  0.00    +0.000 OA
ATOM     13  O   UNL     1     109.395 132.231 137.420  0.00  0.00    +0.000 OA
ATOM     14  O   UNL     1     110.067 132.415 138.915  0.00  0.00    +0.000 OA
ATOM     15  O   UNL     1     110.863 131.155 139.622  0.00  0.00    +0.000 OA
ATOM     16  C   UNL     1     109.856 130.878 137.378  0.00  0.00    +0.000 C 
ATOM     17  C   UNL     1     109.793 131.600 137.773  0.00  0.00    +0.000 C 
ATOM     18  C   UNL     1     110.129 131.693 138.521  0.00  0.00    +0.000 C 
ATOM     19  C   UNL     1     110.528 131.062 138.874  0.00  0.00    +0.000 C 
ATOM     20  C   UNL     1     110.590 130.340 138.480  0.00  0.00    +0.000 C 
BRANCH  20  22
ATOM     21  O   UNL     1     111.710 129.454 138.527  0.00  0.00    +0.000 OA
ATOM     22  C   UNL     1     110.988 129.711 138.833  0.00  0.00    +0.000 C 
ENDBRANCH  20  22
ENDBRANCH  11  16
ENDBRANCH   4  11
BRANCH   8  23
ATOM     23  O   UNL     1     110.611 128.415 134.612  0.00  0.00    +0.000 OA
BRANCH  23  27
ATOM     24  O   UNL     1     112.239 126.517 136.106  0.00  0.00    +0.000 OA
ATOM     25  O   UNL     1     109.768 125.634 134.896  0.00  0.00    +0.000 OA
ATOM     26  O   UNL     1     110.599 124.721 135.643  0.00  0.00    +0.000 OA
ATOM     27  C   UNL     1     110.738 127.653 134.901  0.00  0.00    +0.000 A 
ATOM     28  C   UNL     1     111.440 127.476 135.365  0.00  0.00    +0.000 A 
ATOM     29  C   UNL     1     110.169 127.029 134.740  0.00  0.00    +0.000 A 
ATOM     30  C   UNL     1     111.563 126.679 135.662  0.00  0.00    +0.000 A 
ATOM     31  C   UNL     1     110.309 126.238 135.045  0.00  0.00    +0.000 A 
ATOM     32  C   UNL     1     111.016 126.081 135.507  0.00  0.00    +0.000 A 
ATOM     33  C   UNL     1     111.145 125.319 135.797  0.00  0.00    +0.000 A 
ATOM     34  C   UNL     1     112.367 125.756 136.396  0.00  0.00    +0.000 A 
ATOM     35  C   UNL     1     111.821 125.157 136.241  0.00  0.00    +0.000 A 
BRANCH  34  37
ATOM     36  O   UNL     1     115.069 125.103 138.175  0.00  0.00    +0.000 OA
ATOM     37  C   UNL     1     113.043 125.592 136.841  0.00  0.00    +0.000 A 
ATOM     38  C   UNL     1     113.667 125.170 136.504  0.00  0.00    +0.000 A 
ATOM     39  C   UNL     1     113.095 125.851 137.622  0.00  0.00    +0.000 A 
ATOM     40  C   UNL     1     114.343 125.007 136.949  0.00  0.00    +0.000 A 
ATOM     41  C   UNL     1     113.771 125.688 138.067  0.00  0.00    +0.000 A 
ATOM     42  C   UNL     1     114.394 125.266 137.730  0.00  0.00    +0.000 A 
ENDBRANCH  34  37
ENDBRANCH  23  27
ENDBRANCH   8  23
TORSDOF 7
ENDMDL
MODEL 3
REMARK VINA RESULT:     -10.0      1.567      2.314
REMARK  Name = 73840313
REMARK  7 active torsions:
REMARK  status: ('A' for Active; 'I' for Inactive)
REMARK    1  A    between atoms: O_1  and  C_16
REMARK    2  A    between atoms: O_1  and  C_19
REMARK    3  A    between atoms: O_7  and  C_25
REMARK    4  A    between atoms: O_7  and  C_28
REMARK    5  A    between atoms: C_18  and  C_26
REMARK    6  A    between atoms: C_24  and  C_27
REMARK    7  A    between atoms: C_35  and  C_37
REMARK                            x       y       z     vdW  Elec       q    Type
REMARK                         _______ _______ _______ _____ _____    ______ ____
ROOT
ATOM      1  O   UNL     1     110.195 128.648 135.868  0.00  0.00    +0.000 OA
ATOM      2  O   UNL     1     108.104 129.969 135.795  0.00  0.00    +0.000 OA
ATOM      3  O   UNL     1     108.041 128.321 135.757  0.00  0.00    +0.000 OA
ATOM      4  C   UNL     1     109.530 129.913 135.863  0.00  0.00    +0.000 C 
ATOM      5  C   UNL     1     108.801 129.528 135.819  0.00  0.00    +0.000 C 
ATOM      6  C   UNL     1     110.227 129.472 135.887  0.00  0.00    +0.000 C 
ATOM      7  C   UNL     1     108.769 128.704 135.801  0.00  0.00    +0.000 C 
ATOM      8  C   UNL     1     109.467 128.264 135.825  0.00  0.00    +0.000 C 
ENDROOT
BRANCH   6  10
ATOM      9  O   UNL     1     111.600 129.568 135.503  0.00  0.00    +0.000 OA
ATOM     10  C   UNL     1     110.956 129.857 135.931  0.00  0.00    +0.000 C 
ENDBRANCH   6  10
BRANCH   4  11
ATOM     11  O   UNL     1     109.562 130.737 135.881  0.00  0.00    +0.000 OA
BRANCH  11  16
ATOM     12  O   UNL     1     109.427 130.713 137.304  0.00  0.00    +0.000 OA
ATOM     13  O   UNL     1     109.755 132.375 135.928  0.00  0.00    +0.000 OA
ATOM     14  O   UNL     1     109.717 133.170 137.373  0.00  0.00    +0.000 OA
ATOM     15  O   UNL     1     109.485 132.326 138.772  0.00  0.00    +0.000 OA
ATOM     16  C   UNL     1     109.542 131.134 136.604  0.00  0.00    +0.000 C 
ATOM     17  C   UNL     1     109.639 131.953 136.627  0.00  0.00    +0.000 C 
ATOM     18  C   UNL     1     109.620 132.351 137.350  0.00  0.00    +0.000 C 
ATOM     19  C   UNL     1     109.504 131.928 138.049  0.00  0.00    +0.000 C 
ATOM     20  C   UNL     1     109.407 131.109 138.026  0.00  0.00    +0.000 C 
BRANCH  20  22
ATOM     21  O   UNL     1     108.553 130.360 138.893  0.00  0.00    +0.000 OA
ATOM     22  C   UNL     1     109.292 130.688 138.725  0.00  0.00    +0.000 C 
ENDBRANCH  20  22
ENDBRANCH  11  16
ENDBRANCH   4  11
BRANCH   8  23
ATOM     23  O   UNL     1     109.435 127.440 135.807  0.00  0.00    +0.000 OA
BRANCH  23  27
ATOM     24  O   UNL     1     111.689 125.967 136.917  0.00  0.00    +0.000 OA
ATOM     25  O   UNL     1     109.251 126.209 138.448  0.00  0.00    +0.000 OA
ATOM     26  O   UNL     1     110.387 125.487 138.967  0.00  0.00    +0.000 OA
ATOM     27  C   UNL     1     109.771 127.000 136.418  0.00  0.00    +0.000 A 
ATOM     28  C   UNL     1     110.575 126.705 136.348  0.00  0.00    +0.000 A 
ATOM     29  C   UNL     1     109.319 126.834 137.130  0.00  0.00    +0.000 A 
ATOM     30  C   UNL     1     110.916 126.247 136.991  0.00  0.00    +0.000 A 
ATOM     31  C   UNL     1     109.677 126.374 137.761  0.00  0.00    +0.000 A 
ATOM     32  C   UNL     1     110.482 126.088 137.674  0.00  0.00    +0.000 A 
ATOM     33  C   UNL     1     110.820 125.647 138.284  0.00  0.00    +0.000 A 
ATOM     34  C   UNL     1     112.027 125.527 137.527  0.00  0.00    +0.000 A 
ATOM     35  C   UNL     1     111.593 125.367 138.210  0.00  0.00    +0.000 A 
BRANCH  34  37
ATOM     36  O   UNL     1     115.117 124.405 137.236  0.00  0.00    +0.000 OA
ATOM     37  C   UNL     1     112.799 125.246 137.454  0.00  0.00    +0.000 A 
ATOM     38  C   UNL     1     112.947 124.548 137.040  0.00  0.00    +0.000 A 
ATOM     39  C   UNL     1     113.424 125.664 137.795  0.00  0.00    +0.000 A 
ATOM     40  C   UNL     1     113.720 124.267 136.967  0.00  0.00    +0.000 A 
ATOM     41  C   UNL     1     114.196 125.383 137.723  0.00  0.00    +0.000 A 
ATOM     42  C   UNL     1     114.344 124.685 137.308  0.00  0.00    +0.000 A 
ENDBRANCH  34  37
ENDBRANCH  23  27
ENDBRANCH   8  23
TORSDOF 7
ENDMDL
MODEL 4
REMARK VINA RESULT:      -9.9      8.053      9.680
REMARK  Name = 73840313
REMARK  7 active torsions:
REMARK  status: ('A' for Active; 'I' for Inactive)
REMARK    1  A    between atoms: O_1  and  C_16
REMARK    2  A    between atoms: O_1  and  C_19
REMARK    3  A    between atoms: O_7  and  C_25
REMARK    4  A    between atoms: O_7  and  C_28
REMARK    5  A    between atoms: C_18  and  C_26
REMARK    6  A    between atoms: C_24  and  C_27
REMARK    7  A    between atoms: C_35  and  C_37
REMARK                            x       y       z     vdW  Elec       q    Type
REMARK                         _______ _______ _______ _____ _____    ______ ____
ROOT
ATOM      1  O   UNL     1     106.729 126.287 142.583  0.00  0.00    +0.000 OA
ATOM      2  O   UNL     1     104.922 126.661 140.933  0.00  0.00    +0.000 OA
ATOM      3  O   UNL     1     104.856 127.394 142.409  0.00  0.00    +0.000 OA
ATOM      4  C   UNL     1     106.160 126.045 141.294  0.00  0.00    +0.000 C 
ATOM      5  C   UNL     1     105.524 126.537 141.483  0.00  0.00    +0.000 C 
ATOM      6  C   UNL     1     106.762 125.920 141.844  0.00  0.00    +0.000 C 
ATOM      7  C   UNL     1     105.491 126.903 142.221  0.00  0.00    +0.000 C 
ATOM      8  C   UNL     1     106.094 126.778 142.771  0.00  0.00    +0.000 C 
ENDROOT
BRANCH   6  10
ATOM      9  O   UNL     1     108.160 125.631 141.894  0.00  0.00    +0.000 OA
ATOM     10  C   UNL     1     107.397 125.428 141.655  0.00  0.00    +0.000 C 
ENDBRANCH   6  10
BRANCH   4  11
ATOM     11  O   UNL     1     106.193 125.678 140.556  0.00  0.00    +0.000 OA
BRANCH  11  16
ATOM     12  O   UNL     1     105.611 124.476 141.062  0.00  0.00    +0.000 OA
ATOM     13  O   UNL     1     105.731 125.259 139.028  0.00  0.00    +0.000 OA
ATOM     14  O   UNL     1     104.917 123.847 138.771  0.00  0.00    +0.000 OA
ATOM     15  O   UNL     1     104.566 122.855 140.041  0.00  0.00    +0.000 OA
ATOM     16  C   UNL     1     105.786 124.973 140.427  0.00  0.00    +0.000 C 
ATOM     17  C   UNL     1     105.555 124.763 139.663  0.00  0.00    +0.000 C 
ATOM     18  C   UNL     1     105.148 124.057 139.535  0.00  0.00    +0.000 C 
ATOM     19  C   UNL     1     104.973 123.561 140.170  0.00  0.00    +0.000 C 
ATOM     20  C   UNL     1     105.204 123.770 140.934  0.00  0.00    +0.000 C 
BRANCH  20  22
ATOM     21  O   UNL     1     104.491 123.516 142.146  0.00  0.00    +0.000 OA
ATOM     22  C   UNL     1     105.028 123.274 141.568  0.00  0.00    +0.000 C 
ENDBRANCH  20  22
ENDBRANCH  11  16
ENDBRANCH   4  11
BRANCH   8  23
ATOM     23  O   UNL     1     106.061 127.144 143.509  0.00  0.00    +0.000 OA
BRANCH  23  27
ATOM     24  O   UNL     1     104.776 125.197 145.253  0.00  0.00    +0.000 OA
ATOM     25  O   UNL     1     107.348 126.291 145.988  0.00  0.00    +0.000 OA
ATOM     26  O   UNL     1     106.682 125.325 146.827  0.00  0.00    +0.000 OA
ATOM     27  C   UNL     1     106.062 126.689 144.197  0.00  0.00    +0.000 A 
ATOM     28  C   UNL     1     105.402 126.167 144.372  0.00  0.00    +0.000 A 
ATOM     29  C   UNL     1     106.724 126.733 144.743  0.00  0.00    +0.000 A 
ATOM     30  C   UNL     1     105.413 125.696 145.091  0.00  0.00    +0.000 A 
ATOM     31  C   UNL     1     106.717 126.255 145.457  0.00  0.00    +0.000 A 
ATOM     32  C   UNL     1     106.049 125.739 145.615  0.00  0.00    +0.000 A 
ATOM     33  C   UNL     1     106.048 125.282 146.303  0.00  0.00    +0.000 A 
ATOM     34  C   UNL     1     104.776 124.740 145.940  0.00  0.00    +0.000 A 
ATOM     35  C   UNL     1     105.411 124.783 146.464  0.00  0.00    +0.000 A 
BRANCH  34  37
ATOM     36  O   UNL     1     102.230 122.744 146.591  0.00  0.00    +0.000 OA
ATOM     37  C   UNL     1     104.139 124.241 146.102  0.00  0.00    +0.000 A 
ATOM     38  C   UNL     1     104.095 123.500 145.743  0.00  0.00    +0.000 A 
ATOM     39  C   UNL     1     103.548 124.483 146.624  0.00  0.00    +0.000 A 
ATOM     40  C   UNL     1     103.458 123.000 145.906  0.00  0.00    +0.000 A 
ATOM     41  C   UNL     1     102.912 123.984 146.787  0.00  0.00    +0.000 A 
ATOM     42  C   UNL     1     102.867 123.242 146.428  0.00  0.00    +0.000 A 
ENDBRANCH  34  37
ENDBRANCH  23  27
ENDBRANCH   8  23
TORSDOF 7
ENDMDL
MODEL 5
REMARK VINA RESULT:      -9.9      2.332      4.564
REMARK  Name = 73840313
REMARK  7 active torsions:
REMARK  status: ('A' for Active; 'I' for Inactive)
REMARK    1  A    between atoms: O_1  and  C_16
REMARK    2  A    between atoms: O_1  and  C_19
REMARK    3  A    between atoms: O_7  and  C_25
REMARK    4  A    between atoms: O_7  and  C_28
REMARK    5  A    between atoms: C_18  and  C_26
REMARK    6  A    between atoms: C_24  and  C_27
REMARK    7  A    between atoms: C_35  and  C_37
REMARK                            x       y       z     vdW  Elec       q    Type
REMARK                         _______ _______ _______ _____ _____    ______ ____
ROOT
ATOM      1  O   UNL     1     112.127 129.965 136.703  0.00  0.00    +0.000 OA
ATOM      2  O   UNL     1     114.527 130.142 137.281  0.00  0.00    +0.000 OA
ATOM      3  O   UNL     1     114.073 129.517 135.823  0.00  0.00    +0.000 OA
ATOM      4  C   UNL     1     113.154 130.336 137.625  0.00  0.00    +0.000 C 
ATOM      5  C   UNL     1     113.727 130.083 137.088  0.00  0.00    +0.000 C 
ATOM      6  C   UNL     1     112.354 130.277 137.432  0.00  0.00    +0.000 C 
ATOM      7  C   UNL     1     113.501 129.770 136.359  0.00  0.00    +0.000 C 
ATOM      8  C   UNL     1     112.700 129.712 136.167  0.00  0.00    +0.000 C 
ENDROOT
BRANCH   6  10
ATOM      9  O   UNL     1     111.104 130.915 137.697  0.00  0.00    +0.000 OA
ATOM     10  C   UNL     1     111.781 130.530 137.969  0.00  0.00    +0.000 C 
ENDBRANCH   6  10
BRANCH   4  11
ATOM     11  O   UNL     1     113.381 130.648 138.354  0.00  0.00    +0.000 OA
BRANCH  11  16
ATOM     12  O   UNL     1     113.277 129.375 138.994  0.00  0.00    +0.000 OA
ATOM     13  O   UNL     1     114.374 131.175 139.562  0.00  0.00    +0.000 OA
ATOM     14  O   UNL     1     114.767 130.164 140.806  0.00  0.00    +0.000 OA
ATOM     15  O   UNL     1     114.167 128.629 140.842  0.00  0.00    +0.000 OA
ATOM     16  C   UNL     1     113.577 130.144 138.975  0.00  0.00    +0.000 C 
ATOM     17  C   UNL     1     114.074 130.407 139.579  0.00  0.00    +0.000 C 
ATOM     18  C   UNL     1     114.270 129.901 140.202  0.00  0.00    +0.000 C 
ATOM     19  C   UNL     1     113.970 129.133 140.219  0.00  0.00    +0.000 C 
ATOM     20  C   UNL     1     113.473 128.870 139.615  0.00  0.00    +0.000 C 
BRANCH  20  22
ATOM     21  O   UNL     1     113.420 127.549 139.074  0.00  0.00    +0.000 OA
ATOM     22  C   UNL     1     113.173 128.102 139.634  0.00  0.00    +0.000 C 
ENDBRANCH  20  22
ENDBRANCH  11  16
ENDBRANCH   4  11
BRANCH   8  23
ATOM     23  O   UNL     1     112.473 129.399 135.438  0.00  0.00    +0.000 OA
BRANCH  23  27
ATOM     24  O   UNL     1     111.765 126.640 136.043  0.00  0.00    +0.000 OA
ATOM     25  O   UNL     1     109.882 128.319 134.635  0.00  0.00    +0.000 OA
ATOM     26  O   UNL     1     109.564 126.948 134.952  0.00  0.00    +0.000 OA
ATOM     27  C   UNL     1     111.935 128.775 135.405  0.00  0.00    +0.000 A 
ATOM     28  C   UNL     1     112.134 128.013 135.749  0.00  0.00    +0.000 A 
ATOM     29  C   UNL     1     111.172 128.882 135.026  0.00  0.00    +0.000 A 
ATOM     30  C   UNL     1     111.567 127.369 135.710  0.00  0.00    +0.000 A 
ATOM     31  C   UNL     1     110.617 128.226 134.997  0.00  0.00    +0.000 A 
ATOM     32  C   UNL     1     110.834 127.472 135.346  0.00  0.00    +0.000 A 
ATOM     33  C   UNL     1     110.297 126.846 135.315  0.00  0.00    +0.000 A 
ATOM     34  C   UNL     1     111.228 126.014 136.012  0.00  0.00    +0.000 A 
ATOM     35  C   UNL     1     110.495 126.117 135.648  0.00  0.00    +0.000 A 
BRANCH  34  37
ATOM     36  O   UNL     1     112.015 123.099 137.343  0.00  0.00    +0.000 OA
ATOM     37  C   UNL     1     111.425 125.286 136.345  0.00  0.00    +0.000 A 
ATOM     38  C   UNL     1     111.681 124.668 135.862  0.00  0.00    +0.000 A 
ATOM     39  C   UNL     1     111.365 125.175 137.160  0.00  0.00    +0.000 A 
ATOM     40  C   UNL     1     111.878 123.938 136.195  0.00  0.00    +0.000 A 
ATOM     41  C   UNL     1     111.562 124.446 137.493  0.00  0.00    +0.000 A 
ATOM     42  C   UNL     1     111.818 123.828 137.010  0.00  0.00    +0.000 A 
ENDBRANCH  34  37
ENDBRANCH  23  27
ENDBRANCH   8  23
TORSDOF 7
ENDMDL
MODEL 6
REMARK VINA RESULT:      -9.8      1.753      3.518
REMARK  Name = 73840313
REMARK  7 active torsions:
REMARK  status: ('A' for Active; 'I' for Inactive)
REMARK    1  A    between atoms: O_1  and  C_16
REMARK    2  A    between atoms: O_1  and  C_19
REMARK    3  A    between atoms: O_7  and  C_25
REMARK    4  A    between atoms: O_7  and  C_28
REMARK    5  A    between atoms: C_18  and  C_26
REMARK    6  A    between atoms: C_24  and  C_27
REMARK    7  A    between atoms: C_35  and  C_37
REMARK                            x       y       z     vdW  Elec       q    Type
REMARK                         _______ _______ _______ _____ _____    ______ ____
ROOT
ATOM      1  O   UNL     1     111.556 130.383 138.865  0.00  0.00    +0.000 OA
ATOM      2  O   UNL     1     111.207 131.294 136.591  0.00  0.00    +0.000 OA
ATOM      3  O   UNL     1     112.719 130.848 137.078  0.00  0.00    +0.000 OA
ATOM      4  C   UNL     1     110.683 130.909 137.864  0.00  0.00    +0.000 C 
ATOM      5  C   UNL     1     111.324 130.990 137.349  0.00  0.00    +0.000 C 
ATOM      6  C   UNL     1     110.800 130.606 138.622  0.00  0.00    +0.000 C 
ATOM      7  C   UNL     1     112.080 130.767 137.592  0.00  0.00    +0.000 C 
ATOM      8  C   UNL     1     112.195 130.464 138.351  0.00  0.00    +0.000 C 
ENDROOT
BRANCH   6  10
ATOM      9  O   UNL     1     110.243 130.725 139.932  0.00  0.00    +0.000 OA
ATOM     10  C   UNL     1     110.160 130.525 139.136  0.00  0.00    +0.000 C 
ENDBRANCH   6  10
BRANCH   4  11
ATOM     11  O   UNL     1     109.927 131.132 137.620  0.00  0.00    +0.000 OA
BRANCH  11  16
ATOM     12  O   UNL     1     109.667 129.828 137.099  0.00  0.00    +0.000 OA
ATOM     13  O   UNL     1     108.682 131.739 136.723  0.00  0.00    +0.000 OA
ATOM     14  O   UNL     1     107.799 130.738 135.754  0.00  0.00    +0.000 OA
ATOM     15  O   UNL     1     108.162 129.130 135.681  0.00  0.00    +0.000 OA
ATOM     16  C   UNL     1     109.486 130.632 137.136  0.00  0.00    +0.000 C 
ATOM     17  C   UNL     1     108.864 130.935 136.687  0.00  0.00    +0.000 C 
ATOM     18  C   UNL     1     108.422 130.434 136.202  0.00  0.00    +0.000 C 
ATOM     19  C   UNL     1     108.603 129.630 136.166  0.00  0.00    +0.000 C 
ATOM     20  C   UNL     1     109.226 129.327 136.614  0.00  0.00    +0.000 C 
BRANCH  20  22
ATOM     21  O   UNL     1     109.251 128.035 137.224  0.00  0.00    +0.000 OA
ATOM     22  C   UNL     1     109.407 128.524 136.578  0.00  0.00    +0.000 C 
ENDBRANCH  20  22
ENDBRANCH  11  16
ENDBRANCH   4  11
BRANCH   8  23
ATOM     23  O   UNL     1     112.951 130.241 138.595  0.00  0.00    +0.000 OA
BRANCH  23  27
ATOM     24  O   UNL     1     113.250 127.364 138.259  0.00  0.00    +0.000 OA
ATOM     25  O   UNL     1     113.427 128.516 140.903  0.00  0.00    +0.000 OA
ATOM     26  O   UNL     1     113.570 127.095 140.700  0.00  0.00    +0.000 OA
ATOM     27  C   UNL     1     113.077 129.492 138.917  0.00  0.00    +0.000 A 
ATOM     28  C   UNL     1     113.099 128.800 138.409  0.00  0.00    +0.000 A 
ATOM     29  C   UNL     1     113.188 129.399 139.764  0.00  0.00    +0.000 A 
ATOM     30  C   UNL     1     113.231 128.024 138.754  0.00  0.00    +0.000 A 
ATOM     31  C   UNL     1     113.319 128.616 140.091  0.00  0.00    +0.000 A 
ATOM     32  C   UNL     1     113.337 127.935 139.567  0.00  0.00    +0.000 A 
ATOM     33  C   UNL     1     113.463 127.185 139.887  0.00  0.00    +0.000 A 
ATOM     34  C   UNL     1     113.376 126.614 138.579  0.00  0.00    +0.000 A 
ATOM     35  C   UNL     1     113.483 126.525 139.393  0.00  0.00    +0.000 A 
BRANCH  34  37
ATOM     36  O   UNL     1     113.454 123.970 136.606  0.00  0.00    +0.000 OA
ATOM     37  C   UNL     1     113.395 125.953 138.086  0.00  0.00    +0.000 A 
ATOM     38  C   UNL     1     112.691 125.602 137.839  0.00  0.00    +0.000 A 
ATOM     39  C   UNL     1     114.119 125.642 137.840  0.00  0.00    +0.000 A 
ATOM     40  C   UNL     1     112.710 124.940 137.345  0.00  0.00    +0.000 A 
ATOM     41  C   UNL     1     114.139 124.982 137.347  0.00  0.00    +0.000 A 
ATOM     42  C   UNL     1     113.434 124.631 137.099  0.00  0.00    +0.000 A 
ENDBRANCH  34  37
ENDBRANCH  23  27
ENDBRANCH   8  23
TORSDOF 7
ENDMDL
MODEL 7
REMARK VINA RESULT:      -9.8      6.706      8.631
REMARK  Name = 73840313
REMARK  7 active torsions:
REMARK  status: ('A' for Active; 'I' for Inactive)
REMARK    1  A    between atoms: O_1  and  C_16
REMARK    2  A    between atoms: O_1  and  C_19
REMARK    3  A    between atoms: O_7  and  C_25
REMARK    4  A    between atoms: O_7  and  C_28
REMARK    5  A    between atoms: C_18  and  C_26
REMARK    6  A    between atoms: C_24  and  C_27
REMARK    7  A    between atoms: C_35  and  C_37
REMARK                            x       y       z     vdW  Elec       q    Type
REMARK                         _______ _______ _______ _____ _____    ______ ____
ROOT
ATOM      1  O   UNL     1     106.238 126.569 141.406  0.00  0.00    +0.000 OA
ATOM      2  O   UNL     1     108.260 127.124 142.721  0.00  0.00    +0.000 OA
ATOM      3  O   UNL     1     108.318 125.932 141.581  0.00  0.00    +0.000 OA
ATOM      4  C   UNL     1     106.883 127.350 142.414  0.00  0.00    +0.000 C 
ATOM      5  C   UNL     1     107.586 126.938 142.282  0.00  0.00    +0.000 C 
ATOM      6  C   UNL     1     106.209 127.164 141.976  0.00  0.00    +0.000 C 
ATOM      7  C   UNL     1     107.615 126.342 141.712  0.00  0.00    +0.000 C 
ATOM      8  C   UNL     1     106.941 126.158 141.274  0.00  0.00    +0.000 C 
ENDROOT
BRANCH   6  10
ATOM      9  O   UNL     1     105.024 127.783 141.470  0.00  0.00    +0.000 OA
ATOM     10  C   UNL     1     105.505 127.576 142.107  0.00  0.00    +0.000 C 
ENDBRANCH   6  10
BRANCH   4  11
ATOM     11  O   UNL     1     106.853 127.946 142.984  0.00  0.00    +0.000 OA
BRANCH  11  16
ATOM     12  O   UNL     1     106.500 126.992 143.987  0.00  0.00    +0.000 OA
ATOM     13  O   UNL     1     107.119 129.078 144.154  0.00  0.00    +0.000 OA
ATOM     14  O   UNL     1     106.898 128.691 145.743  0.00  0.00    +0.000 OA
ATOM     15  O   UNL     1     106.412 127.171 146.160  0.00  0.00    +0.000 OA
ATOM     16  C   UNL     1     106.743 127.752 143.777  0.00  0.00    +0.000 C 
ATOM     17  C   UNL     1     106.876 128.318 144.363  0.00  0.00    +0.000 C 
ATOM     18  C   UNL     1     106.765 128.124 145.158  0.00  0.00    +0.000 C 
ATOM     19  C   UNL     1     106.522 127.364 145.366  0.00  0.00    +0.000 C 
ATOM     20  C   UNL     1     106.389 126.798 144.781  0.00  0.00    +0.000 C 
BRANCH  20  22
ATOM     21  O   UNL     1     106.678 125.409 144.950  0.00  0.00    +0.000 OA
ATOM     22  C   UNL     1     106.147 126.038 144.990  0.00  0.00    +0.000 C 
ENDBRANCH  20  22
ENDBRANCH  11  16
ENDBRANCH   4  11
BRANCH   8  23
ATOM     23  O   UNL     1     106.970 125.562 140.705  0.00  0.00    +0.000 OA
BRANCH  23  27
ATOM     24  O   UNL     1     104.786 124.269 139.277  0.00  0.00    +0.000 OA
ATOM     25  O   UNL     1     105.494 123.358 141.926  0.00  0.00    +0.000 OA
ATOM     26  O   UNL     1     104.418 122.741 141.190  0.00  0.00    +0.000 OA
ATOM     27  C   UNL     1     106.374 124.993 140.672  0.00  0.00    +0.000 A 
ATOM     28  C   UNL     1     105.877 124.925 139.975  0.00  0.00    +0.000 A 
ATOM     29  C   UNL     1     106.247 124.462 141.336  0.00  0.00    +0.000 A 
ATOM     30  C   UNL     1     105.259 124.328 139.950  0.00  0.00    +0.000 A 
ATOM     31  C   UNL     1     105.624 123.872 141.294  0.00  0.00    +0.000 A 
ATOM     32  C   UNL     1     105.137 123.819 140.588  0.00  0.00    +0.000 A 
ATOM     33  C   UNL     1     104.541 123.250 140.553  0.00  0.00    +0.000 A 
ATOM     34  C   UNL     1     104.189 123.700 139.243  0.00  0.00    +0.000 A 
ATOM     35  C   UNL     1     104.067 123.191 139.880  0.00  0.00    +0.000 A 
BRANCH  34  37
ATOM     36  O   UNL     1     102.292 123.460 136.553  0.00  0.00    +0.000 OA
ATOM     37  C   UNL     1     103.715 123.640 138.570  0.00  0.00    +0.000 A 
ATOM     38  C   UNL     1     104.041 123.380 137.858  0.00  0.00    +0.000 A 
ATOM     39  C   UNL     1     102.916 123.839 138.610  0.00  0.00    +0.000 A 
ATOM     40  C   UNL     1     103.566 123.320 137.184  0.00  0.00    +0.000 A 
ATOM     41  C   UNL     1     102.441 123.779 137.937  0.00  0.00    +0.000 A 
ATOM     42  C   UNL     1     102.767 123.520 137.225  0.00  0.00    +0.000 A 
ENDBRANCH  34  37
ENDBRANCH  23  27
ENDBRANCH   8  23
TORSDOF 7
ENDMDL
MODEL 8
REMARK VINA RESULT:      -9.7      1.934      6.325
REMARK  Name = 73840313
REMARK  7 active torsions:
REMARK  status: ('A' for Active; 'I' for Inactive)
REMARK    1  A    between atoms: O_1  and  C_16
REMARK    2  A    between atoms: O_1  and  C_19
REMARK    3  A    between atoms: O_7  and  C_25
REMARK    4  A    between atoms: O_7  and  C_28
REMARK    5  A    between atoms: C_18  and  C_26
REMARK    6  A    between atoms: C_24  and  C_27
REMARK    7  A    between atoms: C_35  and  C_37
REMARK                            x       y       z     vdW  Elec       q    Type
REMARK                         _______ _______ _______ _____ _____    ______ ____
ROOT
ATOM      1  O   UNL     1     112.051 128.369 137.371  0.00  0.00    +0.000 OA
ATOM      2  O   UNL     1     111.850 126.763 135.499  0.00  0.00    +0.000 OA
ATOM      3  O   UNL     1     112.349 128.309 135.210  0.00  0.00    +0.000 OA
ATOM      4  C   UNL     1     111.735 127.060 136.892  0.00  0.00    +0.000 C 
ATOM      5  C   UNL     1     111.917 127.298 136.123  0.00  0.00    +0.000 C 
ATOM      6  C   UNL     1     111.802 127.596 137.516  0.00  0.00    +0.000 C 
ATOM      7  C   UNL     1     112.166 128.071 135.978  0.00  0.00    +0.000 C 
ATOM      8  C   UNL     1     112.233 128.606 136.603  0.00  0.00    +0.000 C 
ENDROOT
BRANCH   6  10
ATOM      9  O   UNL     1     111.402 127.919 138.849  0.00  0.00    +0.000 OA
ATOM     10  C   UNL     1     111.620 127.358 138.285  0.00  0.00    +0.000 C 
ENDBRANCH   6  10
BRANCH   4  11
ATOM     11  O   UNL     1     111.486 126.287 137.036  0.00  0.00    +0.000 OA
BRANCH  11  16
ATOM     12  O   UNL     1     112.827 125.831 137.220  0.00  0.00    +0.000 OA
ATOM     13  O   UNL     1     111.003 124.741 136.724  0.00  0.00    +0.000 OA
ATOM     14  O   UNL     1     112.103 123.511 136.752  0.00  0.00    +0.000 OA
ATOM     15  O   UNL     1     113.685 123.828 137.092  0.00  0.00    +0.000 OA
ATOM     16  C   UNL     1     112.036 125.673 137.050  0.00  0.00    +0.000 C 
ATOM     17  C   UNL     1     111.794 124.900 136.894  0.00  0.00    +0.000 C 
ATOM     18  C   UNL     1     112.344 124.284 136.908  0.00  0.00    +0.000 C 
ATOM     19  C   UNL     1     113.136 124.443 137.078  0.00  0.00    +0.000 C 
ATOM     20  C   UNL     1     113.377 125.216 137.234  0.00  0.00    +0.000 C 
BRANCH  20  22
ATOM     21  O   UNL     1     114.398 125.549 138.177  0.00  0.00    +0.000 OA
ATOM     22  C   UNL     1     114.168 125.375 137.404  0.00  0.00    +0.000 C 
ENDBRANCH  20  22
ENDBRANCH  11  16
ENDBRANCH   4  11
BRANCH   8  23
ATOM     23  O   UNL     1     112.482 129.379 136.459  0.00  0.00    +0.000 OA
BRANCH  23  27
ATOM     24  O   UNL     1     110.091 130.994 136.064  0.00  0.00    +0.000 OA
ATOM     25  O   UNL     1     111.931 131.668 138.187  0.00  0.00    +0.000 OA
ATOM     26  O   UNL     1     110.737 132.445 137.962  0.00  0.00    +0.000 OA
ATOM     27  C   UNL     1     112.004 130.015 136.676  0.00  0.00    +0.000 A 
ATOM     28  C   UNL     1     111.278 130.178 136.247  0.00  0.00    +0.000 A 
ATOM     29  C   UNL     1     112.228 130.519 137.335  0.00  0.00    +0.000 A 
ATOM     30  C   UNL     1     110.786 130.843 136.481  0.00  0.00    +0.000 A 
ATOM     31  C   UNL     1     111.724 131.179 137.556  0.00  0.00    +0.000 A 
ATOM     32  C   UNL     1     111.002 131.326 137.114  0.00  0.00    +0.000 A 
ATOM     33  C   UNL     1     110.522 131.962 137.330  0.00  0.00    +0.000 A 
ATOM     34  C   UNL     1     109.611 131.629 136.280  0.00  0.00    +0.000 A 
ATOM     35  C   UNL     1     109.826 132.112 136.913  0.00  0.00    +0.000 A 
BRANCH  34  37
ATOM     36  O   UNL     1     106.828 132.236 134.613  0.00  0.00    +0.000 OA
ATOM     37  C   UNL     1     108.915 131.781 135.863  0.00  0.00    +0.000 A 
ATOM     38  C   UNL     1     108.185 131.587 136.195  0.00  0.00    +0.000 A 
ATOM     39  C   UNL     1     108.949 132.126 135.115  0.00  0.00    +0.000 A 
ATOM     40  C   UNL     1     107.488 131.739 135.778  0.00  0.00    +0.000 A 
ATOM     41  C   UNL     1     108.254 132.277 134.698  0.00  0.00    +0.000 A 
ATOM     42  C   UNL     1     107.524 132.084 135.030  0.00  0.00    +0.000 A 
ENDBRANCH  34  37
ENDBRANCH  23  27
ENDBRANCH   8  23
TORSDOF 7
ENDMDL
MODEL 9
REMARK VINA RESULT:      -9.7      2.063      3.381
REMARK  Name = 73840313
REMARK  7 active torsions:
REMARK  status: ('A' for Active; 'I' for Inactive)
REMARK    1  A    between atoms: O_1  and  C_16
REMARK    2  A    between atoms: O_1  and  C_19
REMARK    3  A    between atoms: O_7  and  C_25
REMARK    4  A    between atoms: O_7  and  C_28
REMARK    5  A    between atoms: C_18  and  C_26
REMARK    6  A    between atoms: C_24  and  C_27
REMARK    7  A    between atoms: C_35  and  C_37
REMARK                            x       y       z     vdW  Elec       q    Type
REMARK                         _______ _______ _______ _____ _____    ______ ____
ROOT
ATOM      1  O   UNL     1     110.880 129.629 138.044  0.00  0.00    +0.000 OA
ATOM      2  O   UNL     1     110.302 132.025 137.823  0.00  0.00    +0.000 OA
ATOM      3  O   UNL     1     111.864 131.576 138.106  0.00  0.00    +0.000 OA
ATOM      4  C   UNL     1     109.906 130.652 137.829  0.00  0.00    +0.000 C 
ATOM      5  C   UNL     1     110.495 131.227 137.897  0.00  0.00    +0.000 C 
ATOM      6  C   UNL     1     110.099 129.854 137.903  0.00  0.00    +0.000 C 
ATOM      7  C   UNL     1     111.276 131.002 138.038  0.00  0.00    +0.000 C 
ATOM      8  C   UNL     1     111.468 130.203 138.112  0.00  0.00    +0.000 C 
ENDROOT
BRANCH   6  10
ATOM      9  O   UNL     1     109.472 128.662 138.381  0.00  0.00    +0.000 OA
ATOM     10  C   UNL     1     109.510 129.279 137.835  0.00  0.00    +0.000 C 
ENDBRANCH   6  10
BRANCH   4  11
ATOM     11  O   UNL     1     109.125 130.877 137.687  0.00  0.00    +0.000 OA
BRANCH  11  16
ATOM     12  O   UNL     1     109.345 130.822 136.276  0.00  0.00    +0.000 OA
ATOM     13  O   UNL     1     107.691 131.653 137.433  0.00  0.00    +0.000 OA
ATOM     14  O   UNL     1     107.195 131.987 135.895  0.00  0.00    +0.000 OA
ATOM     15  O   UNL     1     108.132 131.544 134.612  0.00  0.00    +0.000 OA
ATOM     16  C   UNL     1     108.877 131.043 136.919  0.00  0.00    +0.000 C 
ATOM     17  C   UNL     1     108.160 131.432 136.792  0.00  0.00    +0.000 C 
ATOM     18  C   UNL     1     107.912 131.599 136.022  0.00  0.00    +0.000 C 
ATOM     19  C   UNL     1     108.381 131.377 135.381  0.00  0.00    +0.000 C 
ATOM     20  C   UNL     1     109.097 130.989 135.508  0.00  0.00    +0.000 C 
BRANCH  20  22
ATOM     21  O   UNL     1     109.666 129.969 134.684  0.00  0.00    +0.000 OA
ATOM     22  C   UNL     1     109.566 130.768 134.866  0.00  0.00    +0.000 C 
ENDBRANCH  20  22
ENDBRANCH  11  16
ENDBRANCH   4  11
BRANCH   8  23
ATOM     23  O   UNL     1     112.249 129.978 138.254  0.00  0.00    +0.000 OA
BRANCH  23  27
ATOM     24  O   UNL     1     113.127 127.369 137.304  0.00  0.00    +0.000 OA
ATOM     25  O   UNL     1     113.847 129.742 135.821  0.00  0.00    +0.000 OA
ATOM     26  O   UNL     1     114.264 128.434 135.380  0.00  0.00    +0.000 OA
ATOM     27  C   UNL     1     112.652 129.516 137.703  0.00  0.00    +0.000 A 
ATOM     28  C   UNL     1     112.681 128.662 137.791  0.00  0.00    +0.000 A 
ATOM     29  C   UNL     1     113.047 129.885 137.035  0.00  0.00    +0.000 A 
ATOM     30  C   UNL     1     113.104 128.189 137.212  0.00  0.00    +0.000 A 
ATOM     31  C   UNL     1     113.465 129.396 136.465  0.00  0.00    +0.000 A 
ATOM     32  C   UNL     1     113.483 128.544 136.571  0.00  0.00    +0.000 A 
ATOM     33  C   UNL     1     113.885 128.079 136.021  0.00  0.00    +0.000 A 
ATOM     34  C   UNL     1     113.529 126.905 136.753  0.00  0.00    +0.000 A 
ATOM     35  C   UNL     1     113.908 127.260 136.112  0.00  0.00    +0.000 A 
BRANCH  34  37
ATOM     36  O   UNL     1     113.624 123.626 137.117  0.00  0.00    +0.000 OA
ATOM     37  C   UNL     1     113.553 126.085 136.844  0.00  0.00    +0.000 A 
ATOM     38  C   UNL     1     114.214 125.727 137.184  0.00  0.00    +0.000 A 
ATOM     39  C   UNL     1     112.916 125.624 136.595  0.00  0.00    +0.000 A 
ATOM     40  C   UNL     1     114.238 124.906 137.275  0.00  0.00    +0.000 A 
ATOM     41  C   UNL     1     112.940 124.804 136.686  0.00  0.00    +0.000 A 
ATOM     42  C   UNL     1     113.601 124.446 137.026  0.00  0.00    +0.000 A 
ENDBRANCH  34  37
ENDBRANCH  23  27
ENDBRANCH   8  23
TORSDOF 7
ENDMDL
MODEL 10
REMARK VINA RESULT:      -9.7      6.565      9.045
REMARK  Name = 73840313
REMARK  7 active torsions:
REMARK  status: ('A' for Active; 'I' for Inactive)
REMARK    1  A    between atoms: O_1  and  C_16
REMARK    2  A    between atoms: O_1  and  C_19
REMARK    3  A    between atoms: O_7  and  C_25
REMARK    4  A    between atoms: O_7  and  C_28
REMARK    5  A    between atoms: C_18  and  C_26
REMARK    6  A    between atoms: C_24  and  C_27
REMARK    7  A    between atoms: C_35  and  C_37
REMARK                            x       y       z     vdW  Elec       q    Type
REMARK                         _______ _______ _______ _____ _____    ______ ____
ROOT
ATOM      1  O   UNL     1     106.799 125.393 142.111  0.00  0.00    +0.000 OA
ATOM      2  O   UNL     1     105.118 123.583 141.952  0.00  0.00    +0.000 OA
ATOM      3  O   UNL     1     105.213 124.504 143.319  0.00  0.00    +0.000 OA
ATOM      4  C   UNL     1     106.192 124.330 141.375  0.00  0.00    +0.000 C 
ATOM      5  C   UNL     1     105.678 124.187 142.006  0.00  0.00    +0.000 C 
ATOM      6  C   UNL     1     106.751 124.933 141.428  0.00  0.00    +0.000 C 
ATOM      7  C   UNL     1     105.726 124.647 142.689  0.00  0.00    +0.000 C 
ATOM      8  C   UNL     1     106.287 125.250 142.741  0.00  0.00    +0.000 C 
ENDROOT
BRANCH   6  10
ATOM      9  O   UNL     1     108.051 125.277 140.944  0.00  0.00    +0.000 OA
ATOM     10  C   UNL     1     107.265 125.076 140.797  0.00  0.00    +0.000 C 
ENDBRANCH   6  10
BRANCH   4  11
ATOM     11  O   UNL     1     106.144 123.870 140.692  0.00  0.00    +0.000 OA
BRANCH  11  16
ATOM     12  O   UNL     1     105.112 124.709 140.171  0.00  0.00    +0.000 OA
ATOM     13  O   UNL     1     105.807 122.739 139.538  0.00  0.00    +0.000 OA
ATOM     14  O   UNL     1     104.606 123.014 138.440  0.00  0.00    +0.000 OA
ATOM     15  O   UNL     1     103.744 124.419 138.496  0.00  0.00    +0.000 OA
ATOM     16  C   UNL     1     105.544 124.007 140.143  0.00  0.00    +0.000 C 
ATOM     17  C   UNL     1     105.376 123.442 139.566  0.00  0.00    +0.000 C 
ATOM     18  C   UNL     1     104.775 123.579 139.017  0.00  0.00    +0.000 C 
ATOM     19  C   UNL     1     104.344 124.282 139.045  0.00  0.00    +0.000 C 
ATOM     20  C   UNL     1     104.512 124.847 139.622  0.00  0.00    +0.000 C 
BRANCH  20  22
ATOM     21  O   UNL     1     104.469 126.275 139.603  0.00  0.00    +0.000 OA
ATOM     22  C   UNL     1     104.081 125.549 139.650  0.00  0.00    +0.000 C 
ENDBRANCH  20  22
ENDBRANCH  11  16
ENDBRANCH   4  11
BRANCH   8  23
ATOM     23  O   UNL     1     106.334 125.710 143.424  0.00  0.00    +0.000 OA
BRANCH  23  27
ATOM     24  O   UNL     1     104.938 128.198 142.837  0.00  0.00    +0.000 OA
ATOM     25  O   UNL     1     107.704 128.277 143.669  0.00  0.00    +0.000 OA
ATOM     26  O   UNL     1     106.981 129.490 143.371  0.00  0.00    +0.000 OA
ATOM     27  C   UNL     1     106.331 126.533 143.369  0.00  0.00    +0.000 A 
ATOM     28  C   UNL     1     105.619 126.948 143.126  0.00  0.00    +0.000 A 
ATOM     29  C   UNL     1     107.040 126.982 143.554  0.00  0.00    +0.000 A 
ATOM     30  C   UNL     1     105.625 127.806 143.071  0.00  0.00    +0.000 A 
ATOM     31  C   UNL     1     107.028 127.838 143.494  0.00  0.00    +0.000 A 
ATOM     32  C   UNL     1     106.307 128.236 143.249  0.00  0.00    +0.000 A 
ATOM     33  C   UNL     1     106.301 129.059 143.193  0.00  0.00    +0.000 A 
ATOM     34  C   UNL     1     104.933 129.021 142.781  0.00  0.00    +0.000 A 
ATOM     35  C   UNL     1     105.614 129.451 142.959  0.00  0.00    +0.000 A 
BRANCH  34  37
ATOM     36  O   UNL     1     102.185 130.592 141.847  0.00  0.00    +0.000 OA
ATOM     37  C   UNL     1     104.246 129.414 142.548  0.00  0.00    +0.000 A 
ATOM     38  C   UNL     1     103.995 129.374 141.763  0.00  0.00    +0.000 A 
ATOM     39  C   UNL     1     103.810 129.846 143.099  0.00  0.00    +0.000 A 
ATOM     40  C   UNL     1     103.308 129.768 141.528  0.00  0.00    +0.000 A 
ATOM     41  C   UNL     1     103.123 130.238 142.865  0.00  0.00    +0.000 A 
ATOM     42  C   UNL     1     102.872 130.199 142.080  0.00  0.00    +0.000 A 
ENDBRANCH  34  37
ENDBRANCH  23  27
ENDBRANCH   8  23
TORSDOF 7
ENDMDL
