MODEL 1
REMARK VINA RESULT:      -9.0      0.000      0.000
REMARK  Name = 131750798
REMARK  6 active torsions:
REMARK  status: ('A' for Active; 'I' for Inactive)
REMARK    1  A    between atoms: O_2  and  C_16
REMARK    2  A    between atoms: O_2  and  C_22
REMARK    3  A    between atoms: O_11  and  C_32
REMARK    4  A    between atoms: C_17  and  C_25
REMARK    5  A    between atoms: C_18  and  C_21
REMARK    6  A    between atoms: C_27  and  C_32
REMARK                            x       y       z     vdW  Elec       q    Type
REMARK                         _______ _______ _______ _____ _____    ______ ____
ROOT
ATOM      1  C   UNL     1     113.070 128.275 135.948  0.00  0.00    +0.000 A 
ATOM      2  C   UNL     1     113.237 129.686 136.105  0.00  0.00    +0.000 A 
ATOM      3  C   UNL     1     112.774 129.008 136.185  0.00  0.00    +0.000 A 
ATOM      4  C   UNL     1     113.997 129.630 135.787  0.00  0.00    +0.000 A 
ATOM      5  C   UNL     1     113.829 128.220 135.631  0.00  0.00    +0.000 A 
ATOM      6  C   UNL     1     114.293 128.898 135.551  0.00  0.00    +0.000 A 
ENDROOT
BRANCH   1  11
ATOM      7  O   UNL     1     111.973 127.468 135.513  0.00  0.00    +0.000 OA
ATOM      8  O   UNL     1     113.404 127.181 137.137  0.00  0.00    +0.000 OA
ATOM      9  O   UNL     1     111.374 124.993 136.879  0.00  0.00    +0.000 OA
ATOM     10  O   UNL     1     109.734 125.836 134.614  0.00  0.00    +0.000 OA
ATOM     11  C   UNL     1     112.605 127.598 136.028  0.00  0.00    +0.000 C 
ATOM     12  C   UNL     1     112.772 127.051 136.622  0.00  0.00    +0.000 C 
ATOM     13  C   UNL     1     112.308 126.373 136.703  0.00  0.00    +0.000 C 
ATOM     14  C   UNL     1     111.675 126.243 136.188  0.00  0.00    +0.000 A 
ATOM     15  C   UNL     1     111.509 126.791 135.593  0.00  0.00    +0.000 A 
ATOM     16  C   UNL     1     111.199 125.535 136.281  0.00  0.00    +0.000 A 
ATOM     17  C   UNL     1     110.854 126.667 135.052  0.00  0.00    +0.000 A 
ATOM     18  C   UNL     1     110.540 125.394 135.749  0.00  0.00    +0.000 A 
ATOM     19  C   UNL     1     110.365 125.964 135.130  0.00  0.00    +0.000 A 
ENDBRANCH   1  11
BRANCH   2  20
ATOM     20  O   UNL     1     112.941 130.418 136.341  0.00  0.00    +0.000 OA
BRANCH  20  28
ATOM     21  O   UNL     1     113.099 130.318 137.758  0.00  0.00    +0.000 OA
ATOM     22  O   UNL     1     110.807 131.195 138.075  0.00  0.00    +0.000 OA
ATOM     23  O   UNL     1     111.413 131.003 136.553  0.00  0.00    +0.000 OA
ATOM     24  O   UNL     1     111.728 130.803 139.386  0.00  0.00    +0.000 OA
ATOM     25  C   UNL     1     111.571 130.903 137.969  0.00  0.00    +0.000 C 
ATOM     26  C   UNL     1     111.873 130.807 137.208  0.00  0.00    +0.000 C 
ATOM     27  C   UNL     1     112.031 130.707 138.624  0.00  0.00    +0.000 C 
ATOM     28  C   UNL     1     112.637 130.514 137.102  0.00  0.00    +0.000 C 
ATOM     29  C   UNL     1     112.795 130.414 138.519  0.00  0.00    +0.000 C 
BRANCH  29  32
ATOM     30  O   UNL     1     113.795 130.764 139.477  0.00  0.00    +0.000 OA
ATOM     31  O   UNL     1     113.178 129.476 139.526  0.00  0.00    +0.000 OA
ATOM     32  C   UNL     1     113.256 130.217 139.175  0.00  0.00    +0.000 C 
ENDBRANCH  29  32
ENDBRANCH  20  28
ENDBRANCH   2  20
BRANCH   4  33
ATOM     33  C   UNL     1     114.460 130.308 135.707  0.00  0.00    +0.000 C 
BRANCH  33  34
ATOM     34  O   UNL     1     115.148 130.286 135.251  0.00  0.00    +0.000 OA
ATOM     35  C   UNL     1     115.590 130.974 135.138  0.00  0.00    +0.000 C 
ENDBRANCH  33  34
ENDBRANCH   4  33
TORSDOF 6
ENDMDL
MODEL 2
REMARK VINA RESULT:      -9.0      1.045      2.151
REMARK  Name = 131750798
REMARK  6 active torsions:
REMARK  status: ('A' for Active; 'I' for Inactive)
REMARK    1  A    between atoms: O_2  and  C_16
REMARK    2  A    between atoms: O_2  and  C_22
REMARK    3  A    between atoms: O_11  and  C_32
REMARK    4  A    between atoms: C_17  and  C_25
REMARK    5  A    between atoms: C_18  and  C_21
REMARK    6  A    between atoms: C_27  and  C_32
REMARK                            x       y       z     vdW  Elec       q    Type
REMARK                         _______ _______ _______ _____ _____    ______ ____
ROOT
ATOM      1  C   UNL     1     113.777 128.449 135.999  0.00  0.00    +0.000 A 
ATOM      2  C   UNL     1     114.165 129.750 136.445  0.00  0.00    +0.000 A 
ATOM      3  C   UNL     1     113.831 129.012 136.600  0.00  0.00    +0.000 A 
ATOM      4  C   UNL     1     114.445 129.926 135.689  0.00  0.00    +0.000 A 
ATOM      5  C   UNL     1     114.057 128.625 135.244  0.00  0.00    +0.000 A 
ATOM      6  C   UNL     1     114.391 129.363 135.088  0.00  0.00    +0.000 A 
ENDROOT
BRANCH   1  11
ATOM      7  O   UNL     1     113.899 127.116 136.500  0.00  0.00    +0.000 OA
ATOM      8  O   UNL     1     112.197 128.162 135.620  0.00  0.00    +0.000 OA
ATOM      9  O   UNL     1     111.625 125.336 136.431  0.00  0.00    +0.000 OA
ATOM     10  O   UNL     1     114.167 124.403 137.525  0.00  0.00    +0.000 OA
ATOM     11  C   UNL     1     113.442 127.711 136.154  0.00  0.00    +0.000 C 
ATOM     12  C   UNL     1     112.653 127.568 135.965  0.00  0.00    +0.000 C 
ATOM     13  C   UNL     1     112.318 126.830 136.121  0.00  0.00    +0.000 C 
ATOM     14  C   UNL     1     112.775 126.234 136.466  0.00  0.00    +0.000 A 
ATOM     15  C   UNL     1     113.565 126.379 136.656  0.00  0.00    +0.000 A 
ATOM     16  C   UNL     1     112.416 125.470 136.624  0.00  0.00    +0.000 A 
ATOM     17  C   UNL     1     114.050 125.768 137.015  0.00  0.00    +0.000 A 
ATOM     18  C   UNL     1     112.885 124.847 136.983  0.00  0.00    +0.000 A 
ATOM     19  C   UNL     1     113.708 124.996 137.180  0.00  0.00    +0.000 A 
ENDBRANCH   1  11
BRANCH   2  20
ATOM     20  O   UNL     1     114.219 130.312 137.046  0.00  0.00    +0.000 OA
BRANCH  20  28
ATOM     21  O   UNL     1     112.881 130.810 137.095  0.00  0.00    +0.000 OA
ATOM     22  O   UNL     1     112.874 130.547 139.556  0.00  0.00    +0.000 OA
ATOM     23  O   UNL     1     114.214 130.137 138.686  0.00  0.00    +0.000 OA
ATOM     24  O   UNL     1     111.537 131.133 138.785  0.00  0.00    +0.000 OA
ATOM     25  C   UNL     1     112.876 130.635 138.736  0.00  0.00    +0.000 C 
ATOM     26  C   UNL     1     113.547 130.429 138.301  0.00  0.00    +0.000 C 
ATOM     27  C   UNL     1     112.208 130.927 138.351  0.00  0.00    +0.000 C 
ATOM     28  C   UNL     1     113.549 130.517 137.481  0.00  0.00    +0.000 C 
ATOM     29  C   UNL     1     112.211 131.015 137.531  0.00  0.00    +0.000 C 
BRANCH  29  32
ATOM     30  O   UNL     1     111.492 132.111 136.961  0.00  0.00    +0.000 OA
ATOM     31  O   UNL     1     110.926 130.799 136.944  0.00  0.00    +0.000 OA
ATOM     32  C   UNL     1     111.542 131.308 137.145  0.00  0.00    +0.000 C 
ENDBRANCH  29  32
ENDBRANCH  20  28
ENDBRANCH   2  20
BRANCH   4  33
ATOM     33  C   UNL     1     114.780 130.664 135.535  0.00  0.00    +0.000 C 
BRANCH  33  34
ATOM     34  O   UNL     1     115.229 130.778 134.851  0.00  0.00    +0.000 OA
ATOM     35  C   UNL     1     115.621 131.494 134.731  0.00  0.00    +0.000 C 
ENDBRANCH  33  34
ENDBRANCH   4  33
TORSDOF 6
ENDMDL
MODEL 3
REMARK VINA RESULT:      -8.8      2.120      3.118
REMARK  Name = 131750798
REMARK  6 active torsions:
REMARK  status: ('A' for Active; 'I' for Inactive)
REMARK    1  A    between atoms: O_2  and  C_16
REMARK    2  A    between atoms: O_2  and  C_22
REMARK    3  A    between atoms: O_11  and  C_32
REMARK    4  A    between atoms: C_17  and  C_25
REMARK    5  A    between atoms: C_18  and  C_21
REMARK    6  A    between atoms: C_27  and  C_32
REMARK                            x       y       z     vdW  Elec       q    Type
REMARK                         _______ _______ _______ _____ _____    ______ ____
ROOT
ATOM      1  C   UNL     1     111.117 127.024 135.987  0.00  0.00    +0.000 A 
ATOM      2  C   UNL     1     110.431 128.189 136.451  0.00  0.00    +0.000 A 
ATOM      3  C   UNL     1     110.766 127.450 136.600  0.00  0.00    +0.000 A 
ATOM      4  C   UNL     1     110.449 128.503 135.688  0.00  0.00    +0.000 A 
ATOM      5  C   UNL     1     111.134 127.338 135.225  0.00  0.00    +0.000 A 
ATOM      6  C   UNL     1     110.800 128.077 135.074  0.00  0.00    +0.000 A 
ENDROOT
BRANCH   1  11
ATOM      7  O   UNL     1     112.235 126.231 136.392  0.00  0.00    +0.000 OA
ATOM      8  O   UNL     1     110.222 125.655 135.777  0.00  0.00    +0.000 OA
ATOM      9  O   UNL     1     112.004 123.353 136.483  0.00  0.00    +0.000 OA
ATOM     10  O   UNL     1     114.523 124.631 137.222  0.00  0.00    +0.000 OA
ATOM     11  C   UNL     1     111.452 126.285 136.137  0.00  0.00    +0.000 C 
ATOM     12  C   UNL     1     111.004 125.601 136.032  0.00  0.00    +0.000 C 
ATOM     13  C   UNL     1     111.339 124.861 136.182  0.00  0.00    +0.000 C 
ATOM     14  C   UNL     1     112.122 124.807 136.438  0.00  0.00    +0.000 A 
ATOM     15  C   UNL     1     112.570 125.492 136.543  0.00  0.00    +0.000 A 
ATOM     16  C   UNL     1     112.459 124.032 136.591  0.00  0.00    +0.000 A 
ATOM     17  C   UNL     1     113.385 125.449 136.808  0.00  0.00    +0.000 A 
ATOM     18  C   UNL     1     113.274 123.969 136.857  0.00  0.00    +0.000 A 
ATOM     19  C   UNL     1     113.740 124.682 136.966  0.00  0.00    +0.000 A 
ENDBRANCH   1  11
BRANCH   2  20
ATOM     20  O   UNL     1     110.080 128.614 137.064  0.00  0.00    +0.000 OA
BRANCH  20  28
ATOM     21  O   UNL     1     111.247 129.004 137.791  0.00  0.00    +0.000 OA
ATOM     22  O   UNL     1     110.127 128.397 139.913  0.00  0.00    +0.000 OA
ATOM     23  O   UNL     1     109.334 128.209 138.478  0.00  0.00    +0.000 OA
ATOM     24  O   UNL     1     111.667 128.990 139.933  0.00  0.00    +0.000 OA
ATOM     25  C   UNL     1     110.500 128.599 139.206  0.00  0.00    +0.000 C 
ATOM     26  C   UNL     1     110.103 128.505 138.489  0.00  0.00    +0.000 C 
ATOM     27  C   UNL     1     111.270 128.895 139.216  0.00  0.00    +0.000 C 
ATOM     28  C   UNL     1     110.476 128.707 137.781  0.00  0.00    +0.000 C 
ATOM     29  C   UNL     1     111.643 129.098 138.508  0.00  0.00    +0.000 C 
BRANCH  29  32
ATOM     30  O   UNL     1     112.541 130.209 138.509  0.00  0.00    +0.000 OA
ATOM     31  O   UNL     1     113.054 128.876 138.537  0.00  0.00    +0.000 OA
ATOM     32  C   UNL     1     112.414 129.394 138.518  0.00  0.00    +0.000 C 
ENDBRANCH  29  32
ENDBRANCH  20  28
ENDBRANCH   2  20
BRANCH   4  33
ATOM     33  C   UNL     1     110.114 129.242 135.539  0.00  0.00    +0.000 C 
BRANCH  33  34
ATOM     34  O   UNL     1     109.994 129.491 134.761  0.00  0.00    +0.000 OA
ATOM     35  C   UNL     1     109.660 130.230 134.612  0.00  0.00    +0.000 C 
ENDBRANCH  33  34
ENDBRANCH   4  33
TORSDOF 6
ENDMDL
MODEL 4
REMARK VINA RESULT:      -8.8      1.611      4.888
REMARK  Name = 131750798
REMARK  6 active torsions:
REMARK  status: ('A' for Active; 'I' for Inactive)
REMARK    1  A    between atoms: O_2  and  C_16
REMARK    2  A    between atoms: O_2  and  C_22
REMARK    3  A    between atoms: O_11  and  C_32
REMARK    4  A    between atoms: C_17  and  C_25
REMARK    5  A    between atoms: C_18  and  C_21
REMARK    6  A    between atoms: C_27  and  C_32
REMARK                            x       y       z     vdW  Elec       q    Type
REMARK                         _______ _______ _______ _____ _____    ______ ____
ROOT
ATOM      1  C   UNL     1     112.937 126.802 136.722  0.00  0.00    +0.000 A 
ATOM      2  C   UNL     1     111.967 125.824 136.341  0.00  0.00    +0.000 A 
ATOM      3  C   UNL     1     112.240 126.602 136.329  0.00  0.00    +0.000 A 
ATOM      4  C   UNL     1     112.391 125.245 136.748  0.00  0.00    +0.000 A 
ATOM      5  C   UNL     1     113.361 126.223 137.129  0.00  0.00    +0.000 A 
ATOM      6  C   UNL     1     113.088 125.444 137.142  0.00  0.00    +0.000 A 
ENDROOT
BRANCH   1  11
ATOM      7  O   UNL     1     113.581 127.876 136.033  0.00  0.00    +0.000 OA
ATOM      8  O   UNL     1     112.741 127.769 138.045  0.00  0.00    +0.000 OA
ATOM      9  O   UNL     1     113.932 130.426 137.344  0.00  0.00    +0.000 OA
ATOM     10  O   UNL     1     114.895 130.052 134.612  0.00  0.00    +0.000 OA
ATOM     11  C   UNL     1     113.210 127.580 136.709  0.00  0.00    +0.000 C 
ATOM     12  C   UNL     1     113.112 128.064 137.370  0.00  0.00    +0.000 C 
ATOM     13  C   UNL     1     113.384 128.842 137.356  0.00  0.00    +0.000 C 
ATOM     14  C   UNL     1     113.755 129.138 136.680  0.00  0.00    +0.000 A 
ATOM     15  C   UNL     1     113.853 128.654 136.019  0.00  0.00    +0.000 A 
ATOM     16  C   UNL     1     114.035 129.950 136.678  0.00  0.00    +0.000 A 
ATOM     17  C   UNL     1     114.238 128.950 135.310  0.00  0.00    +0.000 A 
ATOM     18  C   UNL     1     114.422 130.263 135.978  0.00  0.00    +0.000 A 
ATOM     19  C   UNL     1     114.524 129.760 135.289  0.00  0.00    +0.000 A 
ENDBRANCH   1  11
BRANCH   2  20
ATOM     20  O   UNL     1     111.271 125.625 135.948  0.00  0.00    +0.000 OA
BRANCH  20  28
ATOM     21  O   UNL     1     110.319 126.224 136.829  0.00  0.00    +0.000 OA
ATOM     22  O   UNL     1     109.080 127.119 134.882  0.00  0.00    +0.000 OA
ATOM     23  O   UNL     1     110.445 126.222 134.650  0.00  0.00    +0.000 OA
ATOM     24  O   UNL     1     108.541 127.420 136.412  0.00  0.00    +0.000 OA
ATOM     25  C   UNL     1     109.493 126.821 135.531  0.00  0.00    +0.000 C 
ATOM     26  C   UNL     1     110.175 126.372 135.414  0.00  0.00    +0.000 C 
ATOM     27  C   UNL     1     109.223 126.971 136.295  0.00  0.00    +0.000 C 
ATOM     28  C   UNL     1     110.588 126.074 136.063  0.00  0.00    +0.000 C 
ATOM     29  C   UNL     1     109.636 126.673 136.944  0.00  0.00    +0.000 C 
BRANCH  29  32
ATOM     30  O   UNL     1     108.963 126.237 138.127  0.00  0.00    +0.000 OA
ATOM     31  O   UNL     1     109.500 127.558 138.057  0.00  0.00    +0.000 OA
ATOM     32  C   UNL     1     109.366 126.823 137.710  0.00  0.00    +0.000 C 
ENDBRANCH  29  32
ENDBRANCH  20  28
ENDBRANCH   2  20
BRANCH   4  33
ATOM     33  C   UNL     1     112.118 124.467 136.761  0.00  0.00    +0.000 C 
BRANCH  33  34
ATOM     34  O   UNL     1     112.570 123.877 137.120  0.00  0.00    +0.000 OA
ATOM     35  C   UNL     1     112.265 123.114 137.199  0.00  0.00    +0.000 C 
ENDBRANCH  33  34
ENDBRANCH   4  33
TORSDOF 6
ENDMDL
MODEL 5
REMARK VINA RESULT:      -8.6      2.610      4.343
REMARK  Name = 131750798
REMARK  6 active torsions:
REMARK  status: ('A' for Active; 'I' for Inactive)
REMARK    1  A    between atoms: O_2  and  C_16
REMARK    2  A    between atoms: O_2  and  C_22
REMARK    3  A    between atoms: O_11  and  C_32
REMARK    4  A    between atoms: C_17  and  C_25
REMARK    5  A    between atoms: C_18  and  C_21
REMARK    6  A    between atoms: C_27  and  C_32
REMARK                            x       y       z     vdW  Elec       q    Type
REMARK                         _______ _______ _______ _____ _____    ______ ____
ROOT
ATOM      1  C   UNL     1     111.216 126.851 138.268  0.00  0.00    +0.000 A 
ATOM      2  C   UNL     1     110.788 128.210 138.162  0.00  0.00    +0.000 A 
ATOM      3  C   UNL     1     111.185 127.559 137.847  0.00  0.00    +0.000 A 
ATOM      4  C   UNL     1     110.422 128.152 138.900  0.00  0.00    +0.000 A 
ATOM      5  C   UNL     1     110.850 126.793 139.005  0.00  0.00    +0.000 A 
ATOM      6  C   UNL     1     110.452 127.443 139.321  0.00  0.00    +0.000 A 
ENDROOT
BRANCH   1  11
ATOM      7  O   UNL     1     112.438 126.172 137.972  0.00  0.00    +0.000 OA
ATOM      8  O   UNL     1     110.363 125.608 137.596  0.00  0.00    +0.000 OA
ATOM      9  O   UNL     1     112.378 123.602 136.654  0.00  0.00    +0.000 OA
ATOM     10  O   UNL     1     114.939 124.803 137.376  0.00  0.00    +0.000 OA
ATOM     11  C   UNL     1     111.613 126.200 137.952  0.00  0.00    +0.000 C 
ATOM     12  C   UNL     1     111.187 125.580 137.616  0.00  0.00    +0.000 C 
ATOM     13  C   UNL     1     111.585 124.929 137.300  0.00  0.00    +0.000 C 
ATOM     14  C   UNL     1     112.410 124.900 137.320  0.00  0.00    +0.000 A 
ATOM     15  C   UNL     1     112.836 125.522 137.656  0.00  0.00    +0.000 A 
ATOM     16  C   UNL     1     112.813 124.219 136.988  0.00  0.00    +0.000 A 
ATOM     17  C   UNL     1     113.694 125.504 137.683  0.00  0.00    +0.000 A 
ATOM     18  C   UNL     1     113.671 124.182 137.005  0.00  0.00    +0.000 A 
ATOM     19  C   UNL     1     114.115 124.829 137.355  0.00  0.00    +0.000 A 
ENDBRANCH   1  11
BRANCH   2  20
ATOM     20  O   UNL     1     110.757 128.918 137.741  0.00  0.00    +0.000 OA
BRANCH  20  28
ATOM     21  O   UNL     1     109.748 128.625 136.773  0.00  0.00    +0.000 OA
ATOM     22  O   UNL     1     111.202 129.529 134.985  0.00  0.00    +0.000 OA
ATOM     23  O   UNL     1     111.726 129.521 136.549  0.00  0.00    +0.000 OA
ATOM     24  O   UNL     1     109.708 128.934 134.612  0.00  0.00    +0.000 OA
ATOM     25  C   UNL     1     110.717 129.228 135.581  0.00  0.00    +0.000 C 
ATOM     26  C   UNL     1     110.980 129.224 136.363  0.00  0.00    +0.000 C 
ATOM     27  C   UNL     1     109.971 128.931 135.394  0.00  0.00    +0.000 C 
ATOM     28  C   UNL     1     110.496 128.922 136.959  0.00  0.00    +0.000 C 
ATOM     29  C   UNL     1     109.487 128.629 135.990  0.00  0.00    +0.000 C 
BRANCH  29  32
ATOM     30  O   UNL     1     108.654 127.539 135.591  0.00  0.00    +0.000 OA
ATOM     31  O   UNL     1     108.081 128.825 135.830  0.00  0.00    +0.000 OA
ATOM     32  C   UNL     1     108.740 128.331 135.804  0.00  0.00    +0.000 C 
ENDBRANCH  29  32
ENDBRANCH  20  28
ENDBRANCH   2  20
BRANCH   4  33
ATOM     33  C   UNL     1     110.025 128.803 139.215  0.00  0.00    +0.000 C 
BRANCH  33  34
ATOM     34  O   UNL     1     109.723 128.770 139.982  0.00  0.00    +0.000 OA
ATOM     35  C   UNL     1     109.314 129.415 140.293  0.00  0.00    +0.000 C 
ENDBRANCH  33  34
ENDBRANCH   4  33
TORSDOF 6
ENDMDL
MODEL 6
REMARK VINA RESULT:      -8.6      2.385      3.856
REMARK  Name = 131750798
REMARK  6 active torsions:
REMARK  status: ('A' for Active; 'I' for Inactive)
REMARK    1  A    between atoms: O_2  and  C_16
REMARK    2  A    between atoms: O_2  and  C_22
REMARK    3  A    between atoms: O_11  and  C_32
REMARK    4  A    between atoms: C_17  and  C_25
REMARK    5  A    between atoms: C_18  and  C_21
REMARK    6  A    between atoms: C_27  and  C_32
REMARK                            x       y       z     vdW  Elec       q    Type
REMARK                         _______ _______ _______ _____ _____    ______ ____
ROOT
ATOM      1  C   UNL     1     112.729 126.798 139.390  0.00  0.00    +0.000 A 
ATOM      2  C   UNL     1     112.391 128.126 139.793  0.00  0.00    +0.000 A 
ATOM      3  C   UNL     1     112.604 127.591 139.202  0.00  0.00    +0.000 A 
ATOM      4  C   UNL     1     112.302 127.867 140.571  0.00  0.00    +0.000 A 
ATOM      5  C   UNL     1     112.640 126.539 140.168  0.00  0.00    +0.000 A 
ATOM      6  C   UNL     1     112.427 127.074 140.759  0.00  0.00    +0.000 A 
ENDROOT
BRANCH   1  11
ATOM      7  O   UNL     1     112.359 125.899 138.342  0.00  0.00    +0.000 OA
ATOM      8  O   UNL     1     114.321 126.457 139.119  0.00  0.00    +0.000 OA
ATOM      9  O   UNL     1     114.400 124.476 136.874  0.00  0.00    +0.000 OA
ATOM     10  O   UNL     1     111.585 124.071 136.210  0.00  0.00    +0.000 OA
ATOM     11  C   UNL     1     112.942 126.263 138.798  0.00  0.00    +0.000 C 
ATOM     12  C   UNL     1     113.738 126.093 138.663  0.00  0.00    +0.000 C 
ATOM     13  C   UNL     1     113.951 125.559 138.071  0.00  0.00    +0.000 C 
ATOM     14  C   UNL     1     113.367 125.194 137.615  0.00  0.00    +0.000 A 
ATOM     15  C   UNL     1     112.571 125.365 137.751  0.00  0.00    +0.000 A 
ATOM     16  C   UNL     1     113.601 124.640 137.002  0.00  0.00    +0.000 A 
ATOM     17  C   UNL     1     111.955 124.992 137.283  0.00  0.00    +0.000 A 
ATOM     18  C   UNL     1     112.999 124.257 136.524  0.00  0.00    +0.000 A 
ATOM     19  C   UNL     1     112.170 124.434 136.665  0.00  0.00    +0.000 A 
ENDBRANCH   1  11
BRANCH   2  20
ATOM     20  O   UNL     1     112.266 128.919 139.605  0.00  0.00    +0.000 OA
BRANCH  20  28
ATOM     21  O   UNL     1     111.000 128.836 138.947  0.00  0.00    +0.000 OA
ATOM     22  O   UNL     1     111.844 130.301 137.139  0.00  0.00    +0.000 OA
ATOM     23  O   UNL     1     112.828 129.895 138.400  0.00  0.00    +0.000 OA
ATOM     24  O   UNL     1     110.297 129.730 137.084  0.00  0.00    +0.000 OA
ATOM     25  C   UNL     1     111.563 129.813 137.742  0.00  0.00    +0.000 C 
ATOM     26  C   UNL     1     112.055 129.610 138.372  0.00  0.00    +0.000 C 
ATOM     27  C   UNL     1     110.790 129.527 137.714  0.00  0.00    +0.000 C 
ATOM     28  C   UNL     1     111.774 129.122 138.975  0.00  0.00    +0.000 C 
ATOM     29  C   UNL     1     110.508 129.039 138.317  0.00  0.00    +0.000 C 
BRANCH  29  32
ATOM     30  O   UNL     1     109.134 129.151 138.693  0.00  0.00    +0.000 OA
ATOM     31  O   UNL     1     109.561 128.072 137.859  0.00  0.00    +0.000 OA
ATOM     32  C   UNL     1     109.734 128.754 138.289  0.00  0.00    +0.000 C 
ENDBRANCH  29  32
ENDBRANCH  20  28
ENDBRANCH   2  20
BRANCH   4  33
ATOM     33  C   UNL     1     112.088 128.402 141.162  0.00  0.00    +0.000 C 
BRANCH  33  34
ATOM     34  O   UNL     1     112.119 128.175 141.955  0.00  0.00    +0.000 OA
ATOM     35  C   UNL     1     111.887 128.704 142.544  0.00  0.00    +0.000 C 
ENDBRANCH  33  34
ENDBRANCH   4  33
TORSDOF 6
ENDMDL
MODEL 7
REMARK VINA RESULT:      -8.6      1.457      2.005
REMARK  Name = 131750798
REMARK  6 active torsions:
REMARK  status: ('A' for Active; 'I' for Inactive)
REMARK    1  A    between atoms: O_2  and  C_16
REMARK    2  A    between atoms: O_2  and  C_22
REMARK    3  A    between atoms: O_11  and  C_32
REMARK    4  A    between atoms: C_17  and  C_25
REMARK    5  A    between atoms: C_18  and  C_21
REMARK    6  A    between atoms: C_27  and  C_32
REMARK                            x       y       z     vdW  Elec       q    Type
REMARK                         _______ _______ _______ _____ _____    ______ ____
ROOT
ATOM      1  C   UNL     1     113.063 127.720 136.267  0.00  0.00    +0.000 A 
ATOM      2  C   UNL     1     112.865 128.914 135.507  0.00  0.00    +0.000 A 
ATOM      3  C   UNL     1     112.557 128.255 135.895  0.00  0.00    +0.000 A 
ATOM      4  C   UNL     1     113.681 129.039 135.491  0.00  0.00    +0.000 A 
ATOM      5  C   UNL     1     113.878 127.845 136.251  0.00  0.00    +0.000 A 
ATOM      6  C   UNL     1     114.188 128.505 135.864  0.00  0.00    +0.000 A 
ENDROOT
BRANCH   1  11
ATOM      7  O   UNL     1     112.535 126.393 136.221  0.00  0.00    +0.000 OA
ATOM      8  O   UNL     1     112.881 127.736 137.907  0.00  0.00    +0.000 OA
ATOM      9  O   UNL     1     111.726 125.078 138.663  0.00  0.00    +0.000 OA
ATOM     10  O   UNL     1     111.461 123.688 136.108  0.00  0.00    +0.000 OA
ATOM     11  C   UNL     1     112.754 127.061 136.655  0.00  0.00    +0.000 C 
ATOM     12  C   UNL     1     112.663 127.069 137.474  0.00  0.00    +0.000 C 
ATOM     13  C   UNL     1     112.353 126.409 137.862  0.00  0.00    +0.000 C 
ATOM     14  C   UNL     1     112.134 125.741 137.428  0.00  0.00    +0.000 A 
ATOM     15  C   UNL     1     112.226 125.734 136.608  0.00  0.00    +0.000 A 
ATOM     16  C   UNL     1     111.813 125.061 137.842  0.00  0.00    +0.000 A 
ATOM     17  C   UNL     1     112.002 125.045 136.147  0.00  0.00    +0.000 A 
ATOM     18  C   UNL     1     111.584 124.363 137.398  0.00  0.00    +0.000 A 
ATOM     19  C   UNL     1     111.679 124.354 136.544  0.00  0.00    +0.000 A 
ENDBRANCH   1  11
BRANCH   2  20
ATOM     20  O   UNL     1     112.359 129.448 135.135  0.00  0.00    +0.000 OA
BRANCH  20  28
ATOM     21  O   UNL     1     111.891 130.226 136.238  0.00  0.00    +0.000 OA
ATOM     22  O   UNL     1     109.561 129.936 135.454  0.00  0.00    +0.000 OA
ATOM     23  O   UNL     1     110.806 129.254 134.612  0.00  0.00    +0.000 OA
ATOM     24  O   UNL     1     109.869 130.810 136.819  0.00  0.00    +0.000 OA
ATOM     25  C   UNL     1     110.338 130.032 135.715  0.00  0.00    +0.000 C 
ATOM     26  C   UNL     1     110.960 129.691 135.294  0.00  0.00    +0.000 C 
ATOM     27  C   UNL     1     110.492 130.469 136.397  0.00  0.00    +0.000 C 
ATOM     28  C   UNL     1     111.737 129.788 135.555  0.00  0.00    +0.000 C 
ATOM     29  C   UNL     1     111.268 130.566 136.659  0.00  0.00    +0.000 C 
BRANCH  29  32
ATOM     30  O   UNL     1     111.359 130.647 138.083  0.00  0.00    +0.000 OA
ATOM     31  O   UNL     1     111.639 131.796 137.283  0.00  0.00    +0.000 OA
ATOM     32  C   UNL     1     111.422 131.004 137.342  0.00  0.00    +0.000 C 
ENDBRANCH  29  32
ENDBRANCH  20  28
ENDBRANCH   2  20
BRANCH   4  33
ATOM     33  C   UNL     1     113.989 129.699 135.103  0.00  0.00    +0.000 C 
BRANCH  33  34
ATOM     34  O   UNL     1     114.799 129.744 134.947  0.00  0.00    +0.000 OA
ATOM     35  C   UNL     1     115.127 130.450 134.674  0.00  0.00    +0.000 C 
ENDBRANCH  33  34
ENDBRANCH   4  33
TORSDOF 6
ENDMDL
MODEL 8
REMARK VINA RESULT:      -8.5      1.504      5.018
REMARK  Name = 131750798
REMARK  6 active torsions:
REMARK  status: ('A' for Active; 'I' for Inactive)
REMARK    1  A    between atoms: O_2  and  C_16
REMARK    2  A    between atoms: O_2  and  C_22
REMARK    3  A    between atoms: O_11  and  C_32
REMARK    4  A    between atoms: C_17  and  C_25
REMARK    5  A    between atoms: C_18  and  C_21
REMARK    6  A    between atoms: C_27  and  C_32
REMARK                            x       y       z     vdW  Elec       q    Type
REMARK                         _______ _______ _______ _____ _____    ______ ____
ROOT
ATOM      1  C   UNL     1     112.051 128.319 135.834  0.00  0.00    +0.000 A 
ATOM      2  C   UNL     1     111.640 127.006 136.221  0.00  0.00    +0.000 A 
ATOM      3  C   UNL     1     112.075 127.691 136.369  0.00  0.00    +0.000 A 
ATOM      4  C   UNL     1     111.181 126.949 135.538  0.00  0.00    +0.000 A 
ATOM      5  C   UNL     1     111.592 128.262 135.152  0.00  0.00    +0.000 A 
ATOM      6  C   UNL     1     111.156 127.577 135.003  0.00  0.00    +0.000 A 
ENDROOT
BRANCH   1  11
ATOM      7  O   UNL     1     113.253 129.078 135.684  0.00  0.00    +0.000 OA
ATOM      8  O   UNL     1     111.391 129.540 136.726  0.00  0.00    +0.000 OA
ATOM      9  O   UNL     1     113.464 131.697 136.887  0.00  0.00    +0.000 OA
ATOM     10  O   UNL     1     115.710 130.610 135.369  0.00  0.00    +0.000 OA
ATOM     11  C   UNL     1     112.486 129.004 135.983  0.00  0.00    +0.000 C 
ATOM     12  C   UNL     1     112.157 129.614 136.428  0.00  0.00    +0.000 C 
ATOM     13  C   UNL     1     112.592 130.299 136.577  0.00  0.00    +0.000 C 
ATOM     14  C   UNL     1     113.359 130.373 136.279  0.00  0.00    +0.000 A 
ATOM     15  C   UNL     1     113.688 129.762 135.833  0.00  0.00    +0.000 A 
ATOM     16  C   UNL     1     113.802 131.091 136.440  0.00  0.00    +0.000 A 
ATOM     17  C   UNL     1     114.485 129.828 135.517  0.00  0.00    +0.000 A 
ATOM     18  C   UNL     1     114.600 131.174 136.133  0.00  0.00    +0.000 A 
ATOM     19  C   UNL     1     114.944 130.538 135.668  0.00  0.00    +0.000 A 
ENDBRANCH   1  11
BRANCH   2  20
ATOM     20  O   UNL     1     111.665 126.379 136.755  0.00  0.00    +0.000 OA
BRANCH  20  28
ATOM     21  O   UNL     1     112.995 125.889 136.577  0.00  0.00    +0.000 OA
ATOM     22  O   UNL     1     113.330 125.908 139.030  0.00  0.00    +0.000 OA
ATOM     23  O   UNL     1     111.888 126.392 138.390  0.00  0.00    +0.000 OA
ATOM     24  O   UNL     1     114.549 125.411 138.035  0.00  0.00    +0.000 OA
ATOM     25  C   UNL     1     113.218 125.901 138.212  0.00  0.00    +0.000 C 
ATOM     26  C   UNL     1     112.497 126.144 137.893  0.00  0.00    +0.000 C 
ATOM     27  C   UNL     1     113.827 125.653 137.715  0.00  0.00    +0.000 C 
ATOM     28  C   UNL     1     112.385 126.137 137.076  0.00  0.00    +0.000 C 
ATOM     29  C   UNL     1     113.716 125.647 136.898  0.00  0.00    +0.000 C 
BRANCH  29  32
ATOM     30  O   UNL     1     114.901 125.936 136.153  0.00  0.00    +0.000 OA
ATOM     31  O   UNL     1     114.360 124.614 136.149  0.00  0.00    +0.000 OA
ATOM     32  C   UNL     1     114.326 125.398 136.400  0.00  0.00    +0.000 C 
ENDBRANCH  29  32
ENDBRANCH  20  28
ENDBRANCH   2  20
BRANCH   4  33
ATOM     33  C   UNL     1     110.746 126.263 135.390  0.00  0.00    +0.000 C 
BRANCH  33  34
ATOM     34  O   UNL     1     110.212 126.242 134.761  0.00  0.00    +0.000 OA
ATOM     35  C   UNL     1     109.754 125.568 134.633  0.00  0.00    +0.000 C 
ENDBRANCH  33  34
ENDBRANCH   4  33
TORSDOF 6
ENDMDL
MODEL 9
REMARK VINA RESULT:      -8.5      2.846      4.708
REMARK  Name = 131750798
REMARK  6 active torsions:
REMARK  status: ('A' for Active; 'I' for Inactive)
REMARK    1  A    between atoms: O_2  and  C_16
REMARK    2  A    between atoms: O_2  and  C_22
REMARK    3  A    between atoms: O_11  and  C_32
REMARK    4  A    between atoms: C_17  and  C_25
REMARK    5  A    between atoms: C_18  and  C_21
REMARK    6  A    between atoms: C_27  and  C_32
REMARK                            x       y       z     vdW  Elec       q    Type
REMARK                         _______ _______ _______ _____ _____    ______ ____
ROOT
ATOM      1  C   UNL     1     111.104 126.333 136.395  0.00  0.00    +0.000 A 
ATOM      2  C   UNL     1     111.694 125.576 137.454  0.00  0.00    +0.000 A 
ATOM      3  C   UNL     1     111.436 126.297 137.150  0.00  0.00    +0.000 A 
ATOM      4  C   UNL     1     111.620 124.888 137.003  0.00  0.00    +0.000 A 
ATOM      5  C   UNL     1     111.031 125.646 135.945  0.00  0.00    +0.000 A 
ATOM      6  C   UNL     1     111.289 124.923 136.248  0.00  0.00    +0.000 A 
ENDROOT
BRANCH   1  11
ATOM      7  O   UNL     1     110.069 127.303 136.219  0.00  0.00    +0.000 OA
ATOM      8  O   UNL     1     112.142 127.284 135.534  0.00  0.00    +0.000 OA
ATOM      9  O   UNL     1     110.598 129.724 134.736  0.00  0.00    +0.000 OA
ATOM     10  O   UNL     1     107.947 129.267 135.872  0.00  0.00    +0.000 OA
ATOM     11  C   UNL     1     110.847 127.056 136.092  0.00  0.00    +0.000 C 
ATOM     12  C   UNL     1     111.365 127.531 135.662  0.00  0.00    +0.000 C 
ATOM     13  C   UNL     1     111.107 128.254 135.358  0.00  0.00    +0.000 C 
ATOM     14  C   UNL     1     110.329 128.501 135.486  0.00  0.00    +0.000 A 
ATOM     15  C   UNL     1     109.811 128.025 135.916  0.00  0.00    +0.000 A 
ATOM     16  C   UNL     1     110.072 129.255 135.165  0.00  0.00    +0.000 A 
ATOM     17  C   UNL     1     109.000 128.271 136.056  0.00  0.00    +0.000 A 
ATOM     18  C   UNL     1     109.265 129.518 135.294  0.00  0.00    +0.000 A 
ATOM     19  C   UNL     1     108.724 129.022 135.743  0.00  0.00    +0.000 A 
ENDBRANCH   1  11
BRANCH   2  20
ATOM     20  O   UNL     1     112.025 125.540 138.208  0.00  0.00    +0.000 OA
BRANCH  20  28
ATOM     21  O   UNL     1     110.853 125.723 139.006  0.00  0.00    +0.000 OA
ATOM     22  O   UNL     1     112.074 127.341 140.427  0.00  0.00    +0.000 OA
ATOM     23  O   UNL     1     112.838 126.619 139.155  0.00  0.00    +0.000 OA
ATOM     24  O   UNL     1     110.496 126.985 140.751  0.00  0.00    +0.000 OA
ATOM     25  C   UNL     1     111.667 126.802 139.953  0.00  0.00    +0.000 C 
ATOM     26  C   UNL     1     112.050 126.441 139.318  0.00  0.00    +0.000 C 
ATOM     27  C   UNL     1     110.879 126.624 140.116  0.00  0.00    +0.000 C 
ATOM     28  C   UNL     1     111.643 125.902 138.844  0.00  0.00    +0.000 C 
ATOM     29  C   UNL     1     110.472 126.085 139.642  0.00  0.00    +0.000 C 
BRANCH  29  32
ATOM     30  O   UNL     1     109.081 126.366 139.478  0.00  0.00    +0.000 OA
ATOM     31  O   UNL     1     109.496 125.269 140.292  0.00  0.00    +0.000 OA
ATOM     32  C   UNL     1     109.682 125.906 139.805  0.00  0.00    +0.000 C 
ENDBRANCH  29  32
ENDBRANCH  20  28
ENDBRANCH   2  20
BRANCH   4  33
ATOM     33  C   UNL     1     111.878 124.166 137.308  0.00  0.00    +0.000 C 
BRANCH  33  34
ATOM     34  O   UNL     1     111.856 123.489 136.836  0.00  0.00    +0.000 OA
ATOM     35  C   UNL     1     112.049 122.755 137.161  0.00  0.00    +0.000 C 
ENDBRANCH  33  34
ENDBRANCH   4  33
TORSDOF 6
ENDMDL
MODEL 10
REMARK VINA RESULT:      -8.5     11.343     13.232
REMARK  Name = 131750798
REMARK  6 active torsions:
REMARK  status: ('A' for Active; 'I' for Inactive)
REMARK    1  A    between atoms: O_2  and  C_16
REMARK    2  A    between atoms: O_2  and  C_22
REMARK    3  A    between atoms: O_11  and  C_32
REMARK    4  A    between atoms: C_17  and  C_25
REMARK    5  A    between atoms: C_18  and  C_21
REMARK    6  A    between atoms: C_27  and  C_32
REMARK                            x       y       z     vdW  Elec       q    Type
REMARK                         _______ _______ _______ _____ _____    ______ ____
ROOT
ATOM      1  C   UNL     1     106.092 126.462 146.776  0.00  0.00    +0.000 A 
ATOM      2  C   UNL     1     105.722 125.376 147.629  0.00  0.00    +0.000 A 
ATOM      3  C   UNL     1     105.512 125.970 147.097  0.00  0.00    +0.000 A 
ATOM      4  C   UNL     1     106.513 125.273 147.840  0.00  0.00    +0.000 A 
ATOM      5  C   UNL     1     106.882 126.358 146.988  0.00  0.00    +0.000 A 
ATOM      6  C   UNL     1     107.093 125.764 147.520  0.00  0.00    +0.000 A 
ENDROOT
BRANCH   1  11
ATOM      7  O   UNL     1     105.815 126.884 145.439  0.00  0.00    +0.000 OA
ATOM      8  O   UNL     1     105.801 127.992 147.320  0.00  0.00    +0.000 OA
ATOM      9  O   UNL     1     105.094 129.632 144.915  0.00  0.00    +0.000 OA
ATOM     10  O   UNL     1     105.256 127.727 142.708  0.00  0.00    +0.000 OA
ATOM     11  C   UNL     1     105.881 127.056 146.244  0.00  0.00    +0.000 C 
ATOM     12  C   UNL     1     105.735 127.820 146.516  0.00  0.00    +0.000 C 
ATOM     13  C   UNL     1     105.524 128.415 145.984  0.00  0.00    +0.000 C 
ATOM     14  C   UNL     1     105.459 128.243 145.178  0.00  0.00    +0.000 A 
ATOM     15  C   UNL     1     105.605 127.478 144.907  0.00  0.00    +0.000 A 
ATOM     16  C   UNL     1     105.238 128.870 144.634  0.00  0.00    +0.000 A 
ATOM     17  C   UNL     1     105.540 127.287 144.072  0.00  0.00    +0.000 A 
ATOM     18  C   UNL     1     105.168 128.698 143.795  0.00  0.00    +0.000 A 
ATOM     19  C   UNL     1     105.320 127.901 143.512  0.00  0.00    +0.000 A 
ENDBRANCH   1  11
BRANCH   2  20
ATOM     20  O   UNL     1     105.142 124.885 147.948  0.00  0.00    +0.000 OA
BRANCH  20  28
ATOM     21  O   UNL     1     104.689 124.219 146.768  0.00  0.00    +0.000 OA
ATOM     22  O   UNL     1     102.342 124.581 147.465  0.00  0.00    +0.000 OA
ATOM     23  O   UNL     1     103.577 125.127 148.413  0.00  0.00    +0.000 OA
ATOM     24  O   UNL     1     102.671 123.795 146.052  0.00  0.00    +0.000 OA
ATOM     25  C   UNL     1     103.124 124.461 147.232  0.00  0.00    +0.000 C 
ATOM     26  C   UNL     1     103.742 124.734 147.707  0.00  0.00    +0.000 C 
ATOM     27  C   UNL     1     103.289 124.068 146.527  0.00  0.00    +0.000 C 
ATOM     28  C   UNL     1     104.524 124.613 147.475  0.00  0.00    +0.000 C 
ATOM     29  C   UNL     1     104.071 123.947 146.295  0.00  0.00    +0.000 C 
BRANCH  29  32
ATOM     30  O   UNL     1     104.223 123.966 144.874  0.00  0.00    +0.000 OA
ATOM     31  O   UNL     1     104.413 122.748 145.596  0.00  0.00    +0.000 OA
ATOM     32  C   UNL     1     104.236 123.553 145.588  0.00  0.00    +0.000 C 
ENDBRANCH  29  32
ENDBRANCH  20  28
ENDBRANCH   2  20
BRANCH   4  33
ATOM     33  C   UNL     1     106.723 124.678 148.372  0.00  0.00    +0.000 C 
BRANCH  33  34
ATOM     34  O   UNL     1     107.473 124.679 148.717  0.00  0.00    +0.000 OA
ATOM     35  C   UNL     1     107.630 124.193 149.364  0.00  0.00    +0.000 C 
ENDBRANCH  33  34
ENDBRANCH   4  33
TORSDOF 6
ENDMDL
