MODEL 1
REMARK VINA RESULT:      -8.4      0.000      0.000
REMARK  Name = 44257581
REMARK  3 active torsions:
REMARK  status: ('A' for Active; 'I' for Inactive)
REMARK    1  A    between atoms: O_4  and  C_8
REMARK    2  A    between atoms: O_5  and  C_21
REMARK    3  A    between atoms: C_7  and  C_10
REMARK                            x       y       z     vdW  Elec       q    Type
REMARK                         _______ _______ _______ _____ _____    ______ ____
ROOT
ATOM      1  O   UNL     1     112.085 125.583 136.165  0.00  0.00    +0.000 OA
ATOM      2  O   UNL     1     111.863 123.296 137.085  0.00  0.00    +0.000 OA
ATOM      3  C   UNL     1     111.342 125.225 136.206  0.00  0.00    +0.000 A 
ATOM      4  C   UNL     1     112.679 124.416 136.737  0.00  0.00    +0.000 A 
ATOM      5  C   UNL     1     112.753 125.178 136.430  0.00  0.00    +0.000 A 
ATOM      6  C   UNL     1     111.268 124.463 136.513  0.00  0.00    +0.000 A 
ATOM      7  C   UNL     1     111.937 124.059 136.778  0.00  0.00    +0.000 A 
ATOM      8  C   UNL     1     113.521 125.561 136.382  0.00  0.00    +0.000 A 
ATOM      9  C   UNL     1     113.368 123.984 137.017  0.00  0.00    +0.000 A 
ATOM     10  C   UNL     1     114.220 125.145 136.657  0.00  0.00    +0.000 A 
ATOM     11  C   UNL     1     114.143 124.351 136.977  0.00  0.00    +0.000 A 
ENDROOT
BRANCH   3  14
ATOM     12  O   UNL     1     109.071 127.038 136.569  0.00  0.00    +0.000 OA
ATOM     13  O   UNL     1     108.670 126.904 135.310  0.00  0.00    +0.000 OA
ATOM     14  C   UNL     1     110.675 125.630 135.940  0.00  0.00    +0.000 A 
ATOM     15  C   UNL     1     110.256 126.119 136.458  0.00  0.00    +0.000 A 
ATOM     16  C   UNL     1     109.589 126.524 136.192  0.00  0.00    +0.000 A 
ATOM     17  C   UNL     1     109.339 126.441 135.410  0.00  0.00    +0.000 A 
ATOM     18  C   UNL     1     110.425 125.547 135.159  0.00  0.00    +0.000 A 
ATOM     19  C   UNL     1     109.757 125.953 134.894  0.00  0.00    +0.000 A 
ATOM     20  C   UNL     1     108.505 127.272 136.024  0.00  0.00    +0.000 C 
BRANCH  15  21
ATOM     21  O   UNL     1     110.506 126.202 137.240  0.00  0.00    +0.000 OA
ATOM     22  C   UNL     1     109.959 126.379 137.830  0.00  0.00    +0.000 C 
ENDBRANCH  15  21
ENDBRANCH   3  14
BRANCH  10  23
ATOM     23  O   UNL     1     114.961 125.506 136.614  0.00  0.00    +0.000 OA
ATOM     24  C   UNL     1     115.392 125.480 135.911  0.00  0.00    +0.000 C 
ENDBRANCH  10  23
TORSDOF 3
ENDMDL
MODEL 2
REMARK VINA RESULT:      -8.1     11.741     12.932
REMARK  Name = 44257581
REMARK  3 active torsions:
REMARK  status: ('A' for Active; 'I' for Inactive)
REMARK    1  A    between atoms: O_4  and  C_8
REMARK    2  A    between atoms: O_5  and  C_21
REMARK    3  A    between atoms: C_7  and  C_10
REMARK                            x       y       z     vdW  Elec       q    Type
REMARK                         _______ _______ _______ _____ _____    ______ ____
ROOT
ATOM      1  O   UNL     1     104.793 124.317 147.482  0.00  0.00    +0.000 OA
ATOM      2  O   UNL     1     105.833 125.857 145.846  0.00  0.00    +0.000 OA
ATOM      3  C   UNL     1     104.363 124.574 146.825  0.00  0.00    +0.000 A 
ATOM      4  C   UNL     1     105.916 125.087 147.047  0.00  0.00    +0.000 A 
ATOM      5  C   UNL     1     105.569 124.574 147.592  0.00  0.00    +0.000 A 
ATOM      6  C   UNL     1     104.710 125.087 146.280  0.00  0.00    +0.000 A 
ATOM      7  C   UNL     1     105.486 125.344 146.391  0.00  0.00    +0.000 A 
ATOM      8  C   UNL     1     106.006 124.300 148.279  0.00  0.00    +0.000 A 
ATOM      9  C   UNL     1     106.724 125.361 147.151  0.00  0.00    +0.000 A 
ATOM     10  C   UNL     1     106.815 124.564 148.400  0.00  0.00    +0.000 A 
ATOM     11  C   UNL     1     107.176 125.098 147.832  0.00  0.00    +0.000 A 
ENDROOT
BRANCH   3  14
ATOM     12  O   UNL     1     102.346 122.739 145.757  0.00  0.00    +0.000 OA
ATOM     13  O   UNL     1     101.338 123.419 146.292  0.00  0.00    +0.000 OA
ATOM     14  C   UNL     1     103.587 124.317 146.715  0.00  0.00    +0.000 A 
ATOM     15  C   UNL     1     103.437 123.637 146.272  0.00  0.00    +0.000 A 
ATOM     16  C   UNL     1     102.661 123.380 146.161  0.00  0.00    +0.000 A 
ATOM     17  C   UNL     1     102.035 123.803 146.493  0.00  0.00    +0.000 A 
ATOM     18  C   UNL     1     102.961 124.740 147.047  0.00  0.00    +0.000 A 
ATOM     19  C   UNL     1     102.185 124.482 146.936  0.00  0.00    +0.000 A 
ATOM     20  C   UNL     1     101.531 122.764 145.838  0.00  0.00    +0.000 C 
BRANCH  15  21
ATOM     21  O   UNL     1     104.063 123.215 145.939  0.00  0.00    +0.000 OA
ATOM     22  C   UNL     1     103.935 122.740 145.278  0.00  0.00    +0.000 C 
ENDBRANCH  15  21
ENDBRANCH   3  14
BRANCH  10  23
ATOM     23  O   UNL     1     107.242 124.305 149.058  0.00  0.00    +0.000 OA
ATOM     24  C   UNL     1     108.024 124.546 149.162  0.00  0.00    +0.000 C 
ENDBRANCH  10  23
TORSDOF 3
ENDMDL
MODEL 3
REMARK VINA RESULT:      -8.1      9.603     11.747
REMARK  Name = 44257581
REMARK  3 active torsions:
REMARK  status: ('A' for Active; 'I' for Inactive)
REMARK    1  A    between atoms: O_4  and  C_8
REMARK    2  A    between atoms: O_5  and  C_21
REMARK    3  A    between atoms: C_7  and  C_10
REMARK                            x       y       z     vdW  Elec       q    Type
REMARK                         _______ _______ _______ _____ _____    ______ ____
ROOT
ATOM      1  O   UNL     1     102.893 130.491 142.102  0.00  0.00    +0.000 OA
ATOM      2  O   UNL     1     102.707 129.317 139.931  0.00  0.00    +0.000 OA
ATOM      3  C   UNL     1     102.389 130.783 141.516  0.00  0.00    +0.000 A 
ATOM      4  C   UNL     1     103.273 129.418 141.238  0.00  0.00    +0.000 A 
ATOM      5  C   UNL     1     103.335 129.809 141.962  0.00  0.00    +0.000 A 
ATOM      6  C   UNL     1     102.327 130.391 140.793  0.00  0.00    +0.000 A 
ATOM      7  C   UNL     1     102.769 129.709 140.654  0.00  0.00    +0.000 A 
ATOM      8  C   UNL     1     103.857 129.515 142.579  0.00  0.00    +0.000 A 
ATOM      9  C   UNL     1     103.728 128.705 141.082  0.00  0.00    +0.000 A 
ATOM     10  C   UNL     1     104.319 128.805 142.440  0.00  0.00    +0.000 A 
ATOM     11  C   UNL     1     104.255 128.398 141.687  0.00  0.00    +0.000 A 
ENDROOT
BRANCH   3  14
ATOM     12  O   UNL     1     101.967 133.680 141.451  0.00  0.00    +0.000 OA
ATOM     13  O   UNL     1     100.763 133.591 142.003  0.00  0.00    +0.000 OA
ATOM     14  C   UNL     1     101.947 131.465 141.656  0.00  0.00    +0.000 A 
ATOM     15  C   UNL     1     102.254 132.204 141.451  0.00  0.00    +0.000 A 
ATOM     16  C   UNL     1     101.812 132.886 141.591  0.00  0.00    +0.000 A 
ATOM     17  C   UNL     1     101.064 132.831 141.934  0.00  0.00    +0.000 A 
ATOM     18  C   UNL     1     101.199 131.410 141.999  0.00  0.00    +0.000 A 
ATOM     19  C   UNL     1     100.758 132.094 142.138  0.00  0.00    +0.000 A 
ATOM     20  C   UNL     1     101.320 134.114 141.705  0.00  0.00    +0.000 C 
BRANCH  15  21
ATOM     21  O   UNL     1     103.002 132.259 141.108  0.00  0.00    +0.000 OA
ATOM     22  C   UNL     1     103.413 132.973 141.129  0.00  0.00    +0.000 C 
ENDBRANCH  15  21
ENDBRANCH   3  14
BRANCH  10  23
ATOM     23  O   UNL     1     104.823 128.517 143.027  0.00  0.00    +0.000 OA
ATOM     24  C   UNL     1     105.415 127.977 142.833  0.00  0.00    +0.000 C 
ENDBRANCH  10  23
TORSDOF 3
ENDMDL
MODEL 4
REMARK VINA RESULT:      -7.8     11.586     13.480
REMARK  Name = 44257581
REMARK  3 active torsions:
REMARK  status: ('A' for Active; 'I' for Inactive)
REMARK    1  A    between atoms: O_4  and  C_8
REMARK    2  A    between atoms: O_5  and  C_21
REMARK    3  A    between atoms: C_7  and  C_10
REMARK                            x       y       z     vdW  Elec       q    Type
REMARK                         _______ _______ _______ _____ _____    ______ ____
ROOT
ATOM      1  O   UNL     1     104.551 124.304 146.776  0.00  0.00    +0.000 OA
ATOM      2  O   UNL     1     103.045 125.928 147.881  0.00  0.00    +0.000 OA
ATOM      3  C   UNL     1     104.866 124.957 147.173  0.00  0.00    +0.000 A 
ATOM      4  C   UNL     1     103.232 124.736 147.117  0.00  0.00    +0.000 A 
ATOM      5  C   UNL     1     103.734 124.195 146.748  0.00  0.00    +0.000 A 
ATOM      6  C   UNL     1     104.364 125.498 147.541  0.00  0.00    +0.000 A 
ATOM      7  C   UNL     1     103.547 125.387 147.512  0.00  0.00    +0.000 A 
ATOM      8  C   UNL     1     103.418 123.512 146.332  0.00  0.00    +0.000 A 
ATOM      9  C   UNL     1     102.379 124.632 147.094  0.00  0.00    +0.000 A 
ATOM     10  C   UNL     1     102.568 123.392 146.300  0.00  0.00    +0.000 A 
ATOM     11  C   UNL     1     102.045 123.956 146.683  0.00  0.00    +0.000 A 
ENDROOT
BRANCH   3  14
ATOM     12  O   UNL     1     107.501 124.659 148.416  0.00  0.00    +0.000 OA
ATOM     13  O   UNL     1     108.118 125.307 147.435  0.00  0.00    +0.000 OA
ATOM     14  C   UNL     1     105.684 125.066 147.200  0.00  0.00    +0.000 A 
ATOM     15  C   UNL     1     106.117 124.773 147.839  0.00  0.00    +0.000 A 
ATOM     16  C   UNL     1     106.934 124.883 147.866  0.00  0.00    +0.000 A 
ATOM     17  C   UNL     1     107.318 125.285 147.257  0.00  0.00    +0.000 A 
ATOM     18  C   UNL     1     106.067 125.469 146.591  0.00  0.00    +0.000 A 
ATOM     19  C   UNL     1     106.885 125.578 146.619  0.00  0.00    +0.000 A 
ATOM     20  C   UNL     1     108.231 124.921 148.150  0.00  0.00    +0.000 C 
BRANCH  15  21
ATOM     21  O   UNL     1     105.734 124.371 148.448  0.00  0.00    +0.000 OA
ATOM     22  C   UNL     1     106.099 124.290 149.182  0.00  0.00    +0.000 C 
ENDBRANCH  15  21
ENDBRANCH   3  14
BRANCH  10  23
ATOM     23  O   UNL     1     102.256 122.739 145.903  0.00  0.00    +0.000 OA
ATOM     24  C   UNL     1     101.586 122.826 145.429  0.00  0.00    +0.000 C 
ENDBRANCH  10  23
TORSDOF 3
ENDMDL
MODEL 5
REMARK VINA RESULT:      -7.8      2.634      4.174
REMARK  Name = 44257581
REMARK  3 active torsions:
REMARK  status: ('A' for Active; 'I' for Inactive)
REMARK    1  A    between atoms: O_4  and  C_8
REMARK    2  A    between atoms: O_5  and  C_21
REMARK    3  A    between atoms: C_7  and  C_10
REMARK                            x       y       z     vdW  Elec       q    Type
REMARK                         _______ _______ _______ _____ _____    ______ ____
ROOT
ATOM      1  O   UNL     1     113.708 127.384 136.130  0.00  0.00    +0.000 OA
ATOM      2  O   UNL     1     112.918 128.722 138.056  0.00  0.00    +0.000 OA
ATOM      3  C   UNL     1     113.399 127.006 136.797  0.00  0.00    +0.000 A 
ATOM      4  C   UNL     1     113.489 128.653 136.749  0.00  0.00    +0.000 A 
ATOM      5  C   UNL     1     113.753 128.207 136.107  0.00  0.00    +0.000 A 
ATOM      6  C   UNL     1     113.136 127.453 137.439  0.00  0.00    +0.000 A 
ATOM      7  C   UNL     1     113.181 128.276 137.414  0.00  0.00    +0.000 A 
ATOM      8  C   UNL     1     114.076 128.588 135.408  0.00  0.00    +0.000 A 
ATOM      9  C   UNL     1     113.531 129.512 136.736  0.00  0.00    +0.000 A 
ATOM     10  C   UNL     1     114.126 129.445 135.377  0.00  0.00    +0.000 A 
ATOM     11  C   UNL     1     113.851 129.910 136.046  0.00  0.00    +0.000 A 
ENDROOT
BRANCH   3  14
ATOM     12  O   UNL     1     112.010 124.455 136.427  0.00  0.00    +0.000 OA
ATOM     13  O   UNL     1     113.056 123.743 136.830  0.00  0.00    +0.000 OA
ATOM     14  C   UNL     1     113.354 126.183 136.820  0.00  0.00    +0.000 A 
ATOM     15  C   UNL     1     112.658 125.802 136.592  0.00  0.00    +0.000 A 
ATOM     16  C   UNL     1     112.613 124.978 136.615  0.00  0.00    +0.000 A 
ATOM     17  C   UNL     1     113.263 124.536 136.866  0.00  0.00    +0.000 A 
ATOM     18  C   UNL     1     114.004 125.741 137.070  0.00  0.00    +0.000 A 
ATOM     19  C   UNL     1     113.958 124.917 137.093  0.00  0.00    +0.000 A 
ATOM     20  C   UNL     1     112.283 123.694 136.560  0.00  0.00    +0.000 C 
BRANCH  15  21
ATOM     21  O   UNL     1     112.008 126.244 136.341  0.00  0.00    +0.000 OA
ATOM     22  C   UNL     1     111.443 125.902 135.849  0.00  0.00    +0.000 C 
ENDBRANCH  15  21
ENDBRANCH   3  14
BRANCH  10  23
ATOM     23  O   UNL     1     114.435 129.819 134.709  0.00  0.00    +0.000 OA
ATOM     24  C   UNL     1     115.081 130.327 134.784  0.00  0.00    +0.000 C 
ENDBRANCH  10  23
TORSDOF 3
ENDMDL
MODEL 6
REMARK VINA RESULT:      -7.8      3.112      4.430
REMARK  Name = 44257581
REMARK  3 active torsions:
REMARK  status: ('A' for Active; 'I' for Inactive)
REMARK    1  A    between atoms: O_4  and  C_8
REMARK    2  A    between atoms: O_5  and  C_21
REMARK    3  A    between atoms: C_7  and  C_10
REMARK                            x       y       z     vdW  Elec       q    Type
REMARK                         _______ _______ _______ _____ _____    ______ ____
ROOT
ATOM      1  O   UNL     1     112.667 126.091 138.416  0.00  0.00    +0.000 OA
ATOM      2  O   UNL     1     114.839 125.167 137.673  0.00  0.00    +0.000 OA
ATOM      3  C   UNL     1     113.365 126.324 138.792  0.00  0.00    +0.000 A 
ATOM      4  C   UNL     1     113.419 125.243 137.546  0.00  0.00    +0.000 A 
ATOM      5  C   UNL     1     112.695 125.551 137.794  0.00  0.00    +0.000 A 
ATOM      6  C   UNL     1     114.089 126.016 138.544  0.00  0.00    +0.000 A 
ATOM      7  C   UNL     1     114.115 125.475 137.921  0.00  0.00    +0.000 A 
ATOM      8  C   UNL     1     111.961 125.316 137.411  0.00  0.00    +0.000 A 
ATOM      9  C   UNL     1     113.460 124.679 136.898  0.00  0.00    +0.000 A 
ATOM     10  C   UNL     1     111.983 124.754 136.762  0.00  0.00    +0.000 A 
ATOM     11  C   UNL     1     112.737 124.433 136.504  0.00  0.00    +0.000 A 
ENDROOT
BRANCH   3  14
ATOM     12  O   UNL     1     113.345 129.035 139.897  0.00  0.00    +0.000 OA
ATOM     13  O   UNL     1     113.264 128.603 141.150  0.00  0.00    +0.000 OA
ATOM     14  C   UNL     1     113.337 126.864 139.414  0.00  0.00    +0.000 A 
ATOM     15  C   UNL     1     113.360 127.674 139.258  0.00  0.00    +0.000 A 
ATOM     16  C   UNL     1     113.332 128.215 139.880  0.00  0.00    +0.000 A 
ATOM     17  C   UNL     1     113.282 127.946 140.659  0.00  0.00    +0.000 A 
ATOM     18  C   UNL     1     113.287 126.595 140.192  0.00  0.00    +0.000 A 
ATOM     19  C   UNL     1     113.260 127.137 140.814  0.00  0.00    +0.000 A 
ATOM     20  C   UNL     1     113.303 129.274 140.680  0.00  0.00    +0.000 C 
BRANCH  15  21
ATOM     21  O   UNL     1     113.410 127.943 138.479  0.00  0.00    +0.000 OA
ATOM     22  C   UNL     1     113.107 128.683 138.278  0.00  0.00    +0.000 C 
ENDBRANCH  15  21
ENDBRANCH   3  14
BRANCH  10  23
ATOM     23  O   UNL     1     111.284 124.524 136.389  0.00  0.00    +0.000 OA
ATOM     24  C   UNL     1     110.948 125.005 135.810  0.00  0.00    +0.000 C 
ENDBRANCH  10  23
TORSDOF 3
ENDMDL
MODEL 7
REMARK VINA RESULT:      -7.7      9.845     11.970
REMARK  Name = 44257581
REMARK  3 active torsions:
REMARK  status: ('A' for Active; 'I' for Inactive)
REMARK    1  A    between atoms: O_4  and  C_8
REMARK    2  A    between atoms: O_5  and  C_21
REMARK    3  A    between atoms: C_7  and  C_10
REMARK                            x       y       z     vdW  Elec       q    Type
REMARK                         _______ _______ _______ _____ _____    ______ ____
ROOT
ATOM      1  O   UNL     1     106.580 125.323 145.937  0.00  0.00    +0.000 OA
ATOM      2  O   UNL     1     106.167 127.763 145.968  0.00  0.00    +0.000 OA
ATOM      3  C   UNL     1     106.745 125.761 146.617  0.00  0.00    +0.000 A 
ATOM      4  C   UNL     1     106.140 126.512 145.278  0.00  0.00    +0.000 A 
ATOM      5  C   UNL     1     106.278 125.699 145.268  0.00  0.00    +0.000 A 
ATOM      6  C   UNL     1     106.607 126.574 146.628  0.00  0.00    +0.000 A 
ATOM      7  C   UNL     1     106.304 126.949 145.957  0.00  0.00    +0.000 A 
ATOM      8  C   UNL     1     106.111 125.232 144.566  0.00  0.00    +0.000 A 
ATOM      9  C   UNL     1     105.825 126.915 144.587  0.00  0.00    +0.000 A 
ATOM     10  C   UNL     1     105.796 125.617 143.866  0.00  0.00    +0.000 A 
ATOM     11  C   UNL     1     105.652 126.464 143.876  0.00  0.00    +0.000 A 
ENDROOT
BRANCH   3  14
ATOM     12  O   UNL     1     106.474 124.223 149.095  0.00  0.00    +0.000 OA
ATOM     13  O   UNL     1     107.782 124.221 149.323  0.00  0.00    +0.000 OA
ATOM     14  C   UNL     1     107.047 125.385 147.286  0.00  0.00    +0.000 A 
ATOM     15  C   UNL     1     106.535 125.010 147.815  0.00  0.00    +0.000 A 
ATOM     16  C   UNL     1     106.837 124.634 148.484  0.00  0.00    +0.000 A 
ATOM     17  C   UNL     1     107.650 124.632 148.625  0.00  0.00    +0.000 A 
ATOM     18  C   UNL     1     107.859 125.384 147.428  0.00  0.00    +0.000 A 
ATOM     19  C   UNL     1     108.160 125.007 148.098  0.00  0.00    +0.000 A 
ATOM     20  C   UNL     1     107.058 123.969 149.612  0.00  0.00    +0.000 C 
BRANCH  15  21
ATOM     21  O   UNL     1     105.722 125.011 147.673  0.00  0.00    +0.000 OA
ATOM     22  C   UNL     1     105.195 124.903 148.298  0.00  0.00    +0.000 C 
ENDBRANCH  15  21
ENDBRANCH   3  14
BRANCH  10  23
ATOM     23  O   UNL     1     105.633 125.176 143.187  0.00  0.00    +0.000 OA
ATOM     24  C   UNL     1     106.025 125.345 142.482  0.00  0.00    +0.000 C 
ENDBRANCH  10  23
TORSDOF 3
ENDMDL
MODEL 8
REMARK VINA RESULT:      -7.7      9.639     12.442
REMARK  Name = 44257581
REMARK  3 active torsions:
REMARK  status: ('A' for Active; 'I' for Inactive)
REMARK    1  A    between atoms: O_4  and  C_8
REMARK    2  A    between atoms: O_5  and  C_21
REMARK    3  A    between atoms: C_7  and  C_10
REMARK                            x       y       z     vdW  Elec       q    Type
REMARK                         _______ _______ _______ _____ _____    ______ ____
ROOT
ATOM      1  O   UNL     1     102.728 131.995 141.138  0.00  0.00    +0.000 OA
ATOM      2  O   UNL     1     100.710 132.171 142.560  0.00  0.00    +0.000 OA
ATOM      3  C   UNL     1     102.354 131.311 141.411  0.00  0.00    +0.000 A 
ATOM      4  C   UNL     1     101.755 132.795 141.814  0.00  0.00    +0.000 A 
ATOM      5  C   UNL     1     102.428 132.737 141.339  0.00  0.00    +0.000 A 
ATOM      6  C   UNL     1     101.682 131.370 141.885  0.00  0.00    +0.000 A 
ATOM      7  C   UNL     1     101.383 132.112 142.086  0.00  0.00    +0.000 A 
ATOM      8  C   UNL     1     102.825 133.442 141.049  0.00  0.00    +0.000 A 
ATOM      9  C   UNL     1     101.434 133.562 142.030  0.00  0.00    +0.000 A 
ATOM     10  C   UNL     1     102.518 134.217 141.256  0.00  0.00    +0.000 A 
ATOM     11  C   UNL     1     101.818 134.278 141.749  0.00  0.00    +0.000 A 
ENDROOT
BRANCH   3  14
ATOM     12  O   UNL     1     104.101 128.999 141.829  0.00  0.00    +0.000 OA
ATOM     13  O   UNL     1     103.651 128.371 140.749  0.00  0.00    +0.000 OA
ATOM     14  C   UNL     1     102.654 130.570 141.209  0.00  0.00    +0.000 A 
ATOM     15  C   UNL     1     103.235 130.218 141.679  0.00  0.00    +0.000 A 
ATOM     16  C   UNL     1     103.535 129.477 141.478  0.00  0.00    +0.000 A 
ATOM     17  C   UNL     1     103.255 129.087 140.806  0.00  0.00    +0.000 A 
ATOM     18  C   UNL     1     102.375 130.180 140.538  0.00  0.00    +0.000 A 
ATOM     19  C   UNL     1     102.676 129.438 140.337  0.00  0.00    +0.000 A 
ATOM     20  C   UNL     1     104.173 128.317 141.380  0.00  0.00    +0.000 C 
BRANCH  15  21
ATOM     21  O   UNL     1     103.514 130.608 142.350  0.00  0.00    +0.000 OA
ATOM     22  C   UNL     1     103.841 130.176 142.972  0.00  0.00    +0.000 C 
ENDBRANCH  15  21
ENDBRANCH   3  14
BRANCH  10  23
ATOM     23  O   UNL     1     102.894 134.899 140.981  0.00  0.00    +0.000 OA
ATOM     24  C   UNL     1     102.495 135.412 140.472  0.00  0.00    +0.000 C 
ENDBRANCH  10  23
TORSDOF 3
ENDMDL
MODEL 9
REMARK VINA RESULT:      -7.6      2.800      4.095
REMARK  Name = 44257581
REMARK  3 active torsions:
REMARK  status: ('A' for Active; 'I' for Inactive)
REMARK    1  A    between atoms: O_4  and  C_8
REMARK    2  A    between atoms: O_5  and  C_21
REMARK    3  A    between atoms: C_7  and  C_10
REMARK                            x       y       z     vdW  Elec       q    Type
REMARK                         _______ _______ _______ _____ _____    ______ ____
ROOT
ATOM      1  O   UNL     1     112.283 127.257 136.039  0.00  0.00    +0.000 OA
ATOM      2  O   UNL     1     113.555 125.371 137.013  0.00  0.00    +0.000 OA
ATOM      3  C   UNL     1     113.027 127.389 136.372  0.00  0.00    +0.000 A 
ATOM      4  C   UNL     1     112.388 125.868 136.357  0.00  0.00    +0.000 A 
ATOM      5  C   UNL     1     111.964 126.497 136.032  0.00  0.00    +0.000 A 
ATOM      6  C   UNL     1     113.451 126.760 136.696  0.00  0.00    +0.000 A 
ATOM      7  C   UNL     1     113.131 126.000 136.689  0.00  0.00    +0.000 A 
ATOM      8  C   UNL     1     111.188 126.372 135.683  0.00  0.00    +0.000 A 
ATOM      9  C   UNL     1     112.066 125.071 136.355  0.00  0.00    +0.000 A 
ATOM     10  C   UNL     1     110.851 125.582 135.672  0.00  0.00    +0.000 A 
ATOM     11  C   UNL     1     111.292 124.927 136.010  0.00  0.00    +0.000 A 
ENDROOT
BRANCH   3  14
ATOM     12  O   UNL     1     113.501 130.011 137.587  0.00  0.00    +0.000 OA
ATOM     13  O   UNL     1     114.223 130.439 136.558  0.00  0.00    +0.000 OA
ATOM     14  C   UNL     1     113.346 128.150 136.379  0.00  0.00    +0.000 A 
ATOM     15  C   UNL     1     113.216 128.645 137.027  0.00  0.00    +0.000 A 
ATOM     16  C   UNL     1     113.535 129.406 137.034  0.00  0.00    +0.000 A 
ATOM     17  C   UNL     1     113.983 129.672 136.395  0.00  0.00    +0.000 A 
ATOM     18  C   UNL     1     113.795 128.416 135.740  0.00  0.00    +0.000 A 
ATOM     19  C   UNL     1     114.113 129.177 135.748  0.00  0.00    +0.000 A 
ATOM     20  C   UNL     1     113.925 130.648 137.293  0.00  0.00    +0.000 C 
BRANCH  15  21
ATOM     21  O   UNL     1     112.767 128.379 137.666  0.00  0.00    +0.000 OA
ATOM     22  C   UNL     1     112.374 128.921 138.147  0.00  0.00    +0.000 C 
ENDBRANCH  15  21
ENDBRANCH   3  14
BRANCH  10  23
ATOM     23  O   UNL     1     110.106 125.454 135.339  0.00  0.00    +0.000 OA
ATOM     24  C   UNL     1     109.904 125.823 134.629  0.00  0.00    +0.000 C 
ENDBRANCH  10  23
TORSDOF 3
ENDMDL
MODEL 10
REMARK VINA RESULT:      -7.6      2.272      3.998
REMARK  Name = 44257581
REMARK  3 active torsions:
REMARK  status: ('A' for Active; 'I' for Inactive)
REMARK    1  A    between atoms: O_4  and  C_8
REMARK    2  A    between atoms: O_5  and  C_21
REMARK    3  A    between atoms: C_7  and  C_10
REMARK                            x       y       z     vdW  Elec       q    Type
REMARK                         _______ _______ _______ _____ _____    ______ ____
ROOT
ATOM      1  O   UNL     1     111.863 126.379 137.214  0.00  0.00    +0.000 OA
ATOM      2  O   UNL     1     111.567 123.951 136.836  0.00  0.00    +0.000 OA
ATOM      3  C   UNL     1     112.153 125.836 137.765  0.00  0.00    +0.000 A 
ATOM      4  C   UNL     1     111.376 125.301 136.412  0.00  0.00    +0.000 A 
ATOM      5  C   UNL     1     111.474 126.110 136.538  0.00  0.00    +0.000 A 
ATOM      6  C   UNL     1     112.055 125.027 137.639  0.00  0.00    +0.000 A 
ATOM      7  C   UNL     1     111.666 124.760 136.962  0.00  0.00    +0.000 A 
ATOM      8  C   UNL     1     111.176 126.684 135.971  0.00  0.00    +0.000 A 
ATOM      9  C   UNL     1     110.972 125.010 135.711  0.00  0.00    +0.000 A 
ATOM     10  C   UNL     1     110.771 126.411 135.265  0.00  0.00    +0.000 A 
ATOM     11  C   UNL     1     110.668 125.569 135.134  0.00  0.00    +0.000 A 
ENDROOT
BRANCH   3  14
ATOM     12  O   UNL     1     112.231 126.717 140.557  0.00  0.00    +0.000 OA
ATOM     13  O   UNL     1     113.545 126.907 140.537  0.00  0.00    +0.000 OA
ATOM     14  C   UNL     1     112.542 126.105 138.441  0.00  0.00    +0.000 A 
ATOM     15  C   UNL     1     112.113 126.255 139.130  0.00  0.00    +0.000 A 
ATOM     16  C   UNL     1     112.502 126.524 139.806  0.00  0.00    +0.000 A 
ATOM     17  C   UNL     1     113.319 126.642 139.794  0.00  0.00    +0.000 A 
ATOM     18  C   UNL     1     113.359 126.223 138.429  0.00  0.00    +0.000 A 
ATOM     19  C   UNL     1     113.746 126.491 139.106  0.00  0.00    +0.000 A 
ATOM     20  C   UNL     1     112.874 126.953 141.006  0.00  0.00    +0.000 C 
BRANCH  15  21
ATOM     21  O   UNL     1     111.297 126.137 139.143  0.00  0.00    +0.000 OA
ATOM     22  C   UNL     1     110.827 126.561 139.671  0.00  0.00    +0.000 C 
ENDBRANCH  15  21
ENDBRANCH   3  14
BRANCH  10  23
ATOM     23  O   UNL     1     110.482 126.956 134.716  0.00  0.00    +0.000 OA
ATOM     24  C   UNL     1     109.827 127.422 134.904  0.00  0.00    +0.000 C 
ENDBRANCH  10  23
TORSDOF 3
ENDMDL
