MODEL 1
REMARK VINA RESULT:      -9.7      0.000      0.000
REMARK  Name = 42607896
REMARK  7 active torsions:
REMARK  status: ('A' for Active; 'I' for Inactive)
REMARK    1  A    between atoms: O_2  and  C_16
REMARK    2  A    between atoms: O_2  and  C_18
REMARK    3  A    between atoms: C_15  and  C_17
REMARK    4  A    between atoms: C_19  and  C_25
REMARK    5  A    between atoms: C_21  and  C_28
REMARK    6  A    between atoms: C_25  and  C_29
REMARK    7  A    between atoms: C_32  and  C_36
REMARK                            x       y       z     vdW  Elec       q    Type
REMARK                         _______ _______ _______ _____ _____    ______ ____
ROOT
ATOM      1  O   UNL     1     112.573 127.216 136.405  0.00  0.00    +0.000 OA
ATOM      2  O   UNL     1     112.688 130.055 135.852  0.00  0.00    +0.000 OA
ATOM      3  O   UNL     1     113.896 129.369 136.245  0.00  0.00    +0.000 OA
ATOM      4  C   UNL     1     111.014 128.657 135.785  0.00  0.00    +0.000 A 
ATOM      5  C   UNL     1     111.388 127.955 136.006  0.00  0.00    +0.000 A 
ATOM      6  C   UNL     1     112.195 127.953 136.176  0.00  0.00    +0.000 A 
ATOM      7  C   UNL     1     113.413 127.208 136.583  0.00  0.00    +0.000 C 
ATOM      8  C   UNL     1     112.628 128.654 136.124  0.00  0.00    +0.000 A 
ATOM      9  C   UNL     1     113.865 127.937 136.529  0.00  0.00    +0.000 C 
ATOM     10  C   UNL     1     111.448 129.356 135.734  0.00  0.00    +0.000 A 
ATOM     11  C   UNL     1     113.470 128.665 136.298  0.00  0.00    +0.000 C 
ATOM     12  C   UNL     1     112.255 129.355 135.904  0.00  0.00    +0.000 A 
ENDROOT
BRANCH   7  14
ATOM     13  O   UNL     1     114.898 124.396 137.464  0.00  0.00    +0.000 OA
ATOM     14  C   UNL     1     113.784 126.505 136.803  0.00  0.00    +0.000 A 
ATOM     15  C   UNL     1     113.712 126.225 137.576  0.00  0.00    +0.000 A 
ATOM     16  C   UNL     1     114.228 126.082 136.251  0.00  0.00    +0.000 A 
ATOM     17  C   UNL     1     114.083 125.522 137.797  0.00  0.00    +0.000 A 
ATOM     18  C   UNL     1     114.599 125.379 136.471  0.00  0.00    +0.000 A 
ATOM     19  C   UNL     1     114.527 125.099 137.244  0.00  0.00    +0.000 A 
ENDBRANCH   7  14
BRANCH   4  20
ATOM     20  O   UNL     1     110.206 128.658 135.616  0.00  0.00    +0.000 OA
BRANCH  20  29
ATOM     21  O   UNL     1     109.717 129.360 136.760  0.00  0.00    +0.000 OA
ATOM     22  O   UNL     1     108.249 130.717 135.301  0.00  0.00    +0.000 OA
ATOM     23  O   UNL     1     108.249 130.966 136.931  0.00  0.00    +0.000 OA
ATOM     24  O   UNL     1     109.228 129.563 134.643  0.00  0.00    +0.000 OA
ATOM     25  C   UNL     1     108.738 130.265 135.787  0.00  0.00    +0.000 C 
ATOM     26  C   UNL     1     108.739 130.389 136.603  0.00  0.00    +0.000 C 
ATOM     27  C   UNL     1     109.228 129.687 135.458  0.00  0.00    +0.000 C 
ATOM     28  C   UNL     1     109.228 129.937 137.089  0.00  0.00    +0.000 C 
ATOM     29  C   UNL     1     109.717 129.235 135.945  0.00  0.00    +0.000 C 
BRANCH  28  31
ATOM     30  O   UNL     1     109.096 129.430 138.419  0.00  0.00    +0.000 OA
ATOM     31  C   UNL     1     109.228 130.061 137.904  0.00  0.00    +0.000 C 
ENDBRANCH  28  31
ENDBRANCH  20  29
ENDBRANCH   4  20
BRANCH   5  32
ATOM     32  C   UNL     1     110.954 127.255 136.057  0.00  0.00    +0.000 C 
BRANCH  32  33
ATOM     33  C   UNL     1     110.785 126.823 135.375  0.00  0.00    +0.000 C 
ATOM     34  C   UNL     1     110.384 126.104 135.432  0.00  0.00    +0.000 C 
ATOM     35  C   UNL     1     110.151 125.818 136.169  0.00  0.00    +0.000 C 
BRANCH  34  37
ATOM     36  O   UNL     1     109.449 125.400 134.612  0.00  0.00    +0.000 OA
ATOM     37  C   UNL     1     110.215 125.672 134.750  0.00  0.00    +0.000 C 
ENDBRANCH  34  37
ENDBRANCH  32  33
ENDBRANCH   5  32
TORSDOF 7
ENDMDL
MODEL 2
REMARK VINA RESULT:      -9.4      1.950      3.617
REMARK  Name = 42607896
REMARK  7 active torsions:
REMARK  status: ('A' for Active; 'I' for Inactive)
REMARK    1  A    between atoms: O_2  and  C_16
REMARK    2  A    between atoms: O_2  and  C_18
REMARK    3  A    between atoms: C_15  and  C_17
REMARK    4  A    between atoms: C_19  and  C_25
REMARK    5  A    between atoms: C_21  and  C_28
REMARK    6  A    between atoms: C_25  and  C_29
REMARK    7  A    between atoms: C_32  and  C_36
REMARK                            x       y       z     vdW  Elec       q    Type
REMARK                         _______ _______ _______ _____ _____    ______ ____
ROOT
ATOM      1  O   UNL     1     110.439 128.156 136.004  0.00  0.00    +0.000 OA
ATOM      2  O   UNL     1     108.192 129.978 135.914  0.00  0.00    +0.000 OA
ATOM      3  O   UNL     1     107.954 128.565 135.741  0.00  0.00    +0.000 OA
ATOM      4  C   UNL     1     110.321 130.354 136.213  0.00  0.00    +0.000 A 
ATOM      5  C   UNL     1     110.622 129.587 136.172  0.00  0.00    +0.000 A 
ATOM      6  C   UNL     1     110.113 128.950 136.045  0.00  0.00    +0.000 A 
ATOM      7  C   UNL     1     109.914 127.489 135.872  0.00  0.00    +0.000 C 
ATOM      8  C   UNL     1     109.303 129.081 135.959  0.00  0.00    +0.000 A 
ATOM      9  C   UNL     1     109.070 127.624 135.783  0.00  0.00    +0.000 C 
ATOM     10  C   UNL     1     109.511 130.484 136.127  0.00  0.00    +0.000 A 
ATOM     11  C   UNL     1     108.763 128.426 135.826  0.00  0.00    +0.000 C 
ATOM     12  C   UNL     1     109.002 129.847 136.000  0.00  0.00    +0.000 A 
ENDROOT
BRANCH   7  14
ATOM     13  O   UNL     1     111.129 124.425 135.709  0.00  0.00    +0.000 OA
ATOM     14  C   UNL     1     110.218 126.723 135.832  0.00  0.00    +0.000 A 
ATOM     15  C   UNL     1     110.411 126.319 136.524  0.00  0.00    +0.000 A 
ATOM     16  C   UNL     1     110.328 126.362 135.098  0.00  0.00    +0.000 A 
ATOM     17  C   UNL     1     110.715 125.553 136.484  0.00  0.00    +0.000 A 
ATOM     18  C   UNL     1     110.632 125.596 135.057  0.00  0.00    +0.000 A 
ATOM     19  C   UNL     1     110.825 125.191 135.749  0.00  0.00    +0.000 A 
ENDBRANCH   7  14
BRANCH   4  20
ATOM     20  O   UNL     1     110.830 130.991 136.341  0.00  0.00    +0.000 OA
BRANCH  20  29
ATOM     21  O   UNL     1     110.498 131.337 137.687  0.00  0.00    +0.000 OA
ATOM     22  O   UNL     1     110.373 133.723 137.044  0.00  0.00    +0.000 OA
ATOM     23  O   UNL     1     110.084 133.273 138.604  0.00  0.00    +0.000 OA
ATOM     24  O   UNL     1     110.747 132.582 135.912  0.00  0.00    +0.000 OA
ATOM     25  C   UNL     1     110.415 132.928 137.258  0.00  0.00    +0.000 C 
ATOM     26  C   UNL     1     110.270 132.702 138.038  0.00  0.00    +0.000 C 
ATOM     27  C   UNL     1     110.602 132.357 136.692  0.00  0.00    +0.000 C 
ATOM     28  C   UNL     1     110.312 131.906 138.253  0.00  0.00    +0.000 C 
ATOM     29  C   UNL     1     110.643 131.561 136.906  0.00  0.00    +0.000 C 
BRANCH  28  31
ATOM     30  O   UNL     1     110.729 131.242 139.447  0.00  0.00    +0.000 OA
ATOM     31  C   UNL     1     110.167 131.682 139.032  0.00  0.00    +0.000 C 
ENDBRANCH  28  31
ENDBRANCH  20  29
ENDBRANCH   4  20
BRANCH   5  32
ATOM     32  C   UNL     1     111.432 129.457 136.258  0.00  0.00    +0.000 C 
BRANCH  32  33
ATOM     33  C   UNL     1     111.928 129.490 135.600  0.00  0.00    +0.000 C 
ATOM     34  C   UNL     1     112.733 129.330 135.682  0.00  0.00    +0.000 C 
ATOM     35  C   UNL     1     113.042 129.136 136.421  0.00  0.00    +0.000 C 
BRANCH  34  37
ATOM     36  O   UNL     1     114.011 129.107 135.082  0.00  0.00    +0.000 OA
ATOM     37  C   UNL     1     113.229 129.363 135.024  0.00  0.00    +0.000 C 
ENDBRANCH  34  37
ENDBRANCH  32  33
ENDBRANCH   5  32
TORSDOF 7
ENDMDL
MODEL 3
REMARK VINA RESULT:      -9.3      3.093      5.516
REMARK  Name = 42607896
REMARK  7 active torsions:
REMARK  status: ('A' for Active; 'I' for Inactive)
REMARK    1  A    between atoms: O_2  and  C_16
REMARK    2  A    between atoms: O_2  and  C_18
REMARK    3  A    between atoms: C_15  and  C_17
REMARK    4  A    between atoms: C_19  and  C_25
REMARK    5  A    between atoms: C_21  and  C_28
REMARK    6  A    between atoms: C_25  and  C_29
REMARK    7  A    between atoms: C_32  and  C_36
REMARK                            x       y       z     vdW  Elec       q    Type
REMARK                         _______ _______ _______ _____ _____    ______ ____
ROOT
ATOM      1  O   UNL     1     113.473 128.591 139.608  0.00  0.00    +0.000 OA
ATOM      2  O   UNL     1     112.281 126.104 140.489  0.00  0.00    +0.000 OA
ATOM      3  O   UNL     1     112.833 127.003 141.474  0.00  0.00    +0.000 OA
ATOM      4  C   UNL     1     112.524 126.938 138.486  0.00  0.00    +0.000 A 
ATOM      5  C   UNL     1     112.904 127.650 138.659  0.00  0.00    +0.000 A 
ATOM      6  C   UNL     1     113.077 127.846 139.441  0.00  0.00    +0.000 A 
ATOM      7  C   UNL     1     113.656 128.800 140.421  0.00  0.00    +0.000 C 
ATOM      8  C   UNL     1     112.869 127.331 140.051  0.00  0.00    +0.000 A 
ATOM      9  C   UNL     1     113.440 128.264 141.056  0.00  0.00    +0.000 C 
ATOM     10  C   UNL     1     112.316 126.423 139.097  0.00  0.00    +0.000 A 
ATOM     11  C   UNL     1     113.044 127.524 140.870  0.00  0.00    +0.000 C 
ATOM     12  C   UNL     1     112.489 126.620 139.879  0.00  0.00    +0.000 A 
ENDROOT
BRANCH   7  14
ATOM     13  O   UNL     1     115.178 131.649 141.098  0.00  0.00    +0.000 OA
ATOM     14  C   UNL     1     114.036 129.512 140.590  0.00  0.00    +0.000 A 
ATOM     15  C   UNL     1     113.613 130.136 140.926  0.00  0.00    +0.000 A 
ATOM     16  C   UNL     1     114.839 129.601 140.424  0.00  0.00    +0.000 A 
ATOM     17  C   UNL     1     113.994 130.849 141.095  0.00  0.00    +0.000 A 
ATOM     18  C   UNL     1     115.220 130.312 140.593  0.00  0.00    +0.000 A 
ATOM     19  C   UNL     1     114.798 130.936 140.929  0.00  0.00    +0.000 A 
ENDBRANCH   7  14
BRANCH   4  20
ATOM     20  O   UNL     1     112.351 126.741 137.704  0.00  0.00    +0.000 OA
BRANCH  20  29
ATOM     21  O   UNL     1     113.269 125.666 137.500  0.00  0.00    +0.000 OA
ATOM     22  O   UNL     1     111.476 124.336 136.433  0.00  0.00    +0.000 OA
ATOM     23  O   UNL     1     112.992 123.704 136.586  0.00  0.00    +0.000 OA
ATOM     24  O   UNL     1     111.155 125.854 136.993  0.00  0.00    +0.000 OA
ATOM     25  C   UNL     1     112.074 124.779 136.789  0.00  0.00    +0.000 C 
ATOM     26  C   UNL     1     112.832 124.464 136.865  0.00  0.00    +0.000 C 
ATOM     27  C   UNL     1     111.913 125.539 137.069  0.00  0.00    +0.000 C 
ATOM     28  C   UNL     1     113.430 124.907 137.221  0.00  0.00    +0.000 C 
ATOM     29  C   UNL     1     112.511 125.982 137.425  0.00  0.00    +0.000 C 
BRANCH  28  31
ATOM     30  O   UNL     1     114.848 125.060 137.139  0.00  0.00    +0.000 OA
ATOM     31  C   UNL     1     114.187 124.591 137.297  0.00  0.00    +0.000 C 
ENDBRANCH  28  31
ENDBRANCH  20  29
ENDBRANCH   4  20
BRANCH   5  32
ATOM     32  C   UNL     1     113.111 128.164 138.049  0.00  0.00    +0.000 C 
BRANCH  32  33
ATOM     33  C   UNL     1     112.566 128.718 137.772  0.00  0.00    +0.000 C 
ATOM     34  C   UNL     1     112.781 129.245 137.175  0.00  0.00    +0.000 C 
ATOM     35  C   UNL     1     113.540 129.219 136.854  0.00  0.00    +0.000 C 
BRANCH  34  37
ATOM     36  O   UNL     1     112.494 130.456 136.472  0.00  0.00    +0.000 OA
ATOM     37  C   UNL     1     112.235 129.799 136.898  0.00  0.00    +0.000 C 
ENDBRANCH  34  37
ENDBRANCH  32  33
ENDBRANCH   5  32
TORSDOF 7
ENDMDL
MODEL 4
REMARK VINA RESULT:      -9.3      0.849      2.550
REMARK  Name = 42607896
REMARK  7 active torsions:
REMARK  status: ('A' for Active; 'I' for Inactive)
REMARK    1  A    between atoms: O_2  and  C_16
REMARK    2  A    between atoms: O_2  and  C_18
REMARK    3  A    between atoms: C_15  and  C_17
REMARK    4  A    between atoms: C_19  and  C_25
REMARK    5  A    between atoms: C_21  and  C_28
REMARK    6  A    between atoms: C_25  and  C_29
REMARK    7  A    between atoms: C_32  and  C_36
REMARK                            x       y       z     vdW  Elec       q    Type
REMARK                         _______ _______ _______ _____ _____    ______ ____
ROOT
ATOM      1  O   UNL     1     112.403 126.764 136.367  0.00  0.00    +0.000 OA
ATOM      2  O   UNL     1     109.677 126.457 135.441  0.00  0.00    +0.000 OA
ATOM      3  O   UNL     1     110.430 125.280 135.803  0.00  0.00    +0.000 OA
ATOM      4  C   UNL     1     110.896 128.247 135.716  0.00  0.00    +0.000 A 
ATOM      5  C   UNL     1     111.601 127.915 135.990  0.00  0.00    +0.000 A 
ATOM      6  C   UNL     1     111.664 127.097 136.081  0.00  0.00    +0.000 A 
ATOM      7  C   UNL     1     112.474 125.913 136.463  0.00  0.00    +0.000 C 
ATOM      8  C   UNL     1     111.022 126.612 135.898  0.00  0.00    +0.000 A 
ATOM      9  C   UNL     1     111.806 125.407 136.273  0.00  0.00    +0.000 C 
ATOM     10  C   UNL     1     110.256 127.760 135.534  0.00  0.00    +0.000 A 
ATOM     11  C   UNL     1     111.076 125.759 135.988  0.00  0.00    +0.000 C 
ATOM     12  C   UNL     1     110.319 126.943 135.624  0.00  0.00    +0.000 A 
ENDROOT
BRANCH   7  14
ATOM     13  O   UNL     1     115.295 124.598 137.559  0.00  0.00    +0.000 OA
ATOM     14  C   UNL     1     113.179 125.584 136.737  0.00  0.00    +0.000 A 
ATOM     15  C   UNL     1     113.727 125.277 136.201  0.00  0.00    +0.000 A 
ATOM     16  C   UNL     1     113.338 125.563 137.546  0.00  0.00    +0.000 A 
ATOM     17  C   UNL     1     114.432 124.948 136.475  0.00  0.00    +0.000 A 
ATOM     18  C   UNL     1     114.042 125.234 137.821  0.00  0.00    +0.000 A 
ATOM     19  C   UNL     1     114.590 124.927 137.285  0.00  0.00    +0.000 A 
ENDBRANCH   7  14
BRANCH   4  20
ATOM     20  O   UNL     1     110.833 129.064 135.626  0.00  0.00    +0.000 OA
BRANCH  20  29
ATOM     21  O   UNL     1     110.003 129.426 136.731  0.00  0.00    +0.000 OA
ATOM     22  O   UNL     1     108.552 130.735 135.213  0.00  0.00    +0.000 OA
ATOM     23  O   UNL     1     108.205 130.659 136.824  0.00  0.00    +0.000 OA
ATOM     24  O   UNL     1     109.866 129.937 134.613  0.00  0.00    +0.000 OA
ATOM     25  C   UNL     1     109.035 130.298 135.719  0.00  0.00    +0.000 C 
ATOM     26  C   UNL     1     108.863 130.260 136.525  0.00  0.00    +0.000 C 
ATOM     27  C   UNL     1     109.693 129.899 135.419  0.00  0.00    +0.000 C 
ATOM     28  C   UNL     1     109.346 129.824 137.031  0.00  0.00    +0.000 C 
ATOM     29  C   UNL     1     110.177 129.463 135.925  0.00  0.00    +0.000 C 
BRANCH  28  31
ATOM     30  O   UNL     1     109.783 129.811 138.391  0.00  0.00    +0.000 OA
ATOM     31  C   UNL     1     109.173 129.787 137.836  0.00  0.00    +0.000 C 
ENDBRANCH  28  31
ENDBRANCH  20  29
ENDBRANCH   4  20
BRANCH   5  32
ATOM     32  C   UNL     1     112.242 128.401 136.173  0.00  0.00    +0.000 C 
BRANCH  32  33
ATOM     33  C   UNL     1     112.772 128.626 135.582  0.00  0.00    +0.000 C 
ATOM     34  C   UNL     1     113.435 129.078 135.773  0.00  0.00    +0.000 C 
ATOM     35  C   UNL     1     113.568 129.306 136.554  0.00  0.00    +0.000 C 
BRANCH  34  37
ATOM     36  O   UNL     1     114.691 129.638 135.384  0.00  0.00    +0.000 OA
ATOM     37  C   UNL     1     113.964 129.303 135.182  0.00  0.00    +0.000 C 
ENDBRANCH  34  37
ENDBRANCH  32  33
ENDBRANCH   5  32
TORSDOF 7
ENDMDL
MODEL 5
REMARK VINA RESULT:      -9.0      3.053      5.466
REMARK  Name = 42607896
REMARK  7 active torsions:
REMARK  status: ('A' for Active; 'I' for Inactive)
REMARK    1  A    between atoms: O_2  and  C_16
REMARK    2  A    between atoms: O_2  and  C_18
REMARK    3  A    between atoms: C_15  and  C_17
REMARK    4  A    between atoms: C_19  and  C_25
REMARK    5  A    between atoms: C_21  and  C_28
REMARK    6  A    between atoms: C_25  and  C_29
REMARK    7  A    between atoms: C_32  and  C_36
REMARK                            x       y       z     vdW  Elec       q    Type
REMARK                         _______ _______ _______ _____ _____    ______ ____
ROOT
ATOM      1  O   UNL     1     113.382 128.748 139.360  0.00  0.00    +0.000 OA
ATOM      2  O   UNL     1     112.719 128.408 136.563  0.00  0.00    +0.000 OA
ATOM      3  O   UNL     1     113.227 129.682 137.012  0.00  0.00    +0.000 OA
ATOM      4  C   UNL     1     112.589 127.015 138.238  0.00  0.00    +0.000 A 
ATOM      5  C   UNL     1     112.866 127.487 138.856  0.00  0.00    +0.000 A 
ATOM      6  C   UNL     1     113.095 128.266 138.709  0.00  0.00    +0.000 A 
ATOM      7  C   UNL     1     113.621 129.560 139.213  0.00  0.00    +0.000 C 
ATOM      8  C   UNL     1     113.045 128.573 137.944  0.00  0.00    +0.000 A 
ATOM      9  C   UNL     1     113.570 129.880 138.418  0.00  0.00    +0.000 C 
ATOM     10  C   UNL     1     112.540 127.322 137.474  0.00  0.00    +0.000 A 
ATOM     11  C   UNL     1     113.280 129.383 137.779  0.00  0.00    +0.000 C 
ATOM     12  C   UNL     1     112.768 128.101 137.328  0.00  0.00    +0.000 A 
ENDROOT
BRANCH   7  14
ATOM     13  O   UNL     1     114.728 131.439 141.690  0.00  0.00    +0.000 OA
ATOM     14  C   UNL     1     113.898 130.029 139.832  0.00  0.00    +0.000 A 
ATOM     15  C   UNL     1     114.704 130.192 139.898  0.00  0.00    +0.000 A 
ATOM     16  C   UNL     1     113.368 130.337 140.386  0.00  0.00    +0.000 A 
ATOM     17  C   UNL     1     114.981 130.662 140.517  0.00  0.00    +0.000 A 
ATOM     18  C   UNL     1     113.644 130.806 141.005  0.00  0.00    +0.000 A 
ATOM     19  C   UNL     1     114.451 130.969 141.071  0.00  0.00    +0.000 A 
ENDBRANCH   7  14
BRANCH   4  20
ATOM     20  O   UNL     1     112.361 126.236 138.385  0.00  0.00    +0.000 OA
BRANCH  20  29
ATOM     21  O   UNL     1     113.414 125.538 137.717  0.00  0.00    +0.000 OA
ATOM     22  O   UNL     1     111.756 124.002 136.708  0.00  0.00    +0.000 OA
ATOM     23  O   UNL     1     113.361 123.817 136.376  0.00  0.00    +0.000 OA
ATOM     24  O   UNL     1     111.256 125.211 137.713  0.00  0.00    +0.000 OA
ATOM     25  C   UNL     1     112.309 124.514 137.044  0.00  0.00    +0.000 C 
ATOM     26  C   UNL     1     113.111 124.422 136.879  0.00  0.00    +0.000 C 
ATOM     27  C   UNL     1     112.058 125.119 137.547  0.00  0.00    +0.000 C 
ATOM     28  C   UNL     1     113.664 124.934 137.215  0.00  0.00    +0.000 C 
ATOM     29  C   UNL     1     112.611 125.631 137.883  0.00  0.00    +0.000 C 
BRANCH  28  31
ATOM     30  O   UNL     1     115.025 124.919 137.651  0.00  0.00    +0.000 OA
ATOM     31  C   UNL     1     114.466 124.841 137.049  0.00  0.00    +0.000 C 
ENDBRANCH  28  31
ENDBRANCH  20  29
ENDBRANCH   4  20
BRANCH   5  32
ATOM     32  C   UNL     1     112.915 127.179 139.620  0.00  0.00    +0.000 C 
BRANCH  32  33
ATOM     33  C   UNL     1     112.241 127.142 140.094  0.00  0.00    +0.000 C 
ATOM     34  C   UNL     1     112.300 126.876 140.873  0.00  0.00    +0.000 C 
ATOM     35  C   UNL     1     113.031 126.647 141.177  0.00  0.00    +0.000 C 
BRANCH  34  37
ATOM     36  O   UNL     1     111.254 126.115 141.481  0.00  0.00    +0.000 OA
ATOM     37  C   UNL     1     111.626 126.839 141.347  0.00  0.00    +0.000 C 
ENDBRANCH  34  37
ENDBRANCH  32  33
ENDBRANCH   5  32
TORSDOF 7
ENDMDL
MODEL 6
REMARK VINA RESULT:      -8.9      7.042     10.962
REMARK  Name = 42607896
REMARK  7 active torsions:
REMARK  status: ('A' for Active; 'I' for Inactive)
REMARK    1  A    between atoms: O_2  and  C_16
REMARK    2  A    between atoms: O_2  and  C_18
REMARK    3  A    between atoms: C_15  and  C_17
REMARK    4  A    between atoms: C_19  and  C_25
REMARK    5  A    between atoms: C_21  and  C_28
REMARK    6  A    between atoms: C_25  and  C_29
REMARK    7  A    between atoms: C_32  and  C_36
REMARK                            x       y       z     vdW  Elec       q    Type
REMARK                         _______ _______ _______ _____ _____    ______ ____
ROOT
ATOM      1  O   UNL     1     103.352 130.398 142.145  0.00  0.00    +0.000 OA
ATOM      2  O   UNL     1     103.988 127.955 140.728  0.00  0.00    +0.000 OA
ATOM      3  O   UNL     1     102.976 128.832 140.190  0.00  0.00    +0.000 OA
ATOM      4  C   UNL     1     104.798 128.782 142.578  0.00  0.00    +0.000 A 
ATOM      5  C   UNL     1     104.361 129.480 142.641  0.00  0.00    +0.000 A 
ATOM      6  C   UNL     1     103.800 129.669 142.067  0.00  0.00    +0.000 A 
ATOM      7  C   UNL     1     102.766 130.600 141.550  0.00  0.00    +0.000 C 
ATOM      8  C   UNL     1     103.676 129.160 141.429  0.00  0.00    +0.000 A 
ATOM      9  C   UNL     1     102.636 130.071 140.885  0.00  0.00    +0.000 C 
ATOM     10  C   UNL     1     104.673 128.274 141.940  0.00  0.00    +0.000 A 
ATOM     11  C   UNL     1     103.094 129.346 140.825  0.00  0.00    +0.000 C 
ATOM     12  C   UNL     1     104.112 128.463 141.366  0.00  0.00    +0.000 A 
ENDROOT
BRANCH   7  14
ATOM     13  O   UNL     1     101.026 133.391 141.814  0.00  0.00    +0.000 OA
ATOM     14  C   UNL     1     102.331 131.298 141.616  0.00  0.00    +0.000 A 
ATOM     15  C   UNL     1     101.570 131.281 141.934  0.00  0.00    +0.000 A 
ATOM     16  C   UNL     1     102.657 132.012 141.364  0.00  0.00    +0.000 A 
ATOM     17  C   UNL     1     101.134 131.978 142.000  0.00  0.00    +0.000 A 
ATOM     18  C   UNL     1     102.222 132.710 141.430  0.00  0.00    +0.000 A 
ATOM     19  C   UNL     1     101.461 132.693 141.748  0.00  0.00    +0.000 A 
ENDBRANCH   7  14
BRANCH   4  20
ATOM     20  O   UNL     1     105.360 128.593 143.152  0.00  0.00    +0.000 OA
BRANCH  20  29
ATOM     21  O   UNL     1     106.578 128.723 142.416  0.00  0.00    +0.000 OA
ATOM     22  O   UNL     1     107.332 126.528 143.276  0.00  0.00    +0.000 OA
ATOM     23  O   UNL     1     108.298 127.390 142.254  0.00  0.00    +0.000 OA
ATOM     24  O   UNL     1     105.862 127.130 143.725  0.00  0.00    +0.000 OA
ATOM     25  C   UNL     1     107.080 127.260 142.990  0.00  0.00    +0.000 C 
ATOM     26  C   UNL     1     107.563 127.691 142.478  0.00  0.00    +0.000 C 
ATOM     27  C   UNL     1     106.345 127.561 143.214  0.00  0.00    +0.000 C 
ATOM     28  C   UNL     1     107.312 128.423 142.192  0.00  0.00    +0.000 C 
ATOM     29  C   UNL     1     106.094 128.293 142.928  0.00  0.00    +0.000 C 
BRANCH  28  31
ATOM     30  O   UNL     1     107.480 129.183 140.993  0.00  0.00    +0.000 OA
ATOM     31  C   UNL     1     107.795 128.853 141.681  0.00  0.00    +0.000 C 
ENDBRANCH  28  31
ENDBRANCH  20  29
ENDBRANCH   4  20
BRANCH   5  32
ATOM     32  C   UNL     1     104.487 129.987 143.279  0.00  0.00    +0.000 C 
BRANCH  32  33
ATOM     33  C   UNL     1     104.093 129.859 143.993  0.00  0.00    +0.000 C 
ATOM     34  C   UNL     1     104.198 130.383 144.622  0.00  0.00    +0.000 C 
ATOM     35  C   UNL     1     104.695 131.035 144.537  0.00  0.00    +0.000 C 
BRANCH  34  37
ATOM     36  O   UNL     1     103.885 130.793 145.954  0.00  0.00    +0.000 OA
ATOM     37  C   UNL     1     103.804 130.254 145.335  0.00  0.00    +0.000 C 
ENDBRANCH  34  37
ENDBRANCH  32  33
ENDBRANCH   5  32
TORSDOF 7
ENDMDL
MODEL 7
REMARK VINA RESULT:      -8.8      1.820      5.285
REMARK  Name = 42607896
REMARK  7 active torsions:
REMARK  status: ('A' for Active; 'I' for Inactive)
REMARK    1  A    between atoms: O_2  and  C_16
REMARK    2  A    between atoms: O_2  and  C_18
REMARK    3  A    between atoms: C_15  and  C_17
REMARK    4  A    between atoms: C_19  and  C_25
REMARK    5  A    between atoms: C_21  and  C_28
REMARK    6  A    between atoms: C_25  and  C_29
REMARK    7  A    between atoms: C_32  and  C_36
REMARK                            x       y       z     vdW  Elec       q    Type
REMARK                         _______ _______ _______ _____ _____    ______ ____
ROOT
ATOM      1  O   UNL     1     110.361 129.942 136.181  0.00  0.00    +0.000 OA
ATOM      2  O   UNL     1     108.428 127.799 135.952  0.00  0.00    +0.000 OA
ATOM      3  O   UNL     1     107.955 129.151 136.134  0.00  0.00    +0.000 OA
ATOM      4  C   UNL     1     110.610 127.763 135.899  0.00  0.00    +0.000 A 
ATOM      5  C   UNL     1     110.781 128.564 135.997  0.00  0.00    +0.000 A 
ATOM      6  C   UNL     1     110.169 129.111 136.080  0.00  0.00    +0.000 A 
ATOM      7  C   UNL     1     109.727 130.515 136.268  0.00  0.00    +0.000 C 
ATOM      8  C   UNL     1     109.384 128.855 136.065  0.00  0.00    +0.000 A 
ATOM      9  C   UNL     1     108.909 130.250 136.253  0.00  0.00    +0.000 C 
ATOM     10  C   UNL     1     109.825 127.509 135.884  0.00  0.00    +0.000 A 
ATOM     11  C   UNL     1     108.737 129.414 136.150  0.00  0.00    +0.000 C 
ATOM     12  C   UNL     1     109.212 128.055 135.967  0.00  0.00    +0.000 A 
ENDROOT
BRANCH   7  14
ATOM     13  O   UNL     1     110.425 133.717 136.659  0.00  0.00    +0.000 OA
ATOM     14  C   UNL     1     109.901 131.316 136.366  0.00  0.00    +0.000 A 
ATOM     15  C   UNL     1     110.230 131.583 137.074  0.00  0.00    +0.000 A 
ATOM     16  C   UNL     1     109.747 131.849 135.756  0.00  0.00    +0.000 A 
ATOM     17  C   UNL     1     110.404 132.383 137.172  0.00  0.00    +0.000 A 
ATOM     18  C   UNL     1     109.922 132.649 135.853  0.00  0.00    +0.000 A 
ATOM     19  C   UNL     1     110.250 132.916 136.561  0.00  0.00    +0.000 A 
ENDBRANCH   7  14
BRANCH   4  20
ATOM     20  O   UNL     1     111.222 127.217 135.816  0.00  0.00    +0.000 OA
BRANCH  20  29
ATOM     21  O   UNL     1     111.204 126.574 137.092  0.00  0.00    +0.000 OA
ATOM     22  O   UNL     1     111.269 124.364 135.979  0.00  0.00    +0.000 OA
ATOM     23  O   UNL     1     111.229 124.458 137.625  0.00  0.00    +0.000 OA
ATOM     24  O   UNL     1     111.265 125.743 135.074  0.00  0.00    +0.000 OA
ATOM     25  C   UNL     1     111.247 125.100 136.350  0.00  0.00    +0.000 C 
ATOM     26  C   UNL     1     111.228 125.148 137.173  0.00  0.00    +0.000 C 
ATOM     27  C   UNL     1     111.246 125.791 135.897  0.00  0.00    +0.000 C 
ATOM     28  C   UNL     1     111.206 125.884 137.544  0.00  0.00    +0.000 C 
ATOM     29  C   UNL     1     111.224 126.527 136.268  0.00  0.00    +0.000 C 
BRANCH  28  31
ATOM     30  O   UNL     1     111.708 126.432 138.765  0.00  0.00    +0.000 OA
ATOM     31  C   UNL     1     111.187 125.931 138.367  0.00  0.00    +0.000 C 
ENDBRANCH  28  31
ENDBRANCH  20  29
ENDBRANCH   4  20
BRANCH   5  32
ATOM     32  C   UNL     1     111.566 128.819 136.012  0.00  0.00    +0.000 C 
BRANCH  32  33
ATOM     33  C   UNL     1     111.958 128.991 135.307  0.00  0.00    +0.000 C 
ATOM     34  C   UNL     1     112.738 129.259 135.324  0.00  0.00    +0.000 C 
ATOM     35  C   UNL     1     113.127 129.353 136.045  0.00  0.00    +0.000 C 
BRANCH  34  37
ATOM     36  O   UNL     1     113.950 129.518 134.612  0.00  0.00    +0.000 OA
ATOM     37  C   UNL     1     113.130 129.432 134.619  0.00  0.00    +0.000 C 
ENDBRANCH  34  37
ENDBRANCH  32  33
ENDBRANCH   5  32
TORSDOF 7
ENDMDL
MODEL 8
REMARK VINA RESULT:      -8.7      1.858      5.440
REMARK  Name = 42607896
REMARK  7 active torsions:
REMARK  status: ('A' for Active; 'I' for Inactive)
REMARK    1  A    between atoms: O_2  and  C_16
REMARK    2  A    between atoms: O_2  and  C_18
REMARK    3  A    between atoms: C_15  and  C_17
REMARK    4  A    between atoms: C_19  and  C_25
REMARK    5  A    between atoms: C_21  and  C_28
REMARK    6  A    between atoms: C_25  and  C_29
REMARK    7  A    between atoms: C_32  and  C_36
REMARK                            x       y       z     vdW  Elec       q    Type
REMARK                         _______ _______ _______ _____ _____    ______ ____
ROOT
ATOM      1  O   UNL     1     111.720 129.499 137.115  0.00  0.00    +0.000 OA
ATOM      2  O   UNL     1     111.588 127.446 139.152  0.00  0.00    +0.000 OA
ATOM      3  O   UNL     1     110.896 128.693 139.370  0.00  0.00    +0.000 OA
ATOM      4  C   UNL     1     112.602 127.473 137.219  0.00  0.00    +0.000 A 
ATOM      5  C   UNL     1     112.398 128.225 136.947  0.00  0.00    +0.000 A 
ATOM      6  C   UNL     1     111.925 128.718 137.410  0.00  0.00    +0.000 A 
ATOM      7  C   UNL     1     111.228 130.015 137.593  0.00  0.00    +0.000 C 
ATOM      8  C   UNL     1     111.655 128.457 138.145  0.00  0.00    +0.000 A 
ATOM      9  C   UNL     1     110.946 129.745 138.358  0.00  0.00    +0.000 C 
ATOM     10  C   UNL     1     112.331 127.214 137.954  0.00  0.00    +0.000 A 
ATOM     11  C   UNL     1     111.162 128.960 138.636  0.00  0.00    +0.000 C 
ATOM     12  C   UNL     1     111.858 127.706 138.417  0.00  0.00    +0.000 A 
ENDROOT
BRANCH   7  14
ATOM     13  O   UNL     1     110.422 133.021 136.495  0.00  0.00    +0.000 OA
ATOM     14  C   UNL     1     111.026 130.767 137.318  0.00  0.00    +0.000 A 
ATOM     15  C   UNL     1     110.354 130.868 136.850  0.00  0.00    +0.000 A 
ATOM     16  C   UNL     1     111.496 131.417 137.512  0.00  0.00    +0.000 A 
ATOM     17  C   UNL     1     110.153 131.620 136.575  0.00  0.00    +0.000 A 
ATOM     18  C   UNL     1     111.295 132.168 137.238  0.00  0.00    +0.000 A 
ATOM     19  C   UNL     1     110.623 132.270 136.770  0.00  0.00    +0.000 A 
ENDBRANCH   7  14
BRANCH   4  20
ATOM     20  O   UNL     1     113.075 126.981 136.756  0.00  0.00    +0.000 OA
BRANCH  20  29
ATOM     21  O   UNL     1     112.142 125.947 136.434  0.00  0.00    +0.000 OA
ATOM     22  O   UNL     1     113.846 124.238 136.982  0.00  0.00    +0.000 OA
ATOM     23  O   UNL     1     112.345 123.775 136.478  0.00  0.00    +0.000 OA
ATOM     24  O   UNL     1     114.211 125.841 137.122  0.00  0.00    +0.000 OA
ATOM     25  C   UNL     1     113.278 124.808 136.800  0.00  0.00    +0.000 C 
ATOM     26  C   UNL     1     112.527 124.577 136.547  0.00  0.00    +0.000 C 
ATOM     27  C   UNL     1     113.460 125.610 136.869  0.00  0.00    +0.000 C 
ATOM     28  C   UNL     1     111.959 125.147 136.364  0.00  0.00    +0.000 C 
ATOM     29  C   UNL     1     112.892 126.180 136.686  0.00  0.00    +0.000 C 
BRANCH  28  31
ATOM     30  O   UNL     1     110.840 125.315 135.492  0.00  0.00    +0.000 OA
ATOM     31  C   UNL     1     111.209 124.915 136.112  0.00  0.00    +0.000 C 
ENDBRANCH  28  31
ENDBRANCH  20  29
ENDBRANCH   4  20
BRANCH   5  32
ATOM     32  C   UNL     1     112.669 128.484 136.212  0.00  0.00    +0.000 C 
BRANCH  32  33
ATOM     33  C   UNL     1     113.419 128.819 136.142  0.00  0.00    +0.000 C 
ATOM     34  C   UNL     1     113.669 129.124 135.417  0.00  0.00    +0.000 C 
ATOM     35  C   UNL     1     113.169 129.094 134.762  0.00  0.00    +0.000 C 
BRANCH  34  37
ATOM     36  O   UNL     1     114.687 129.726 134.615  0.00  0.00    +0.000 OA
ATOM     37  C   UNL     1     114.420 129.458 135.348  0.00  0.00    +0.000 C 
ENDBRANCH  34  37
ENDBRANCH  32  33
ENDBRANCH   5  32
TORSDOF 7
ENDMDL
MODEL 9
REMARK VINA RESULT:      -8.7      2.050      2.963
REMARK  Name = 42607896
REMARK  7 active torsions:
REMARK  status: ('A' for Active; 'I' for Inactive)
REMARK    1  A    between atoms: O_2  and  C_16
REMARK    2  A    between atoms: O_2  and  C_18
REMARK    3  A    between atoms: C_15  and  C_17
REMARK    4  A    between atoms: C_19  and  C_25
REMARK    5  A    between atoms: C_21  and  C_28
REMARK    6  A    between atoms: C_25  and  C_29
REMARK    7  A    between atoms: C_32  and  C_36
REMARK                            x       y       z     vdW  Elec       q    Type
REMARK                         _______ _______ _______ _____ _____    ______ ____
ROOT
ATOM      1  O   UNL     1     112.687 127.169 137.634  0.00  0.00    +0.000 OA
ATOM      2  O   UNL     1     113.172 129.822 136.583  0.00  0.00    +0.000 OA
ATOM      3  O   UNL     1     113.772 128.688 135.922  0.00  0.00    +0.000 OA
ATOM      4  C   UNL     1     111.995 129.161 138.298  0.00  0.00    +0.000 A 
ATOM      5  C   UNL     1     112.108 128.344 138.260  0.00  0.00    +0.000 A 
ATOM      6  C   UNL     1     112.577 128.021 137.663  0.00  0.00    +0.000 A 
ATOM      7  C   UNL     1     113.174 126.826 137.015  0.00  0.00    +0.000 C 
ATOM      8  C   UNL     1     112.931 128.514 137.104  0.00  0.00    +0.000 A 
ATOM      9  C   UNL     1     113.543 127.338 136.432  0.00  0.00    +0.000 C 
ATOM     10  C   UNL     1     112.349 129.653 137.739  0.00  0.00    +0.000 A 
ATOM     11  C   UNL     1     113.420 128.188 136.477  0.00  0.00    +0.000 C 
ATOM     12  C   UNL     1     112.817 129.329 137.142  0.00  0.00    +0.000 A 
ENDROOT
BRANCH   7  14
ATOM     13  O   UNL     1     113.622 123.560 136.872  0.00  0.00    +0.000 OA
ATOM     14  C   UNL     1     113.285 126.009 136.979  0.00  0.00    +0.000 A 
ATOM     15  C   UNL     1     112.726 125.532 136.605  0.00  0.00    +0.000 A 
ATOM     16  C   UNL     1     113.957 125.670 137.317  0.00  0.00    +0.000 A 
ATOM     17  C   UNL     1     112.838 124.715 136.569  0.00  0.00    +0.000 A 
ATOM     18  C   UNL     1     114.070 124.854 137.282  0.00  0.00    +0.000 A 
ATOM     19  C   UNL     1     113.510 124.376 136.908  0.00  0.00    +0.000 A 
ENDBRANCH   7  14
BRANCH   4  20
ATOM     20  O   UNL     1     111.527 129.485 138.895  0.00  0.00    +0.000 OA
BRANCH  20  29
ATOM     21  O   UNL     1     110.382 129.894 138.144  0.00  0.00    +0.000 OA
ATOM     22  O   UNL     1     110.409 132.086 139.293  0.00  0.00    +0.000 OA
ATOM     23  O   UNL     1     109.256 131.763 138.159  0.00  0.00    +0.000 OA
ATOM     24  O   UNL     1     111.545 130.947 139.661  0.00  0.00    +0.000 OA
ATOM     25  C   UNL     1     110.400 131.355 138.910  0.00  0.00    +0.000 C 
ATOM     26  C   UNL     1     109.824 131.193 138.342  0.00  0.00    +0.000 C 
ATOM     27  C   UNL     1     110.968 130.785 139.094  0.00  0.00    +0.000 C 
ATOM     28  C   UNL     1     109.814 130.463 137.959  0.00  0.00    +0.000 C 
ATOM     29  C   UNL     1     110.959 130.054 138.711  0.00  0.00    +0.000 C 
BRANCH  28  31
ATOM     30  O   UNL     1     108.879 129.559 137.367  0.00  0.00    +0.000 OA
ATOM     31  C   UNL     1     109.238 130.302 137.393  0.00  0.00    +0.000 C 
ENDBRANCH  28  31
ENDBRANCH  20  29
ENDBRANCH   4  20
BRANCH   5  32
ATOM     32  C   UNL     1     111.754 127.853 138.819  0.00  0.00    +0.000 C 
BRANCH  32  33
ATOM     33  C   UNL     1     112.144 127.682 139.526  0.00  0.00    +0.000 C 
ATOM     34  C   UNL     1     111.806 127.158 140.066  0.00  0.00    +0.000 C 
ATOM     35  C   UNL     1     111.080 126.805 139.901  0.00  0.00    +0.000 C 
BRANCH  34  37
ATOM     36  O   UNL     1     112.072 126.264 141.149  0.00  0.00    +0.000 OA
ATOM     37  C   UNL     1     112.197 126.987 140.773  0.00  0.00    +0.000 C 
ENDBRANCH  34  37
ENDBRANCH  32  33
ENDBRANCH   5  32
TORSDOF 7
ENDMDL
MODEL 10
REMARK VINA RESULT:      -8.7      2.035      3.039
REMARK  Name = 42607896
REMARK  7 active torsions:
REMARK  status: ('A' for Active; 'I' for Inactive)
REMARK    1  A    between atoms: O_2  and  C_16
REMARK    2  A    between atoms: O_2  and  C_18
REMARK    3  A    between atoms: C_15  and  C_17
REMARK    4  A    between atoms: C_19  and  C_25
REMARK    5  A    between atoms: C_21  and  C_28
REMARK    6  A    between atoms: C_25  and  C_29
REMARK    7  A    between atoms: C_32  and  C_36
REMARK                            x       y       z     vdW  Elec       q    Type
REMARK                         _______ _______ _______ _____ _____    ______ ____
ROOT
ATOM      1  O   UNL     1     112.951 127.309 137.861  0.00  0.00    +0.000 OA
ATOM      2  O   UNL     1     112.278 128.755 140.278  0.00  0.00    +0.000 OA
ATOM      3  O   UNL     1     112.748 127.394 140.384  0.00  0.00    +0.000 OA
ATOM      4  C   UNL     1     112.207 129.367 138.184  0.00  0.00    +0.000 A 
ATOM      5  C   UNL     1     112.474 128.680 137.812  0.00  0.00    +0.000 A 
ATOM      6  C   UNL     1     112.675 128.018 138.261  0.00  0.00    +0.000 A 
ATOM      7  C   UNL     1     113.161 126.617 138.324  0.00  0.00    +0.000 C 
ATOM      8  C   UNL     1     112.609 128.044 139.083  0.00  0.00    +0.000 A 
ATOM      9  C   UNL     1     113.093 126.642 139.181  0.00  0.00    +0.000 C 
ATOM     10  C   UNL     1     112.143 129.391 139.006  0.00  0.00    +0.000 A 
ATOM     11  C   UNL     1     112.816 127.361 139.563  0.00  0.00    +0.000 C 
ATOM     12  C   UNL     1     112.343 128.729 139.456  0.00  0.00    +0.000 A 
ENDROOT
BRANCH   7  14
ATOM     13  O   UNL     1     114.224 123.877 136.824  0.00  0.00    +0.000 OA
ATOM     14  C   UNL     1     113.427 125.932 137.949  0.00  0.00    +0.000 A 
ATOM     15  C   UNL     1     114.235 125.771 137.910  0.00  0.00    +0.000 A 
ATOM     16  C   UNL     1     112.885 125.409 137.614  0.00  0.00    +0.000 A 
ATOM     17  C   UNL     1     114.501 125.086 137.534  0.00  0.00    +0.000 A 
ATOM     18  C   UNL     1     113.150 124.724 137.239  0.00  0.00    +0.000 A 
ATOM     19  C   UNL     1     113.958 124.562 137.199  0.00  0.00    +0.000 A 
ENDBRANCH   7  14
BRANCH   4  20
ATOM     20  O   UNL     1     112.006 130.029 137.735  0.00  0.00    +0.000 OA
BRANCH  20  29
ATOM     21  O   UNL     1     110.590 130.033 137.922  0.00  0.00    +0.000 OA
ATOM     22  O   UNL     1     110.647 132.477 138.307  0.00  0.00    +0.000 OA
ATOM     23  O   UNL     1     109.212 131.666 138.366  0.00  0.00    +0.000 OA
ATOM     24  O   UNL     1     112.045 131.659 137.992  0.00  0.00    +0.000 OA
ATOM     25  C   UNL     1     110.628 131.662 138.179  0.00  0.00    +0.000 C 
ATOM     26  C   UNL     1     109.911 131.256 138.208  0.00  0.00    +0.000 C 
ATOM     27  C   UNL     1     111.327 131.253 138.021  0.00  0.00    +0.000 C 
ATOM     28  C   UNL     1     109.891 130.442 138.080  0.00  0.00    +0.000 C 
ATOM     29  C   UNL     1     111.308 130.438 137.892  0.00  0.00    +0.000 C 
BRANCH  28  31
ATOM     30  O   UNL     1     109.008 129.449 137.555  0.00  0.00    +0.000 OA
ATOM     31  C   UNL     1     109.174 130.037 138.109  0.00  0.00    +0.000 C 
ENDBRANCH  28  31
ENDBRANCH  20  29
ENDBRANCH   4  20
BRANCH   5  32
ATOM     32  C   UNL     1     112.539 128.656 136.990  0.00  0.00    +0.000 C 
BRANCH  32  33
ATOM     33  C   UNL     1     113.231 128.914 136.622  0.00  0.00    +0.000 C 
ATOM     34  C   UNL     1     113.300 128.877 135.801  0.00  0.00    +0.000 C 
ATOM     35  C   UNL     1     112.677 128.584 135.347  0.00  0.00    +0.000 C 
BRANCH  34  37
ATOM     36  O   UNL     1     113.983 129.345 134.636  0.00  0.00    +0.000 OA
ATOM     37  C   UNL     1     113.992 129.135 135.433  0.00  0.00    +0.000 C 
ENDBRANCH  34  37
ENDBRANCH  32  33
ENDBRANCH   5  32
TORSDOF 7
ENDMDL
