MODEL 1
REMARK VINA RESULT:      -9.5      0.000      0.000
REMARK  Name = 131831878
REMARK  11 active torsions:
REMARK  status: ('A' for Active; 'I' for Inactive)
REMARK    1  A    between atoms: S_1  and  O_10
REMARK    2  A    between atoms: O_2  and  C_20
REMARK    3  A    between atoms: O_2  and  C_23
REMARK    4  A    between atoms: O_8  and  C_26
REMARK    5  A    between atoms: O_8  and  C_31
REMARK    6  A    between atoms: O_10  and  C_29
REMARK    7  A    between atoms: O_11  and  C_30
REMARK    8  A    between atoms: O_11  and  C_34
REMARK    9  A    between atoms: C_21  and  C_29
REMARK   10  A    between atoms: C_27  and  C_30
REMARK   11  A    between atoms: C_40  and  C_42
REMARK                            x       y       z     vdW  Elec       q    Type
REMARK                         _______ _______ _______ _____ _____    ______ ____
ROOT
ATOM      1  O   UNL     1     109.946 126.706 140.676  0.00  0.00    +0.000 OA
ATOM      2  O   UNL     1     107.777 127.015 141.826  0.00  0.00    +0.000 OA
ATOM      3  O   UNL     1     109.145 127.696 142.448  0.00  0.00    +0.000 OA
ATOM      4  C   UNL     1     108.539 126.468 140.748  0.00  0.00    +0.000 C 
ATOM      5  C   UNL     1     108.500 126.912 141.443  0.00  0.00    +0.000 C 
ATOM      6  C   UNL     1     109.184 127.252 141.753  0.00  0.00    +0.000 C 
ATOM      7  C   UNL     1     109.263 126.365 140.364  0.00  0.00    +0.000 C 
ATOM      8  C   UNL     1     109.907 127.149 141.370  0.00  0.00    +0.000 C 
ENDROOT
BRANCH   4   9
ATOM      9  O   UNL     1     107.855 126.128 140.437  0.00  0.00    +0.000 OA
BRANCH   9  15
ATOM     10  O   UNL     1     107.989 124.918 141.263  0.00  0.00    +0.000 OA
ATOM     11  O   UNL     1     106.620 123.550 141.163  0.00  0.00    +0.000 OA
ATOM     12  O   UNL     1     106.356 125.277 139.935  0.00  0.00    +0.000 OA
ATOM     13  C   UNL     1     106.875 124.286 140.889  0.00  0.00    +0.000 C 
ATOM     14  C   UNL     1     106.911 125.001 140.480  0.00  0.00    +0.000 C 
ATOM     15  C   UNL     1     107.600 125.392 140.711  0.00  0.00    +0.000 C 
ATOM     16  C   UNL     1     107.541 124.235 141.374  0.00  0.00    +0.000 C 
BRANCH  13  17
ATOM     17  C   UNL     1     106.163 124.107 140.514  0.00  0.00    +0.000 C 
BRANCH  17  18
ATOM     18  O   UNL     1     105.794 123.382 140.651  0.00  0.00    +0.000 OA
BRANCH  18  19
ATOM     19  S   UNL     1     105.072 123.211 140.291  0.00  0.00    +0.000 S 
ATOM     20  O   UNL     1     104.350 123.040 139.931  0.00  0.00    +0.000 OA
ATOM     21  O   UNL     1     104.674 123.520 140.944  0.00  0.00    +0.000 OA
ATOM     22  O   UNL     1     105.471 122.902 139.638  0.00  0.00    +0.000 OA
ENDBRANCH  18  19
ENDBRANCH  17  18
ENDBRANCH  13  17
ENDBRANCH   9  15
ENDBRANCH   4   9
BRANCH   7  23
ATOM     23  O   UNL     1     109.302 125.922 139.670  0.00  0.00    +0.000 OA
BRANCH  23  27
ATOM     24  O   UNL     1     111.798 125.646 138.194  0.00  0.00    +0.000 OA
ATOM     25  O   UNL     1     109.876 127.645 137.383  0.00  0.00    +0.000 OA
ATOM     26  O   UNL     1     111.122 127.481 136.676  0.00  0.00    +0.000 OA
ATOM     27  C   UNL     1     109.801 126.159 139.057  0.00  0.00    +0.000 A 
ATOM     28  C   UNL     1     110.559 125.770 138.941  0.00  0.00    +0.000 A 
ATOM     29  C   UNL     1     109.567 126.795 138.530  0.00  0.00    +0.000 A 
ATOM     30  C   UNL     1     111.072 126.023 138.300  0.00  0.00    +0.000 A 
ATOM     31  C   UNL     1     110.093 127.035 137.894  0.00  0.00    +0.000 A 
ATOM     32  C   UNL     1     110.846 126.635 137.795  0.00  0.00    +0.000 A 
ATOM     33  C   UNL     1     111.347 126.869 137.182  0.00  0.00    +0.000 A 
ATOM     34  C   UNL     1     112.299 125.881 137.582  0.00  0.00    +0.000 A 
ATOM     35  C   UNL     1     112.073 126.492 137.076  0.00  0.00    +0.000 A 
BRANCH  34  37
ATOM     36  O   UNL     1     115.204 124.374 137.158  0.00  0.00    +0.000 OA
ATOM     37  C   UNL     1     113.025 125.504 137.476  0.00  0.00    +0.000 A 
ATOM     38  C   UNL     1     113.087 124.867 136.955  0.00  0.00    +0.000 A 
ATOM     39  C   UNL     1     113.689 125.765 137.891  0.00  0.00    +0.000 A 
ATOM     40  C   UNL     1     113.813 124.491 136.850  0.00  0.00    +0.000 A 
ATOM     41  C   UNL     1     114.415 125.388 137.785  0.00  0.00    +0.000 A 
ATOM     42  C   UNL     1     114.478 124.751 137.264  0.00  0.00    +0.000 A 
ENDBRANCH  34  37
ENDBRANCH  23  27
ENDBRANCH   7  23
BRANCH   8  43
ATOM     43  C   UNL     1     110.591 127.491 141.681  0.00  0.00    +0.000 C 
BRANCH  43  44
ATOM     44  O   UNL     1     111.322 127.125 141.572  0.00  0.00    +0.000 OA
BRANCH  44  46
ATOM     45  O   UNL     1     112.019 128.089 142.363  0.00  0.00    +0.000 OA
ATOM     46  C   UNL     1     112.017 127.527 141.759  0.00  0.00    +0.000 C 
ATOM     47  C   UNL     1     112.711 127.367 141.343  0.00  0.00    +0.000 C 
ENDBRANCH  44  46
ENDBRANCH  43  44
ENDBRANCH   8  43
TORSDOF 11
ENDMDL
MODEL 2
REMARK VINA RESULT:      -9.5      5.251      8.144
REMARK  Name = 131831878
REMARK  11 active torsions:
REMARK  status: ('A' for Active; 'I' for Inactive)
REMARK    1  A    between atoms: S_1  and  O_10
REMARK    2  A    between atoms: O_2  and  C_20
REMARK    3  A    between atoms: O_2  and  C_23
REMARK    4  A    between atoms: O_8  and  C_26
REMARK    5  A    between atoms: O_8  and  C_31
REMARK    6  A    between atoms: O_10  and  C_29
REMARK    7  A    between atoms: O_11  and  C_30
REMARK    8  A    between atoms: O_11  and  C_34
REMARK    9  A    between atoms: C_21  and  C_29
REMARK   10  A    between atoms: C_27  and  C_30
REMARK   11  A    between atoms: C_40  and  C_42
REMARK                            x       y       z     vdW  Elec       q    Type
REMARK                         _______ _______ _______ _____ _____    ______ ____
ROOT
ATOM      1  O   UNL     1     106.212 128.645 142.327  0.00  0.00    +0.000 OA
ATOM      2  O   UNL     1     107.466 126.620 143.000  0.00  0.00    +0.000 OA
ATOM      3  O   UNL     1     108.249 127.865 142.252  0.00  0.00    +0.000 OA
ATOM      4  C   UNL     1     106.238 127.348 142.926  0.00  0.00    +0.000 C 
ATOM      5  C   UNL     1     107.048 127.295 142.776  0.00  0.00    +0.000 C 
ATOM      6  C   UNL     1     107.439 127.918 142.402  0.00  0.00    +0.000 C 
ATOM      7  C   UNL     1     105.819 128.023 142.701  0.00  0.00    +0.000 C 
ATOM      8  C   UNL     1     107.020 128.593 142.177  0.00  0.00    +0.000 C 
ENDROOT
BRANCH   4   9
ATOM      9  O   UNL     1     105.847 126.725 143.300  0.00  0.00    +0.000 OA
BRANCH   9  15
ATOM     10  O   UNL     1     106.174 127.222 144.645  0.00  0.00    +0.000 OA
ATOM     11  O   UNL     1     105.717 126.142 146.188  0.00  0.00    +0.000 OA
ATOM     12  O   UNL     1     105.210 125.355 144.269  0.00  0.00    +0.000 OA
ATOM     13  C   UNL     1     105.701 126.203 145.365  0.00  0.00    +0.000 C 
ATOM     14  C   UNL     1     105.570 126.034 144.569  0.00  0.00    +0.000 C 
ATOM     15  C   UNL     1     105.863 126.664 144.124  0.00  0.00    +0.000 C 
ATOM     16  C   UNL     1     106.074 126.937 145.413  0.00  0.00    +0.000 C 
BRANCH  13  17
ATOM     17  C   UNL     1     105.351 125.486 145.574  0.00  0.00    +0.000 C 
BRANCH  17  18
ATOM     18  O   UNL     1     105.226 125.304 146.369  0.00  0.00    +0.000 OA
BRANCH  18  19
ATOM     19  S   UNL     1     104.885 124.583 146.579  0.00  0.00    +0.000 S 
ATOM     20  O   UNL     1     104.543 123.862 146.788  0.00  0.00    +0.000 OA
ATOM     21  O   UNL     1     104.136 124.927 146.540  0.00  0.00    +0.000 OA
ATOM     22  O   UNL     1     105.634 124.239 146.617  0.00  0.00    +0.000 OA
ENDBRANCH  18  19
ENDBRANCH  17  18
ENDBRANCH  13  17
ENDBRANCH   9  15
ENDBRANCH   4   9
BRANCH   7  23
ATOM     23  O   UNL     1     105.011 128.075 142.851  0.00  0.00    +0.000 OA
BRANCH  23  27
ATOM     24  O   UNL     1     103.220 130.214 142.013  0.00  0.00    +0.000 OA
ATOM     25  O   UNL     1     103.710 127.989 140.237  0.00  0.00    +0.000 OA
ATOM     26  O   UNL     1     102.830 129.065 139.856  0.00  0.00    +0.000 OA
ATOM     27  C   UNL     1     104.508 128.408 142.289  0.00  0.00    +0.000 A 
ATOM     28  C   UNL     1     104.115 129.157 142.447  0.00  0.00    +0.000 A 
ATOM     29  C   UNL     1     104.372 128.010 141.539  0.00  0.00    +0.000 A 
ATOM     30  C   UNL     1     103.593 129.496 141.855  0.00  0.00    +0.000 A 
ATOM     31  C   UNL     1     103.846 128.364 140.960  0.00  0.00    +0.000 A 
ATOM     32  C   UNL     1     103.464 129.113 141.136  0.00  0.00    +0.000 A 
ATOM     33  C   UNL     1     102.960 129.448 140.575  0.00  0.00    +0.000 A 
ATOM     34  C   UNL     1     102.716 130.550 141.452  0.00  0.00    +0.000 A 
ATOM     35  C   UNL     1     102.586 130.167 140.733  0.00  0.00    +0.000 A 
BRANCH  34  37
ATOM     36  O   UNL     1     101.221 133.422 142.085  0.00  0.00    +0.000 OA
ATOM     37  C   UNL     1     102.343 131.268 141.611  0.00  0.00    +0.000 A 
ATOM     38  C   UNL     1     102.719 131.978 141.426  0.00  0.00    +0.000 A 
ATOM     39  C   UNL     1     101.592 131.275 141.953  0.00  0.00    +0.000 A 
ATOM     40  C   UNL     1     102.345 132.696 141.585  0.00  0.00    +0.000 A 
ATOM     41  C   UNL     1     101.218 131.994 142.111  0.00  0.00    +0.000 A 
ATOM     42  C   UNL     1     101.595 132.704 141.927  0.00  0.00    +0.000 A 
ENDBRANCH  34  37
ENDBRANCH  23  27
ENDBRANCH   7  23
BRANCH   8  43
ATOM     43  C   UNL     1     107.413 129.215 141.803  0.00  0.00    +0.000 C 
BRANCH  43  44
ATOM     44  O   UNL     1     107.236 129.994 142.004  0.00  0.00    +0.000 OA
BRANCH  44  46
ATOM     45  O   UNL     1     107.063 130.918 140.927  0.00  0.00    +0.000 OA
ATOM     46  C   UNL     1     107.523 130.615 141.542  0.00  0.00    +0.000 C 
ATOM     47  C   UNL     1     108.268 130.934 141.694  0.00  0.00    +0.000 C 
ENDBRANCH  44  46
ENDBRANCH  43  44
ENDBRANCH   8  43
TORSDOF 11
ENDMDL
MODEL 3
REMARK VINA RESULT:      -9.5      2.319      6.668
REMARK  Name = 131831878
REMARK  11 active torsions:
REMARK  status: ('A' for Active; 'I' for Inactive)
REMARK    1  A    between atoms: S_1  and  O_10
REMARK    2  A    between atoms: O_2  and  C_20
REMARK    3  A    between atoms: O_2  and  C_23
REMARK    4  A    between atoms: O_8  and  C_26
REMARK    5  A    between atoms: O_8  and  C_31
REMARK    6  A    between atoms: O_10  and  C_29
REMARK    7  A    between atoms: O_11  and  C_30
REMARK    8  A    between atoms: O_11  and  C_34
REMARK    9  A    between atoms: C_21  and  C_29
REMARK   10  A    between atoms: C_27  and  C_30
REMARK   11  A    between atoms: C_40  and  C_42
REMARK                            x       y       z     vdW  Elec       q    Type
REMARK                         _______ _______ _______ _____ _____    ______ ____
ROOT
ATOM      1  O   UNL     1     106.857 126.488 141.196  0.00  0.00    +0.000 OA
ATOM      2  O   UNL     1     109.137 127.099 141.939  0.00  0.00    +0.000 OA
ATOM      3  O   UNL     1     107.827 127.869 142.580  0.00  0.00    +0.000 OA
ATOM      4  C   UNL     1     108.272 126.306 141.122  0.00  0.00    +0.000 C 
ATOM      5  C   UNL     1     108.377 126.895 141.691  0.00  0.00    +0.000 C 
ATOM      6  C   UNL     1     107.722 127.280 142.012  0.00  0.00    +0.000 C 
ATOM      7  C   UNL     1     107.512 126.102 140.875  0.00  0.00    +0.000 C 
ATOM      8  C   UNL     1     106.961 127.076 141.764  0.00  0.00    +0.000 C 
ENDROOT
BRANCH   4   9
ATOM      9  O   UNL     1     108.928 125.922 140.802  0.00  0.00    +0.000 OA
BRANCH   9  15
ATOM     10  O   UNL     1     109.150 126.970 139.795  0.00  0.00    +0.000 OA
ATOM     11  O   UNL     1     110.528 126.716 138.455  0.00  0.00    +0.000 OA
ATOM     12  O   UNL     1     110.264 125.151 139.884  0.00  0.00    +0.000 OA
ATOM     13  C   UNL     1     110.143 126.396 139.113  0.00  0.00    +0.000 C 
ATOM     14  C   UNL     1     109.927 125.886 139.723  0.00  0.00    +0.000 C 
ATOM     15  C   UNL     1     109.312 126.241 140.145  0.00  0.00    +0.000 C 
ATOM     16  C   UNL     1     109.664 127.067 139.156  0.00  0.00    +0.000 C 
BRANCH  13  17
ATOM     17  C   UNL     1     110.718 125.858 138.867  0.00  0.00    +0.000 C 
BRANCH  17  18
ATOM     18  O   UNL     1     111.164 126.010 138.189  0.00  0.00    +0.000 OA
BRANCH  18  19
ATOM     19  S   UNL     1     111.728 125.465 137.936  0.00  0.00    +0.000 S 
ATOM     20  O   UNL     1     112.293 124.919 137.682  0.00  0.00    +0.000 OA
ATOM     21  O   UNL     1     111.164 125.105 137.453  0.00  0.00    +0.000 OA
ATOM     22  O   UNL     1     112.292 125.824 138.419  0.00  0.00    +0.000 OA
ENDBRANCH  18  19
ENDBRANCH  17  18
ENDBRANCH  13  17
ENDBRANCH   9  15
ENDBRANCH   4   9
BRANCH   7  23
ATOM     23  O   UNL     1     107.407 125.514 140.307  0.00  0.00    +0.000 OA
BRANCH  23  27
ATOM     24  O   UNL     1     105.010 124.288 139.195  0.00  0.00    +0.000 OA
ATOM     25  O   UNL     1     105.935 123.492 141.814  0.00  0.00    +0.000 OA
ATOM     26  O   UNL     1     104.752 122.906 141.233  0.00  0.00    +0.000 OA
ATOM     27  C   UNL     1     106.778 124.985 140.373  0.00  0.00    +0.000 A 
ATOM     28  C   UNL     1     106.207 124.910 139.734  0.00  0.00    +0.000 A 
ATOM     29  C   UNL     1     106.688 124.505 141.080  0.00  0.00    +0.000 A 
ATOM     30  C   UNL     1     105.555 124.356 139.811  0.00  0.00    +0.000 A 
ATOM     31  C   UNL     1     106.029 123.957 141.139  0.00  0.00    +0.000 A 
ATOM     32  C   UNL     1     105.469 123.895 140.490  0.00  0.00    +0.000 A 
ATOM     33  C   UNL     1     104.839 123.367 140.553  0.00  0.00    +0.000 A 
ATOM     34  C   UNL     1     104.380 123.759 139.258  0.00  0.00    +0.000 A 
ATOM     35  C   UNL     1     104.294 123.299 139.937  0.00  0.00    +0.000 A 
BRANCH  34  37
ATOM     36  O   UNL     1     102.202 123.488 136.794  0.00  0.00    +0.000 OA
ATOM     37  C   UNL     1     103.835 123.691 138.642  0.00  0.00    +0.000 A 
ATOM     38  C   UNL     1     104.078 123.408 137.906  0.00  0.00    +0.000 A 
ATOM     39  C   UNL     1     103.048 123.907 138.763  0.00  0.00    +0.000 A 
ATOM     40  C   UNL     1     103.533 123.341 137.291  0.00  0.00    +0.000 A 
ATOM     41  C   UNL     1     102.503 123.839 138.146  0.00  0.00    +0.000 A 
ATOM     42  C   UNL     1     102.746 123.556 137.411  0.00  0.00    +0.000 A 
ENDBRANCH  34  37
ENDBRANCH  23  27
ENDBRANCH   7  23
BRANCH   8  43
ATOM     43  C   UNL     1     106.306 127.462 142.086  0.00  0.00    +0.000 C 
BRANCH  43  44
ATOM     44  O   UNL     1     105.643 127.609 141.618  0.00  0.00    +0.000 OA
BRANCH  44  46
ATOM     45  O   UNL     1     104.709 127.618 142.699  0.00  0.00    +0.000 OA
ATOM     46  C   UNL     1     104.951 127.898 141.962  0.00  0.00    +0.000 C 
ATOM     47  C   UNL     1     104.502 128.467 141.570  0.00  0.00    +0.000 C 
ENDBRANCH  44  46
ENDBRANCH  43  44
ENDBRANCH   8  43
TORSDOF 11
ENDMDL
MODEL 4
REMARK VINA RESULT:      -9.4      4.622      5.645
REMARK  Name = 131831878
REMARK  11 active torsions:
REMARK  status: ('A' for Active; 'I' for Inactive)
REMARK    1  A    between atoms: S_1  and  O_10
REMARK    2  A    between atoms: O_2  and  C_20
REMARK    3  A    between atoms: O_2  and  C_23
REMARK    4  A    between atoms: O_8  and  C_26
REMARK    5  A    between atoms: O_8  and  C_31
REMARK    6  A    between atoms: O_10  and  C_29
REMARK    7  A    between atoms: O_11  and  C_30
REMARK    8  A    between atoms: O_11  and  C_34
REMARK    9  A    between atoms: C_21  and  C_29
REMARK   10  A    between atoms: C_27  and  C_30
REMARK   11  A    between atoms: C_40  and  C_42
REMARK                            x       y       z     vdW  Elec       q    Type
REMARK                         _______ _______ _______ _____ _____    ______ ____
ROOT
ATOM      1  O   UNL     1     112.234 129.983 138.547  0.00  0.00    +0.000 OA
ATOM      2  O   UNL     1     109.988 130.343 139.521  0.00  0.00    +0.000 OA
ATOM      3  O   UNL     1     111.326 130.405 140.486  0.00  0.00    +0.000 OA
ATOM      4  C   UNL     1     110.817 130.072 138.389  0.00  0.00    +0.000 C 
ATOM      5  C   UNL     1     110.737 130.223 139.196  0.00  0.00    +0.000 C 
ATOM      6  C   UNL     1     111.406 130.254 139.678  0.00  0.00    +0.000 C 
ATOM      7  C   UNL     1     111.566 129.952 138.064  0.00  0.00    +0.000 C 
ATOM      8  C   UNL     1     112.155 130.134 139.353  0.00  0.00    +0.000 C 
ENDROOT
BRANCH   4   9
ATOM      9  O   UNL     1     110.148 130.041 137.907  0.00  0.00    +0.000 OA
BRANCH   9  15
ATOM     10  O   UNL     1     110.117 131.501 137.728  0.00  0.00    +0.000 OA
ATOM     11  O   UNL     1     108.716 132.289 136.645  0.00  0.00    +0.000 OA
ATOM     12  O   UNL     1     108.696 130.165 136.859  0.00  0.00    +0.000 OA
ATOM     13  C   UNL     1     109.037 131.592 136.949  0.00  0.00    +0.000 C 
ATOM     14  C   UNL     1     109.159 130.795 137.121  0.00  0.00    +0.000 C 
ATOM     15  C   UNL     1     109.827 130.739 137.603  0.00  0.00    +0.000 C 
ATOM     16  C   UNL     1     109.628 132.029 137.323  0.00  0.00    +0.000 C 
BRANCH  13  17
ATOM     17  C   UNL     1     108.375 131.392 136.499  0.00  0.00    +0.000 C 
BRANCH  17  18
ATOM     18  O   UNL     1     107.958 131.979 136.095  0.00  0.00    +0.000 OA
BRANCH  18  19
ATOM     19  S   UNL     1     107.303 131.778 135.636  0.00  0.00    +0.000 S 
ATOM     20  O   UNL     1     106.648 131.577 135.177  0.00  0.00    +0.000 OA
ATOM     21  O   UNL     1     107.773 131.795 134.958  0.00  0.00    +0.000 OA
ATOM     22  O   UNL     1     106.833 131.762 136.314  0.00  0.00    +0.000 OA
ENDBRANCH  18  19
ENDBRANCH  17  18
ENDBRANCH  13  17
ENDBRANCH   9  15
ENDBRANCH   4   9
BRANCH   7  23
ATOM     23  O   UNL     1     111.646 129.801 137.257  0.00  0.00    +0.000 OA
BRANCH  23  27
ATOM     24  O   UNL     1     112.317 126.992 136.879  0.00  0.00    +0.000 OA
ATOM     25  O   UNL     1     114.183 129.029 136.035  0.00  0.00    +0.000 OA
ATOM     26  O   UNL     1     114.483 127.629 135.863  0.00  0.00    +0.000 OA
ATOM     27  C   UNL     1     112.169 129.219 136.996  0.00  0.00    +0.000 A 
ATOM     28  C   UNL     1     111.966 128.387 137.075  0.00  0.00    +0.000 A 
ATOM     29  C   UNL     1     112.921 129.440 136.644  0.00  0.00    +0.000 A 
ATOM     30  C   UNL     1     112.517 127.789 136.801  0.00  0.00    +0.000 A 
ATOM     31  C   UNL     1     113.459 128.827 136.375  0.00  0.00    +0.000 A 
ATOM     32  C   UNL     1     113.239 128.001 136.462  0.00  0.00    +0.000 A 
ATOM     33  C   UNL     1     113.760 127.417 136.202  0.00  0.00    +0.000 A 
ATOM     34  C   UNL     1     112.838 126.408 136.619  0.00  0.00    +0.000 A 
ATOM     35  C   UNL     1     113.560 126.620 136.280  0.00  0.00    +0.000 A 
BRANCH  34  37
ATOM     36  O   UNL     1     112.037 123.222 136.932  0.00  0.00    +0.000 OA
ATOM     37  C   UNL     1     112.638 125.611 136.697  0.00  0.00    +0.000 A 
ATOM     38  C   UNL     1     113.049 125.133 137.229  0.00  0.00    +0.000 A 
ATOM     39  C   UNL     1     112.026 125.294 136.243  0.00  0.00    +0.000 A 
ATOM     40  C   UNL     1     112.848 124.337 137.307  0.00  0.00    +0.000 A 
ATOM     41  C   UNL     1     111.826 124.497 136.321  0.00  0.00    +0.000 A 
ATOM     42  C   UNL     1     112.237 124.019 136.853  0.00  0.00    +0.000 A 
ENDBRANCH  34  37
ENDBRANCH  23  27
ENDBRANCH   7  23
BRANCH   8  43
ATOM     43  C   UNL     1     112.823 130.164 139.836  0.00  0.00    +0.000 C 
BRANCH  43  44
ATOM     44  O   UNL     1     113.521 130.500 139.554  0.00  0.00    +0.000 OA
BRANCH  44  46
ATOM     45  O   UNL     1     114.524 131.198 140.295  0.00  0.00    +0.000 OA
ATOM     46  C   UNL     1     114.202 130.490 140.019  0.00  0.00    +0.000 C 
ATOM     47  C   UNL     1     114.562 129.773 140.209  0.00  0.00    +0.000 C 
ENDBRANCH  44  46
ENDBRANCH  43  44
ENDBRANCH   8  43
TORSDOF 11
ENDMDL
MODEL 5
REMARK VINA RESULT:      -9.3      3.834      6.239
REMARK  Name = 131831878
REMARK  11 active torsions:
REMARK  status: ('A' for Active; 'I' for Inactive)
REMARK    1  A    between atoms: S_1  and  O_10
REMARK    2  A    between atoms: O_2  and  C_20
REMARK    3  A    between atoms: O_2  and  C_23
REMARK    4  A    between atoms: O_8  and  C_26
REMARK    5  A    between atoms: O_8  and  C_31
REMARK    6  A    between atoms: O_10  and  C_29
REMARK    7  A    between atoms: O_11  and  C_30
REMARK    8  A    between atoms: O_11  and  C_34
REMARK    9  A    between atoms: C_21  and  C_29
REMARK   10  A    between atoms: C_27  and  C_30
REMARK   11  A    between atoms: C_40  and  C_42
REMARK                            x       y       z     vdW  Elec       q    Type
REMARK                         _______ _______ _______ _____ _____    ______ ____
ROOT
ATOM      1  O   UNL     1     112.753 130.127 138.597  0.00  0.00    +0.000 OA
ATOM      2  O   UNL     1     112.884 131.313 136.429  0.00  0.00    +0.000 OA
ATOM      3  O   UNL     1     114.160 131.361 137.474  0.00  0.00    +0.000 OA
ATOM      4  C   UNL     1     112.158 130.498 137.352  0.00  0.00    +0.000 C 
ATOM      5  C   UNL     1     112.840 130.918 137.151  0.00  0.00    +0.000 C 
ATOM      6  C   UNL     1     113.478 130.941 137.674  0.00  0.00    +0.000 C 
ATOM      7  C   UNL     1     112.114 130.102 138.075  0.00  0.00    +0.000 C 
ATOM      8  C   UNL     1     113.434 130.545 138.397  0.00  0.00    +0.000 C 
ENDROOT
BRANCH   4   9
ATOM      9  O   UNL     1     111.521 130.474 136.829  0.00  0.00    +0.000 OA
BRANCH   9  15
ATOM     10  O   UNL     1     110.984 131.757 137.306  0.00  0.00    +0.000 OA
ATOM     11  O   UNL     1     109.378 132.472 136.488  0.00  0.00    +0.000 OA
ATOM     12  O   UNL     1     110.098 130.605 135.743  0.00  0.00    +0.000 OA
ATOM     13  C   UNL     1     109.926 131.854 136.498  0.00  0.00    +0.000 C 
ATOM     14  C   UNL     1     110.319 131.152 136.319  0.00  0.00    +0.000 C 
ATOM     15  C   UNL     1     110.973 131.092 136.819  0.00  0.00    +0.000 C 
ATOM     16  C   UNL     1     110.336 132.229 137.108  0.00  0.00    +0.000 C 
BRANCH  13  17
ATOM     17  C   UNL     1     109.366 131.689 135.915  0.00  0.00    +0.000 C 
BRANCH  17  18
ATOM     18  O   UNL     1     108.726 132.197 135.802  0.00  0.00    +0.000 OA
BRANCH  18  19
ATOM     19  S   UNL     1     108.156 132.022 135.232  0.00  0.00    +0.000 S 
ATOM     20  O   UNL     1     107.586 131.847 134.661  0.00  0.00    +0.000 OA
ATOM     21  O   UNL     1     108.623 132.382 134.655  0.00  0.00    +0.000 OA
ATOM     22  O   UNL     1     107.689 131.662 135.808  0.00  0.00    +0.000 OA
ENDBRANCH  18  19
ENDBRANCH  17  18
ENDBRANCH  13  17
ENDBRANCH   9  15
ENDBRANCH   4   9
BRANCH   7  23
ATOM     23  O   UNL     1     111.433 129.684 138.274  0.00  0.00    +0.000 OA
BRANCH  23  27
ATOM     24  O   UNL     1     112.033 126.848 137.978  0.00  0.00    +0.000 OA
ATOM     25  O   UNL     1     111.211 127.870 140.553  0.00  0.00    +0.000 OA
ATOM     26  O   UNL     1     111.516 126.472 140.369  0.00  0.00    +0.000 OA
ATOM     27  C   UNL     1     111.494 128.927 138.598  0.00  0.00    +0.000 A 
ATOM     28  C   UNL     1     111.738 128.264 138.108  0.00  0.00    +0.000 A 
ATOM     29  C   UNL     1     111.315 128.796 139.428  0.00  0.00    +0.000 A 
ATOM     30  C   UNL     1     111.799 127.481 138.454  0.00  0.00    +0.000 A 
ATOM     31  C   UNL     1     111.381 128.005 139.757  0.00  0.00    +0.000 A 
ATOM     32  C   UNL     1     111.626 127.355 139.251  0.00  0.00    +0.000 A 
ATOM     33  C   UNL     1     111.688 126.598 139.572  0.00  0.00    +0.000 A 
ATOM     34  C   UNL     1     112.095 126.091 138.299  0.00  0.00    +0.000 A 
ATOM     35  C   UNL     1     111.922 125.966 139.096  0.00  0.00    +0.000 A 
BRANCH  34  37
ATOM     36  O   UNL     1     113.033 123.563 136.397  0.00  0.00    +0.000 OA
ATOM     37  C   UNL     1     112.329 125.459 137.824  0.00  0.00    +0.000 A 
ATOM     38  C   UNL     1     111.764 124.946 137.512  0.00  0.00    +0.000 A 
ATOM     39  C   UNL     1     113.130 125.341 137.660  0.00  0.00    +0.000 A 
ATOM     40  C   UNL     1     111.999 124.314 137.036  0.00  0.00    +0.000 A 
ATOM     41  C   UNL     1     113.364 124.709 137.185  0.00  0.00    +0.000 A 
ATOM     42  C   UNL     1     112.798 124.195 136.873  0.00  0.00    +0.000 A 
ENDBRANCH  34  37
ENDBRANCH  23  27
ENDBRANCH   7  23
BRANCH   8  43
ATOM     43  C   UNL     1     114.073 130.570 138.919  0.00  0.00    +0.000 C 
BRANCH  43  44
ATOM     44  O   UNL     1     113.940 130.632 139.730  0.00  0.00    +0.000 OA
BRANCH  44  46
ATOM     45  O   UNL     1     114.944 131.339 140.462  0.00  0.00    +0.000 OA
ATOM     46  C   UNL     1     114.578 130.629 140.255  0.00  0.00    +0.000 C 
ATOM     47  C   UNL     1     114.849 129.918 140.571  0.00  0.00    +0.000 C 
ENDBRANCH  44  46
ENDBRANCH  43  44
ENDBRANCH   8  43
TORSDOF 11
ENDMDL
MODEL 6
REMARK VINA RESULT:      -9.2      3.332      5.829
REMARK  Name = 131831878
REMARK  11 active torsions:
REMARK  status: ('A' for Active; 'I' for Inactive)
REMARK    1  A    between atoms: S_1  and  O_10
REMARK    2  A    between atoms: O_2  and  C_20
REMARK    3  A    between atoms: O_2  and  C_23
REMARK    4  A    between atoms: O_8  and  C_26
REMARK    5  A    between atoms: O_8  and  C_31
REMARK    6  A    between atoms: O_10  and  C_29
REMARK    7  A    between atoms: O_11  and  C_30
REMARK    8  A    between atoms: O_11  and  C_34
REMARK    9  A    between atoms: C_21  and  C_29
REMARK   10  A    between atoms: C_27  and  C_30
REMARK   11  A    between atoms: C_40  and  C_42
REMARK                            x       y       z     vdW  Elec       q    Type
REMARK                         _______ _______ _______ _____ _____    ______ ____
ROOT
ATOM      1  O   UNL     1     110.230 129.023 138.046  0.00  0.00    +0.000 OA
ATOM      2  O   UNL     1     111.043 131.339 138.363  0.00  0.00    +0.000 OA
ATOM      3  O   UNL     1     110.192 130.942 137.006  0.00  0.00    +0.000 OA
ATOM      4  C   UNL     1     110.926 129.993 138.830  0.00  0.00    +0.000 C 
ATOM      5  C   UNL     1     110.772 130.567 138.257  0.00  0.00    +0.000 C 
ATOM      6  C   UNL     1     110.347 130.368 137.579  0.00  0.00    +0.000 C 
ATOM      7  C   UNL     1     110.655 129.221 138.725  0.00  0.00    +0.000 C 
ATOM      8  C   UNL     1     110.076 129.596 137.473  0.00  0.00    +0.000 C 
ENDROOT
BRANCH   4   9
ATOM      9  O   UNL     1     111.351 130.192 139.509  0.00  0.00    +0.000 OA
BRANCH   9  15
ATOM     10  O   UNL     1     110.148 130.643 140.224  0.00  0.00    +0.000 OA
ATOM     11  O   UNL     1     110.331 131.386 142.005  0.00  0.00    +0.000 OA
ATOM     12  O   UNL     1     112.122 130.752 141.030  0.00  0.00    +0.000 OA
ATOM     13  C   UNL     1     110.722 131.060 141.354  0.00  0.00    +0.000 C 
ATOM     14  C   UNL     1     111.315 130.775 140.858  0.00  0.00    +0.000 C 
ATOM     15  C   UNL     1     110.961 130.518 140.159  0.00  0.00    +0.000 C 
ATOM     16  C   UNL     1     110.000 130.978 140.963  0.00  0.00    +0.000 C 
BRANCH  13  17
ATOM     17  C   UNL     1     111.287 131.238 141.928  0.00  0.00    +0.000 C 
BRANCH  17  18
ATOM     18  O   UNL     1     111.066 131.637 142.615  0.00  0.00    +0.000 OA
BRANCH  18  19
ATOM     19  S   UNL     1     111.637 131.848 143.172  0.00  0.00    +0.000 S 
ATOM     20  O   UNL     1     112.208 132.058 143.729  0.00  0.00    +0.000 OA
ATOM     21  O   UNL     1     111.693 132.597 142.832  0.00  0.00    +0.000 OA
ATOM     22  O   UNL     1     111.582 131.098 143.512  0.00  0.00    +0.000 OA
ENDBRANCH  18  19
ENDBRANCH  17  18
ENDBRANCH  13  17
ENDBRANCH   9  15
ENDBRANCH   4   9
BRANCH   7  23
ATOM     23  O   UNL     1     110.809 128.648 139.297  0.00  0.00    +0.000 OA
BRANCH  23  27
ATOM     24  O   UNL     1     112.483 126.611 138.058  0.00  0.00    +0.000 OA
ATOM     25  O   UNL     1     109.914 125.871 139.153  0.00  0.00    +0.000 OA
ATOM     26  O   UNL     1     110.769 124.889 138.533  0.00  0.00    +0.000 OA
ATOM     27  C   UNL     1     110.935 127.864 139.072  0.00  0.00    +0.000 A 
ATOM     28  C   UNL     1     111.662 127.639 138.672  0.00  0.00    +0.000 A 
ATOM     29  C   UNL     1     110.340 127.266 139.237  0.00  0.00    +0.000 A 
ATOM     30  C   UNL     1     111.783 126.820 138.442  0.00  0.00    +0.000 A 
ATOM     31  C   UNL     1     110.480 126.452 138.999  0.00  0.00    +0.000 A 
ATOM     32  C   UNL     1     111.212 126.247 138.600  0.00  0.00    +0.000 A 
ATOM     33  C   UNL     1     111.340 125.464 138.374  0.00  0.00    +0.000 A 
ATOM     34  C   UNL     1     112.611 125.828 137.832  0.00  0.00    +0.000 A 
ATOM     35  C   UNL     1     112.039 125.254 137.990  0.00  0.00    +0.000 A 
BRANCH  34  37
ATOM     36  O   UNL     1     115.409 124.989 136.296  0.00  0.00    +0.000 OA
ATOM     37  C   UNL     1     113.310 125.618 137.448  0.00  0.00    +0.000 A 
ATOM     38  C   UNL     1     113.362 125.673 136.626  0.00  0.00    +0.000 A 
ATOM     39  C   UNL     1     113.958 125.353 137.886  0.00  0.00    +0.000 A 
ATOM     40  C   UNL     1     114.062 125.464 136.243  0.00  0.00    +0.000 A 
ATOM     41  C   UNL     1     114.657 125.144 137.502  0.00  0.00    +0.000 A 
ATOM     42  C   UNL     1     114.709 125.199 136.680  0.00  0.00    +0.000 A 
ENDBRANCH  34  37
ENDBRANCH  23  27
ENDBRANCH   7  23
BRANCH   8  43
ATOM     43  C   UNL     1     109.650 129.398 136.794  0.00  0.00    +0.000 C 
BRANCH  43  44
ATOM     44  O   UNL     1     109.063 128.820 136.829  0.00  0.00    +0.000 OA
BRANCH  44  46
ATOM     45  O   UNL     1     108.062 129.006 135.826  0.00  0.00    +0.000 OA
ATOM     46  C   UNL     1     108.689 128.570 136.137  0.00  0.00    +0.000 C 
ATOM     47  C   UNL     1     108.941 127.883 135.757  0.00  0.00    +0.000 C 
ENDBRANCH  44  46
ENDBRANCH  43  44
ENDBRANCH   8  43
TORSDOF 11
ENDMDL
MODEL 7
REMARK VINA RESULT:      -9.2      4.235      5.460
REMARK  Name = 131831878
REMARK  11 active torsions:
REMARK  status: ('A' for Active; 'I' for Inactive)
REMARK    1  A    between atoms: S_1  and  O_10
REMARK    2  A    between atoms: O_2  and  C_20
REMARK    3  A    between atoms: O_2  and  C_23
REMARK    4  A    between atoms: O_8  and  C_26
REMARK    5  A    between atoms: O_8  and  C_31
REMARK    6  A    between atoms: O_10  and  C_29
REMARK    7  A    between atoms: O_11  and  C_30
REMARK    8  A    between atoms: O_11  and  C_34
REMARK    9  A    between atoms: C_21  and  C_29
REMARK   10  A    between atoms: C_27  and  C_30
REMARK   11  A    between atoms: C_40  and  C_42
REMARK                            x       y       z     vdW  Elec       q    Type
REMARK                         _______ _______ _______ _____ _____    ______ ____
ROOT
ATOM      1  O   UNL     1     112.476 130.012 137.426  0.00  0.00    +0.000 OA
ATOM      2  O   UNL     1     112.829 130.598 139.805  0.00  0.00    +0.000 OA
ATOM      3  O   UNL     1     114.001 130.929 138.691  0.00  0.00    +0.000 OA
ATOM      4  C   UNL     1     112.007 130.042 138.776  0.00  0.00    +0.000 C 
ATOM      5  C   UNL     1     112.711 130.403 139.012  0.00  0.00    +0.000 C 
ATOM      6  C   UNL     1     113.297 130.568 138.455  0.00  0.00    +0.000 C 
ATOM      7  C   UNL     1     111.890 129.847 137.983  0.00  0.00    +0.000 C 
ATOM      8  C   UNL     1     113.179 130.373 137.662  0.00  0.00    +0.000 C 
ENDROOT
BRANCH   4   9
ATOM      9  O   UNL     1     111.422 129.877 139.333  0.00  0.00    +0.000 OA
BRANCH   9  15
ATOM     10  O   UNL     1     110.842 131.225 139.243  0.00  0.00    +0.000 OA
ATOM     11  O   UNL     1     109.196 131.611 140.191  0.00  0.00    +0.000 OA
ATOM     12  O   UNL     1     109.976 129.631 140.369  0.00  0.00    +0.000 OA
ATOM     13  C   UNL     1     109.768 131.042 140.013  0.00  0.00    +0.000 C 
ATOM     14  C   UNL     1     110.185 130.332 139.987  0.00  0.00    +0.000 C 
ATOM     15  C   UNL     1     110.850 130.445 139.510  0.00  0.00    +0.000 C 
ATOM     16  C   UNL     1     110.173 131.595 139.554  0.00  0.00    +0.000 C 
BRANCH  13  17
ATOM     17  C   UNL     1     109.206 130.693 140.505  0.00  0.00    +0.000 C 
BRANCH  17  18
ATOM     18  O   UNL     1     108.515 131.101 140.697  0.00  0.00    +0.000 OA
BRANCH  18  19
ATOM     19  S   UNL     1     107.955 130.754 141.194  0.00  0.00    +0.000 S 
ATOM     20  O   UNL     1     107.395 130.407 141.690  0.00  0.00    +0.000 OA
ATOM     21  O   UNL     1     108.288 131.142 141.841  0.00  0.00    +0.000 OA
ATOM     22  O   UNL     1     107.622 130.366 140.547  0.00  0.00    +0.000 OA
ENDBRANCH  18  19
ENDBRANCH  17  18
ENDBRANCH  13  17
ENDBRANCH   9  15
ENDBRANCH   4   9
BRANCH   7  23
ATOM     23  O   UNL     1     111.187 129.486 137.747  0.00  0.00    +0.000 OA
BRANCH  23  27
ATOM     24  O   UNL     1     111.730 126.748 136.914  0.00  0.00    +0.000 OA
ATOM     25  O   UNL     1     110.713 128.648 134.990  0.00  0.00    +0.000 OA
ATOM     26  O   UNL     1     110.993 127.284 134.613  0.00  0.00    +0.000 OA
ATOM     27  C   UNL     1     111.198 128.905 137.162  0.00  0.00    +0.000 A 
ATOM     28  C   UNL     1     111.465 128.109 137.347  0.00  0.00    +0.000 A 
ATOM     29  C   UNL     1     110.942 129.090 136.363  0.00  0.00    +0.000 A 
ATOM     30  C   UNL     1     111.473 127.510 136.731  0.00  0.00    +0.000 A 
ATOM     31  C   UNL     1     110.957 128.479 135.760  0.00  0.00    +0.000 A 
ATOM     32  C   UNL     1     111.227 127.689 135.964  0.00  0.00    +0.000 A 
ATOM     33  C   UNL     1     111.239 127.106 135.380  0.00  0.00    +0.000 A 
ATOM     34  C   UNL     1     111.742 126.165 136.331  0.00  0.00    +0.000 A 
ATOM     35  C   UNL     1     111.496 126.344 135.564  0.00  0.00    +0.000 A 
BRANCH  34  37
ATOM     36  O   UNL     1     112.771 123.117 137.065  0.00  0.00    +0.000 OA
ATOM     37  C   UNL     1     111.999 125.403 136.514  0.00  0.00    +0.000 A 
ATOM     38  C   UNL     1     112.801 125.215 136.464  0.00  0.00    +0.000 A 
ATOM     39  C   UNL     1     111.454 124.829 136.748  0.00  0.00    +0.000 A 
ATOM     40  C   UNL     1     113.058 124.453 136.648  0.00  0.00    +0.000 A 
ATOM     41  C   UNL     1     111.712 124.067 136.931  0.00  0.00    +0.000 A 
ATOM     42  C   UNL     1     112.513 123.879 136.881  0.00  0.00    +0.000 A 
ENDBRANCH  34  37
ENDBRANCH  23  27
ENDBRANCH   7  23
BRANCH   8  43
ATOM     43  C   UNL     1     113.766 130.538 137.106  0.00  0.00    +0.000 C 
BRANCH  43  44
ATOM     44  O   UNL     1     114.086 129.931 136.650  0.00  0.00    +0.000 OA
BRANCH  44  46
ATOM     45  O   UNL     1     114.846 130.860 135.875  0.00  0.00    +0.000 OA
ATOM     46  C   UNL     1     114.520 130.108 135.971  0.00  0.00    +0.000 C 
ATOM     47  C   UNL     1     114.628 129.535 135.388  0.00  0.00    +0.000 C 
ENDBRANCH  44  46
ENDBRANCH  43  44
ENDBRANCH   8  43
TORSDOF 11
ENDMDL
MODEL 8
REMARK VINA RESULT:      -9.2      3.133      5.158
REMARK  Name = 131831878
REMARK  11 active torsions:
REMARK  status: ('A' for Active; 'I' for Inactive)
REMARK    1  A    between atoms: S_1  and  O_10
REMARK    2  A    between atoms: O_2  and  C_20
REMARK    3  A    between atoms: O_2  and  C_23
REMARK    4  A    between atoms: O_8  and  C_26
REMARK    5  A    between atoms: O_8  and  C_31
REMARK    6  A    between atoms: O_10  and  C_29
REMARK    7  A    between atoms: O_11  and  C_30
REMARK    8  A    between atoms: O_11  and  C_34
REMARK    9  A    between atoms: C_21  and  C_29
REMARK   10  A    between atoms: C_27  and  C_30
REMARK   11  A    between atoms: C_40  and  C_42
REMARK                            x       y       z     vdW  Elec       q    Type
REMARK                         _______ _______ _______ _____ _____    ______ ____
ROOT
ATOM      1  O   UNL     1     111.228 129.109 139.429  0.00  0.00    +0.000 OA
ATOM      2  O   UNL     1     111.472 131.393 138.508  0.00  0.00    +0.000 OA
ATOM      3  O   UNL     1     112.217 130.990 139.925  0.00  0.00    +0.000 OA
ATOM      4  C   UNL     1     110.936 130.071 138.414  0.00  0.00    +0.000 C 
ATOM      5  C   UNL     1     111.390 130.631 138.815  0.00  0.00    +0.000 C 
ATOM      6  C   UNL     1     111.762 130.430 139.523  0.00  0.00    +0.000 C 
ATOM      7  C   UNL     1     110.855 129.309 138.721  0.00  0.00    +0.000 C 
ATOM      8  C   UNL     1     111.681 129.668 139.830  0.00  0.00    +0.000 C 
ENDROOT
BRANCH   4   9
ATOM      9  O   UNL     1     110.564 130.273 137.706  0.00  0.00    +0.000 OA
BRANCH   9  15
ATOM     10  O   UNL     1     109.436 130.919 138.391  0.00  0.00    +0.000 OA
ATOM     11  O   UNL     1     107.945 131.577 137.341  0.00  0.00    +0.000 OA
ATOM     12  O   UNL     1     109.546 130.650 136.276  0.00  0.00    +0.000 OA
ATOM     13  C   UNL     1     108.679 131.200 137.328  0.00  0.00    +0.000 C 
ATOM     14  C   UNL     1     109.362 130.823 137.061  0.00  0.00    +0.000 C 
ATOM     15  C   UNL     1     109.830 130.650 137.719  0.00  0.00    +0.000 C 
ATOM     16  C   UNL     1     108.724 131.259 138.150  0.00  0.00    +0.000 C 
BRANCH  13  17
ATOM     17  C   UNL     1     108.409 131.260 136.551  0.00  0.00    +0.000 C 
BRANCH  17  18
ATOM     18  O   UNL     1     107.686 131.624 136.392  0.00  0.00    +0.000 OA
BRANCH  18  19
ATOM     19  S   UNL     1     107.402 131.657 135.618  0.00  0.00    +0.000 S 
ATOM     20  O   UNL     1     107.118 131.689 134.844  0.00  0.00    +0.000 OA
ATOM     21  O   UNL     1     107.904 132.292 135.461  0.00  0.00    +0.000 OA
ATOM     22  O   UNL     1     106.900 131.021 135.775  0.00  0.00    +0.000 OA
ENDBRANCH  18  19
ENDBRANCH  17  18
ENDBRANCH  13  17
ENDBRANCH   9  15
ENDBRANCH   4   9
BRANCH   7  23
ATOM     23  O   UNL     1     110.402 128.750 138.320  0.00  0.00    +0.000 OA
BRANCH  23  27
ATOM     24  O   UNL     1     112.248 126.582 137.706  0.00  0.00    +0.000 OA
ATOM     25  O   UNL     1     109.813 126.013 139.153  0.00  0.00    +0.000 OA
ATOM     26  O   UNL     1     110.750 124.965 138.832  0.00  0.00    +0.000 OA
ATOM     27  C   UNL     1     110.605 127.951 138.356  0.00  0.00    +0.000 A 
ATOM     28  C   UNL     1     111.339 127.675 138.003  0.00  0.00    +0.000 A 
ATOM     29  C   UNL     1     110.086 127.389 138.747  0.00  0.00    +0.000 A 
ATOM     30  C   UNL     1     111.543 126.841 138.046  0.00  0.00    +0.000 A 
ATOM     31  C   UNL     1     110.306 126.560 138.780  0.00  0.00    +0.000 A 
ATOM     32  C   UNL     1     111.043 126.303 138.422  0.00  0.00    +0.000 A 
ATOM     33  C   UNL     1     111.249 125.504 138.457  0.00  0.00    +0.000 A 
ATOM     34  C   UNL     1     112.454 125.784 137.741  0.00  0.00    +0.000 A 
ATOM     35  C   UNL     1     111.955 125.245 138.116  0.00  0.00    +0.000 A 
BRANCH  34  37
ATOM     36  O   UNL     1     115.275 124.747 136.379  0.00  0.00    +0.000 OA
ATOM     37  C   UNL     1     113.160 125.525 137.401  0.00  0.00    +0.000 A 
ATOM     38  C   UNL     1     113.856 125.525 137.843  0.00  0.00    +0.000 A 
ATOM     39  C   UNL     1     113.168 125.265 136.617  0.00  0.00    +0.000 A 
ATOM     40  C   UNL     1     114.561 125.266 137.502  0.00  0.00    +0.000 A 
ATOM     41  C   UNL     1     113.873 125.006 136.277  0.00  0.00    +0.000 A 
ATOM     42  C   UNL     1     114.570 125.006 136.719  0.00  0.00    +0.000 A 
ENDBRANCH  34  37
ENDBRANCH  23  27
ENDBRANCH   7  23
BRANCH   8  43
ATOM     43  C   UNL     1     112.054 129.467 140.538  0.00  0.00    +0.000 C 
BRANCH  43  44
ATOM     44  O   UNL     1     111.692 128.943 141.061  0.00  0.00    +0.000 OA
BRANCH  44  46
ATOM     45  O   UNL     1     112.267 129.155 142.352  0.00  0.00    +0.000 OA
ATOM     46  C   UNL     1     112.108 128.657 141.714  0.00  0.00    +0.000 C 
ATOM     47  C   UNL     1     112.364 127.873 141.729  0.00  0.00    +0.000 C 
ENDBRANCH  44  46
ENDBRANCH  43  44
ENDBRANCH   8  43
TORSDOF 11
ENDMDL
MODEL 9
REMARK VINA RESULT:      -9.1      4.412      5.791
REMARK  Name = 131831878
REMARK  11 active torsions:
REMARK  status: ('A' for Active; 'I' for Inactive)
REMARK    1  A    between atoms: S_1  and  O_10
REMARK    2  A    between atoms: O_2  and  C_20
REMARK    3  A    between atoms: O_2  and  C_23
REMARK    4  A    between atoms: O_8  and  C_26
REMARK    5  A    between atoms: O_8  and  C_31
REMARK    6  A    between atoms: O_10  and  C_29
REMARK    7  A    between atoms: O_11  and  C_30
REMARK    8  A    between atoms: O_11  and  C_34
REMARK    9  A    between atoms: C_21  and  C_29
REMARK   10  A    between atoms: C_27  and  C_30
REMARK   11  A    between atoms: C_40  and  C_42
REMARK                            x       y       z     vdW  Elec       q    Type
REMARK                         _______ _______ _______ _____ _____    ______ ____
ROOT
ATOM      1  O   UNL     1     110.142 129.797 137.757  0.00  0.00    +0.000 OA
ATOM      2  O   UNL     1     109.098 131.678 138.980  0.00  0.00    +0.000 OA
ATOM      3  O   UNL     1     108.362 131.054 137.642  0.00  0.00    +0.000 OA
ATOM      4  C   UNL     1     110.163 130.735 138.834  0.00  0.00    +0.000 C 
ATOM      5  C   UNL     1     109.446 131.051 138.572  0.00  0.00    +0.000 C 
ATOM      6  C   UNL     1     109.079 130.738 137.903  0.00  0.00    +0.000 C 
ATOM      7  C   UNL     1     110.511 130.108 138.426  0.00  0.00    +0.000 C 
ATOM      8  C   UNL     1     109.427 130.111 137.495  0.00  0.00    +0.000 C 
ENDROOT
BRANCH   4   9
ATOM      9  O   UNL     1     110.531 131.048 139.503  0.00  0.00    +0.000 OA
BRANCH   9  15
ATOM     10  O   UNL     1     109.721 130.234 140.422  0.00  0.00    +0.000 OA
ATOM     11  O   UNL     1     110.029 130.375 142.330  0.00  0.00    +0.000 OA
ATOM     12  O   UNL     1     111.244 131.587 141.059  0.00  0.00    +0.000 OA
ATOM     13  C   UNL     1     110.251 130.635 141.579  0.00  0.00    +0.000 C 
ATOM     14  C   UNL     1     110.637 131.035 140.970  0.00  0.00    +0.000 C 
ATOM     15  C   UNL     1     110.309 130.787 140.254  0.00  0.00    +0.000 C 
ATOM     16  C   UNL     1     109.685 130.140 141.240  0.00  0.00    +0.000 C 
BRANCH  13  17
ATOM     17  C   UNL     1     110.722 131.026 142.132  0.00  0.00    +0.000 C 
BRANCH  17  18
ATOM     18  O   UNL     1     110.628 130.868 142.937  0.00  0.00    +0.000 OA
BRANCH  18  19
ATOM     19  S   UNL     1     111.098 131.259 143.491  0.00  0.00    +0.000 S 
ATOM     20  O   UNL     1     111.568 131.650 144.045  0.00  0.00    +0.000 OA
ATOM     21  O   UNL     1     110.534 131.859 143.546  0.00  0.00    +0.000 OA
ATOM     22  O   UNL     1     111.661 130.659 143.437  0.00  0.00    +0.000 OA
ENDBRANCH  18  19
ENDBRANCH  17  18
ENDBRANCH  13  17
ENDBRANCH   9  15
ENDBRANCH   4   9
BRANCH   7  23
ATOM     23  O   UNL     1     111.227 129.794 138.687  0.00  0.00    +0.000 OA
BRANCH  23  27
ATOM     24  O   UNL     1     112.511 127.485 137.460  0.00  0.00    +0.000 OA
ATOM     25  O   UNL     1     113.219 130.144 136.580  0.00  0.00    +0.000 OA
ATOM     26  O   UNL     1     113.834 128.978 135.995  0.00  0.00    +0.000 OA
ATOM     27  C   UNL     1     111.761 129.476 138.144  0.00  0.00    +0.000 A 
ATOM     28  C   UNL     1     111.861 128.624 138.083  0.00  0.00    +0.000 A 
ATOM     29  C   UNL     1     112.220 129.994 137.635  0.00  0.00    +0.000 A 
ATOM     30  C   UNL     1     112.419 128.303 137.515  0.00  0.00    +0.000 A 
ATOM     31  C   UNL     1     112.773 129.654 137.073  0.00  0.00    +0.000 A 
ATOM     32  C   UNL     1     112.860 128.801 137.026  0.00  0.00    +0.000 A 
ATOM     33  C   UNL     1     113.393 128.481 136.484  0.00  0.00    +0.000 A 
ATOM     34  C   UNL     1     113.044 127.164 136.918  0.00  0.00    +0.000 A 
ATOM     35  C   UNL     1     113.485 127.662 136.430  0.00  0.00    +0.000 A 
BRANCH  34  37
ATOM     36  O   UNL     1     113.413 123.892 136.702  0.00  0.00    +0.000 OA
ATOM     37  C   UNL     1     113.136 126.346 136.864  0.00  0.00    +0.000 A 
ATOM     38  C   UNL     1     112.597 125.898 136.429  0.00  0.00    +0.000 A 
ATOM     39  C   UNL     1     113.768 125.977 137.245  0.00  0.00    +0.000 A 
ATOM     40  C   UNL     1     112.689 125.081 136.376  0.00  0.00    +0.000 A 
ATOM     41  C   UNL     1     113.860 125.159 137.191  0.00  0.00    +0.000 A 
ATOM     42  C   UNL     1     113.321 124.711 136.756  0.00  0.00    +0.000 A 
ENDBRANCH  34  37
ENDBRANCH  23  27
ENDBRANCH   7  23
BRANCH   8  43
ATOM     43  C   UNL     1     109.058 129.800 136.826  0.00  0.00    +0.000 C 
BRANCH  43  44
ATOM     44  O   UNL     1     109.053 128.985 136.699  0.00  0.00    +0.000 OA
BRANCH  44  46
ATOM     45  O   UNL     1     107.982 128.659 135.812  0.00  0.00    +0.000 OA
ATOM     46  C   UNL     1     108.789 128.681 135.979  0.00  0.00    +0.000 C 
ATOM     47  C   UNL     1     109.332 128.399 135.426  0.00  0.00    +0.000 C 
ENDBRANCH  44  46
ENDBRANCH  43  44
ENDBRANCH   8  43
TORSDOF 11
ENDMDL
MODEL 10
REMARK VINA RESULT:      -9.1      5.364      7.986
REMARK  Name = 131831878
REMARK  11 active torsions:
REMARK  status: ('A' for Active; 'I' for Inactive)
REMARK    1  A    between atoms: S_1  and  O_10
REMARK    2  A    between atoms: O_2  and  C_20
REMARK    3  A    between atoms: O_2  and  C_23
REMARK    4  A    between atoms: O_8  and  C_26
REMARK    5  A    between atoms: O_8  and  C_31
REMARK    6  A    between atoms: O_10  and  C_29
REMARK    7  A    between atoms: O_11  and  C_30
REMARK    8  A    between atoms: O_11  and  C_34
REMARK    9  A    between atoms: C_21  and  C_29
REMARK   10  A    between atoms: C_27  and  C_30
REMARK   11  A    between atoms: C_40  and  C_42
REMARK                            x       y       z     vdW  Elec       q    Type
REMARK                         _______ _______ _______ _____ _____    ______ ____
ROOT
ATOM      1  O   UNL     1     105.418 126.046 141.702  0.00  0.00    +0.000 OA
ATOM      2  O   UNL     1     106.898 124.292 142.627  0.00  0.00    +0.000 OA
ATOM      3  O   UNL     1     106.356 124.179 141.073  0.00  0.00    +0.000 OA
ATOM      4  C   UNL     1     106.182 125.519 142.788  0.00  0.00    +0.000 C 
ATOM      5  C   UNL     1     106.404 124.877 142.319  0.00  0.00    +0.000 C 
ATOM      6  C   UNL     1     106.133 124.821 141.542  0.00  0.00    +0.000 C 
ATOM      7  C   UNL     1     105.688 126.104 142.480  0.00  0.00    +0.000 C 
ATOM      8  C   UNL     1     105.640 125.406 141.234  0.00  0.00    +0.000 C 
ENDROOT
BRANCH   4   9
ATOM      9  O   UNL     1     106.453 125.575 143.565  0.00  0.00    +0.000 OA
BRANCH   9  15
ATOM     10  O   UNL     1     105.404 124.682 144.078  0.00  0.00    +0.000 OA
ATOM     11  O   UNL     1     105.276 124.375 145.988  0.00  0.00    +0.000 OA
ATOM     12  O   UNL     1     106.824 125.684 145.318  0.00  0.00    +0.000 OA
ATOM     13  C   UNL     1     105.680 124.763 145.381  0.00  0.00    +0.000 C 
ATOM     14  C   UNL     1     106.220 125.237 144.978  0.00  0.00    +0.000 C 
ATOM     15  C   UNL     1     106.049 125.187 144.172  0.00  0.00    +0.000 C 
ATOM     16  C   UNL     1     105.175 124.419 144.827  0.00  0.00    +0.000 C 
BRANCH  13  17
ATOM     17  C   UNL     1     106.035 124.970 146.097  0.00  0.00    +0.000 C 
BRANCH  17  18
ATOM     18  O   UNL     1     105.738 124.671 146.807  0.00  0.00    +0.000 OA
BRANCH  18  19
ATOM     19  S   UNL     1     106.060 124.917 147.525  0.00  0.00    +0.000 S 
ATOM     20  O   UNL     1     106.383 125.163 148.243  0.00  0.00    +0.000 OA
ATOM     21  O   UNL     1     106.619 124.312 147.481  0.00  0.00    +0.000 OA
ATOM     22  O   UNL     1     105.502 125.522 147.568  0.00  0.00    +0.000 OA
ENDBRANCH  18  19
ENDBRANCH  17  18
ENDBRANCH  13  17
ENDBRANCH   9  15
ENDBRANCH   4   9
BRANCH   7  23
ATOM     23  O   UNL     1     105.466 126.744 142.948  0.00  0.00    +0.000 OA
BRANCH  23  27
ATOM     24  O   UNL     1     103.939 129.106 142.189  0.00  0.00    +0.000 OA
ATOM     25  O   UNL     1     106.787 129.036 141.709  0.00  0.00    +0.000 OA
ATOM     26  O   UNL     1     105.999 130.188 141.346  0.00  0.00    +0.000 OA
ATOM     27  C   UNL     1     105.434 127.502 142.622  0.00  0.00    +0.000 A 
ATOM     28  C   UNL     1     104.684 127.920 142.574  0.00  0.00    +0.000 A 
ATOM     29  C   UNL     1     106.149 127.878 142.330  0.00  0.00    +0.000 A 
ATOM     30  C   UNL     1     104.661 128.709 142.233  0.00  0.00    +0.000 A 
ATOM     31  C   UNL     1     106.105 128.667 141.992  0.00  0.00    +0.000 A 
ATOM     32  C   UNL     1     105.347 129.069 141.952  0.00  0.00    +0.000 A 
ATOM     33  C   UNL     1     105.312 129.827 141.627  0.00  0.00    +0.000 A 
ATOM     34  C   UNL     1     103.903 129.863 141.864  0.00  0.00    +0.000 A 
ATOM     35  C   UNL     1     104.590 130.224 141.583  0.00  0.00    +0.000 A 
BRANCH  34  37
ATOM     36  O   UNL     1     101.016 131.450 141.686  0.00  0.00    +0.000 OA
ATOM     37  C   UNL     1     103.181 130.260 141.819  0.00  0.00    +0.000 A 
ATOM     38  C   UNL     1     102.943 130.752 142.437  0.00  0.00    +0.000 A 
ATOM     39  C   UNL     1     102.698 130.164 141.157  0.00  0.00    +0.000 A 
ATOM     40  C   UNL     1     102.221 131.148 142.392  0.00  0.00    +0.000 A 
ATOM     41  C   UNL     1     101.976 130.561 141.112  0.00  0.00    +0.000 A 
ATOM     42  C   UNL     1     101.738 131.053 141.730  0.00  0.00    +0.000 A 
ENDBRANCH  34  37
ENDBRANCH  23  27
ENDBRANCH   7  23
BRANCH   8  43
ATOM     43  C   UNL     1     105.369 125.348 140.456  0.00  0.00    +0.000 C 
BRANCH  43  44
ATOM     44  O   UNL     1     104.560 125.341 140.300  0.00  0.00    +0.000 OA
BRANCH  44  46
ATOM     45  O   UNL     1     104.048 126.220 139.297  0.00  0.00    +0.000 OA
ATOM     46  C   UNL     1     104.285 125.466 139.532  0.00  0.00    +0.000 C 
ATOM     47  C   UNL     1     104.249 124.837 139.000  0.00  0.00    +0.000 C 
ENDBRANCH  44  46
ENDBRANCH  43  44
ENDBRANCH   8  43
TORSDOF 11
ENDMDL
