MODEL 1
REMARK VINA RESULT:      -8.4      0.000      0.000
REMARK  Name = null
REMARK  2 active torsions:
REMARK  status: ('A' for Active; 'I' for Inactive)
REMARK    1  A    between atoms: O_2  and  C_3
REMARK    2  A    between atoms: C_6  and  C_9
REMARK                            x       y       z     vdW  Elec       q    Type
REMARK                         _______ _______ _______ _____ _____    ______ ____
ROOT
ATOM      1  C   UNL     1     103.958 123.752 138.531  0.00  0.00    +0.000 A 
ATOM      2  C   UNL     1     103.135 123.815 138.573  0.00  0.00    +0.000 A 
ATOM      3  C   UNL     1     102.672 123.606 137.924  0.00  0.00    +0.000 A 
ATOM      4  O   UNL     1     101.851 123.670 137.965  0.00  0.00    +0.000 OA
ATOM      5  C   UNL     1     103.029 123.333 137.233  0.00  0.00    +0.000 A 
ATOM      6  C   UNL     1     102.566 123.123 136.583  0.00  0.00    +0.000 A 
ATOM      7  C   UNL     1     102.924 122.850 135.892  0.00  0.00    +0.000 A 
ATOM      8  C   UNL     1     103.746 122.786 135.850  0.00  0.00    +0.000 A 
ATOM      9  C   UNL     1     104.209 122.996 136.499  0.00  0.00    +0.000 A 
ATOM     10  C   UNL     1     103.852 123.269 137.191  0.00  0.00    +0.000 A 
ATOM     11  O   UNL     1     104.315 123.479 137.840  0.00  0.00    +0.000 OA
ENDROOT
BRANCH   1  15
ATOM     12  C   UNL     1     105.346 124.380 140.481  0.00  0.00    +0.000 A 
ATOM     13  C   UNL     1     105.190 124.934 139.890  0.00  0.00    +0.000 A 
ATOM     14  C   UNL     1     104.728 124.725 139.241  0.00  0.00    +0.000 A 
ATOM     15  C   UNL     1     104.421 123.962 139.181  0.00  0.00    +0.000 A 
ATOM     16  C   UNL     1     104.577 123.407 139.772  0.00  0.00    +0.000 A 
ATOM     17  C   UNL     1     105.040 123.617 140.422  0.00  0.00    +0.000 A 
BRANCH  12  19
ATOM     18  C   UNL     1     106.618 124.431 141.129  0.00  0.00    +0.000 C 
ATOM     19  O   UNL     1     105.809 124.589 141.131  0.00  0.00    +0.000 OA
ENDBRANCH  12  19
ENDBRANCH   1  15
TORSDOF 2
ENDMDL
MODEL 2
REMARK VINA RESULT:      -8.3      7.376      8.899
REMARK  Name = null
REMARK  2 active torsions:
REMARK  status: ('A' for Active; 'I' for Inactive)
REMARK    1  A    between atoms: O_2  and  C_3
REMARK    2  A    between atoms: C_6  and  C_9
REMARK                            x       y       z     vdW  Elec       q    Type
REMARK                         _______ _______ _______ _____ _____    ______ ____
ROOT
ATOM      1  C   UNL     1     111.729 125.206 136.327  0.00  0.00    +0.000 A 
ATOM      2  C   UNL     1     111.738 124.411 136.553  0.00  0.00    +0.000 A 
ATOM      3  C   UNL     1     112.441 124.062 136.805  0.00  0.00    +0.000 A 
ATOM      4  O   UNL     1     112.450 123.269 137.031  0.00  0.00    +0.000 OA
ATOM      5  C   UNL     1     113.135 124.506 136.831  0.00  0.00    +0.000 A 
ATOM      6  C   UNL     1     113.839 124.157 137.082  0.00  0.00    +0.000 A 
ATOM      7  C   UNL     1     114.534 124.601 137.108  0.00  0.00    +0.000 A 
ATOM      8  C   UNL     1     114.525 125.395 136.882  0.00  0.00    +0.000 A 
ATOM      9  C   UNL     1     113.821 125.744 136.631  0.00  0.00    +0.000 A 
ATOM     10  C   UNL     1     113.126 125.300 136.605  0.00  0.00    +0.000 A 
ATOM     11  O   UNL     1     112.423 125.649 136.353  0.00  0.00    +0.000 OA
ENDROOT
BRANCH   1  15
ATOM     12  C   UNL     1     109.616 126.252 135.573  0.00  0.00    +0.000 A 
ATOM     13  C   UNL     1     110.075 125.820 135.041  0.00  0.00    +0.000 A 
ATOM     14  C   UNL     1     110.778 125.471 135.292  0.00  0.00    +0.000 A 
ATOM     15  C   UNL     1     111.024 125.554 136.075  0.00  0.00    +0.000 A 
ATOM     16  C   UNL     1     110.566 125.987 136.608  0.00  0.00    +0.000 A 
ATOM     17  C   UNL     1     109.861 126.336 136.357  0.00  0.00    +0.000 A 
BRANCH  12  19
ATOM     18  C   UNL     1     108.583 127.221 135.754  0.00  0.00    +0.000 C 
ATOM     19  O   UNL     1     108.912 126.601 135.323  0.00  0.00    +0.000 OA
ENDBRANCH  12  19
ENDBRANCH   1  15
TORSDOF 2
ENDMDL
MODEL 3
REMARK VINA RESULT:      -8.1      8.022      9.736
REMARK  Name = null
REMARK  2 active torsions:
REMARK  status: ('A' for Active; 'I' for Inactive)
REMARK    1  A    between atoms: O_2  and  C_3
REMARK    2  A    between atoms: C_6  and  C_9
REMARK                            x       y       z     vdW  Elec       q    Type
REMARK                         _______ _______ _______ _____ _____    ______ ____
ROOT
ATOM      1  C   UNL     1     105.414 124.688 147.137  0.00  0.00    +0.000 A 
ATOM      2  C   UNL     1     105.928 125.047 146.599  0.00  0.00    +0.000 A 
ATOM      3  C   UNL     1     106.713 125.185 146.809  0.00  0.00    +0.000 A 
ATOM      4  O   UNL     1     107.226 125.545 146.272  0.00  0.00    +0.000 OA
ATOM      5  C   UNL     1     106.986 124.964 147.555  0.00  0.00    +0.000 A 
ATOM      6  C   UNL     1     107.772 125.102 147.765  0.00  0.00    +0.000 A 
ATOM      7  C   UNL     1     108.045 124.881 148.511  0.00  0.00    +0.000 A 
ATOM      8  C   UNL     1     107.531 124.521 149.049  0.00  0.00    +0.000 A 
ATOM      9  C   UNL     1     106.746 124.383 148.839  0.00  0.00    +0.000 A 
ATOM     10  C   UNL     1     106.472 124.604 148.092  0.00  0.00    +0.000 A 
ATOM     11  O   UNL     1     105.687 124.467 147.883  0.00  0.00    +0.000 OA
ENDROOT
BRANCH   1  15
ATOM     12  C   UNL     1     103.057 124.273 146.505  0.00  0.00    +0.000 A 
ATOM     13  C   UNL     1     103.246 124.906 147.001  0.00  0.00    +0.000 A 
ATOM     14  C   UNL     1     104.031 125.044 147.211  0.00  0.00    +0.000 A 
ATOM     15  C   UNL     1     104.628 124.550 146.927  0.00  0.00    +0.000 A 
ATOM     16  C   UNL     1     104.439 123.918 146.432  0.00  0.00    +0.000 A 
ATOM     17  C   UNL     1     103.653 123.779 146.221  0.00  0.00    +0.000 A 
BRANCH  12  19
ATOM     18  C   UNL     1     101.675 124.200 146.859  0.00  0.00    +0.000 C 
ATOM     19  O   UNL     1     102.272 124.135 146.294  0.00  0.00    +0.000 OA
ENDBRANCH  12  19
ENDBRANCH   1  15
TORSDOF 2
ENDMDL
MODEL 4
REMARK VINA RESULT:      -7.8      7.132      8.486
REMARK  Name = null
REMARK  2 active torsions:
REMARK  status: ('A' for Active; 'I' for Inactive)
REMARK    1  A    between atoms: O_2  and  C_3
REMARK    2  A    between atoms: C_6  and  C_9
REMARK                            x       y       z     vdW  Elec       q    Type
REMARK                         _______ _______ _______ _____ _____    ______ ____
ROOT
ATOM      1  C   UNL     1     102.419 130.782 141.531  0.00  0.00    +0.000 A 
ATOM      2  C   UNL     1     102.324 130.393 140.808  0.00  0.00    +0.000 A 
ATOM      3  C   UNL     1     102.750 129.705 140.652  0.00  0.00    +0.000 A 
ATOM      4  O   UNL     1     102.655 129.317 139.930  0.00  0.00    +0.000 OA
ATOM      5  C   UNL     1     103.270 129.405 141.216  0.00  0.00    +0.000 A 
ATOM      6  C   UNL     1     103.697 128.716 141.060  0.00  0.00    +0.000 A 
ATOM      7  C   UNL     1     104.218 128.416 141.624  0.00  0.00    +0.000 A 
ATOM      8  C   UNL     1     104.313 128.805 142.347  0.00  0.00    +0.000 A 
ATOM      9  C   UNL     1     103.887 129.493 142.503  0.00  0.00    +0.000 A 
ATOM     10  C   UNL     1     103.365 129.794 141.939  0.00  0.00    +0.000 A 
ATOM     11  O   UNL     1     102.939 130.482 142.095  0.00  0.00    +0.000 OA
ENDROOT
BRANCH   1  15
ATOM     12  C   UNL     1     101.138 132.848 142.000  0.00  0.00    +0.000 A 
ATOM     13  C   UNL     1     101.903 132.897 141.695  0.00  0.00    +0.000 A 
ATOM     14  C   UNL     1     102.329 132.210 141.539  0.00  0.00    +0.000 A 
ATOM     15  C   UNL     1     101.992 131.471 141.687  0.00  0.00    +0.000 A 
ATOM     16  C   UNL     1     101.227 131.422 141.992  0.00  0.00    +0.000 A 
ATOM     17  C   UNL     1     100.799 132.111 142.148  0.00  0.00    +0.000 A 
BRANCH  12  19
ATOM     18  C   UNL     1     100.728 134.163 141.622  0.00  0.00    +0.000 C 
ATOM     19  O   UNL     1     100.710 133.536 142.156  0.00  0.00    +0.000 OA
ENDBRANCH  12  19
ENDBRANCH   1  15
TORSDOF 2
ENDMDL
MODEL 5
REMARK VINA RESULT:      -7.5      6.989      9.939
REMARK  Name = null
REMARK  2 active torsions:
REMARK  status: ('A' for Active; 'I' for Inactive)
REMARK    1  A    between atoms: O_2  and  C_3
REMARK    2  A    between atoms: C_6  and  C_9
REMARK                            x       y       z     vdW  Elec       q    Type
REMARK                         _______ _______ _______ _____ _____    ______ ____
ROOT
ATOM      1  C   UNL     1     106.755 125.522 147.050  0.00  0.00    +0.000 A 
ATOM      2  C   UNL     1     107.581 125.506 147.064  0.00  0.00    +0.000 A 
ATOM      3  C   UNL     1     107.976 125.175 147.708  0.00  0.00    +0.000 A 
ATOM      4  O   UNL     1     108.801 125.159 147.721  0.00  0.00    +0.000 OA
ATOM      5  C   UNL     1     107.547 124.860 148.337  0.00  0.00    +0.000 A 
ATOM      6  C   UNL     1     107.942 124.529 148.982  0.00  0.00    +0.000 A 
ATOM      7  C   UNL     1     107.513 124.214 149.611  0.00  0.00    +0.000 A 
ATOM      8  C   UNL     1     106.688 124.230 149.598  0.00  0.00    +0.000 A 
ATOM      9  C   UNL     1     106.293 124.561 148.954  0.00  0.00    +0.000 A 
ATOM     10  C   UNL     1     106.721 124.876 148.324  0.00  0.00    +0.000 A 
ATOM     11  O   UNL     1     106.326 125.207 147.680  0.00  0.00    +0.000 OA
ENDROOT
BRANCH   1  15
ATOM     12  C   UNL     1     105.570 126.515 145.117  0.00  0.00    +0.000 A 
ATOM     13  C   UNL     1     105.698 126.964 145.798  0.00  0.00    +0.000 A 
ATOM     14  C   UNL     1     106.092 126.633 146.441  0.00  0.00    +0.000 A 
ATOM     15  C   UNL     1     106.360 125.854 146.406  0.00  0.00    +0.000 A 
ATOM     16  C   UNL     1     106.233 125.405 145.726  0.00  0.00    +0.000 A 
ATOM     17  C   UNL     1     105.838 125.736 145.081  0.00  0.00    +0.000 A 
BRANCH  12  19
ATOM     18  C   UNL     1     105.598 127.259 143.898  0.00  0.00    +0.000 C 
ATOM     19  O   UNL     1     105.176 126.845 144.472  0.00  0.00    +0.000 OA
ENDBRANCH  12  19
ENDBRANCH   1  15
TORSDOF 2
ENDMDL
MODEL 6
REMARK VINA RESULT:      -7.4      8.382      9.745
REMARK  Name = null
REMARK  2 active torsions:
REMARK  status: ('A' for Active; 'I' for Inactive)
REMARK    1  A    between atoms: O_2  and  C_3
REMARK    2  A    between atoms: C_6  and  C_9
REMARK                            x       y       z     vdW  Elec       q    Type
REMARK                         _______ _______ _______ _____ _____    ______ ____
ROOT
ATOM      1  C   UNL     1     113.454 126.052 138.428  0.00  0.00    +0.000 A 
ATOM      2  C   UNL     1     114.160 125.761 138.112  0.00  0.00    +0.000 A 
ATOM      3  C   UNL     1     114.144 125.141 137.569  0.00  0.00    +0.000 A 
ATOM      4  O   UNL     1     114.849 124.851 137.254  0.00  0.00    +0.000 OA
ATOM      5  C   UNL     1     113.424 124.812 137.340  0.00  0.00    +0.000 A 
ATOM      6  C   UNL     1     113.408 124.191 136.796  0.00  0.00    +0.000 A 
ATOM      7  C   UNL     1     112.688 123.861 136.568  0.00  0.00    +0.000 A 
ATOM      8  C   UNL     1     111.982 124.152 136.883  0.00  0.00    +0.000 A 
ATOM      9  C   UNL     1     111.998 124.772 137.426  0.00  0.00    +0.000 A 
ATOM     10  C   UNL     1     112.718 125.102 137.656  0.00  0.00    +0.000 A 
ATOM     11  O   UNL     1     112.734 125.722 138.199  0.00  0.00    +0.000 OA
ENDROOT
BRANCH   1  15
ATOM     12  C   UNL     1     113.504 127.912 140.060  0.00  0.00    +0.000 A 
ATOM     13  C   UNL     1     113.268 128.052 139.282  0.00  0.00    +0.000 A 
ATOM     14  C   UNL     1     113.252 127.433 138.738  0.00  0.00    +0.000 A 
ATOM     15  C   UNL     1     113.470 126.672 138.971  0.00  0.00    +0.000 A 
ATOM     16  C   UNL     1     113.706 126.532 139.749  0.00  0.00    +0.000 A 
ATOM     17  C   UNL     1     113.723 127.152 140.294  0.00  0.00    +0.000 A 
BRANCH  12  19
ATOM     18  C   UNL     1     114.181 129.022 140.651  0.00  0.00    +0.000 C 
ATOM     19  O   UNL     1     113.520 128.531 140.604  0.00  0.00    +0.000 OA
ENDBRANCH  12  19
ENDBRANCH   1  15
TORSDOF 2
ENDMDL
MODEL 7
REMARK VINA RESULT:      -7.4      8.783     10.259
REMARK  Name = null
REMARK  2 active torsions:
REMARK  status: ('A' for Active; 'I' for Inactive)
REMARK    1  A    between atoms: O_2  and  C_3
REMARK    2  A    between atoms: C_6  and  C_9
REMARK                            x       y       z     vdW  Elec       q    Type
REMARK                         _______ _______ _______ _____ _____    ______ ____
ROOT
ATOM      1  C   UNL     1     113.459 126.549 136.647  0.00  0.00    +0.000 A 
ATOM      2  C   UNL     1     114.124 126.133 136.905  0.00  0.00    +0.000 A 
ATOM      3  C   UNL     1     114.089 125.314 136.993  0.00  0.00    +0.000 A 
ATOM      4  O   UNL     1     114.753 124.898 137.251  0.00  0.00    +0.000 OA
ATOM      5  C   UNL     1     113.391 124.910 136.823  0.00  0.00    +0.000 A 
ATOM      6  C   UNL     1     113.356 124.090 136.910  0.00  0.00    +0.000 A 
ATOM      7  C   UNL     1     112.657 123.686 136.740  0.00  0.00    +0.000 A 
ATOM      8  C   UNL     1     111.992 124.103 136.481  0.00  0.00    +0.000 A 
ATOM      9  C   UNL     1     112.027 124.922 136.394  0.00  0.00    +0.000 A 
ATOM     10  C   UNL     1     112.726 125.326 136.564  0.00  0.00    +0.000 A 
ATOM     11  O   UNL     1     112.761 126.145 136.476  0.00  0.00    +0.000 OA
ENDROOT
BRANCH   1  15
ATOM     12  C   UNL     1     113.564 129.008 136.386  0.00  0.00    +0.000 A 
ATOM     13  C   UNL     1     113.877 128.518 135.800  0.00  0.00    +0.000 A 
ATOM     14  C   UNL     1     113.842 127.699 135.887  0.00  0.00    +0.000 A 
ATOM     15  C   UNL     1     113.494 127.369 136.559  0.00  0.00    +0.000 A 
ATOM     16  C   UNL     1     113.182 127.859 137.144  0.00  0.00    +0.000 A 
ATOM     17  C   UNL     1     113.217 128.680 137.058  0.00  0.00    +0.000 A 
BRANCH  12  19
ATOM     18  C   UNL     1     114.269 130.240 136.543  0.00  0.00    +0.000 C 
ATOM     19  O   UNL     1     113.599 129.828 136.299  0.00  0.00    +0.000 OA
ENDBRANCH  12  19
ENDBRANCH   1  15
TORSDOF 2
ENDMDL
MODEL 8
REMARK VINA RESULT:      -7.3      9.121     10.495
REMARK  Name = null
REMARK  2 active torsions:
REMARK  status: ('A' for Active; 'I' for Inactive)
REMARK    1  A    between atoms: O_2  and  C_3
REMARK    2  A    between atoms: C_6  and  C_9
REMARK                            x       y       z     vdW  Elec       q    Type
REMARK                         _______ _______ _______ _____ _____    ______ ____
ROOT
ATOM      1  C   UNL     1     113.353 127.106 136.528  0.00  0.00    +0.000 A 
ATOM      2  C   UNL     1     112.638 126.756 136.309  0.00  0.00    +0.000 A 
ATOM      3  C   UNL     1     112.540 125.941 136.380  0.00  0.00    +0.000 A 
ATOM      4  O   UNL     1     111.825 125.591 136.161  0.00  0.00    +0.000 OA
ATOM      5  C   UNL     1     113.155 125.475 136.669  0.00  0.00    +0.000 A 
ATOM      6  C   UNL     1     113.057 124.658 136.740  0.00  0.00    +0.000 A 
ATOM      7  C   UNL     1     113.672 124.192 137.030  0.00  0.00    +0.000 A 
ATOM      8  C   UNL     1     114.387 124.542 137.249  0.00  0.00    +0.000 A 
ATOM      9  C   UNL     1     114.486 125.358 137.179  0.00  0.00    +0.000 A 
ATOM     10  C   UNL     1     113.870 125.825 136.889  0.00  0.00    +0.000 A 
ATOM     11  O   UNL     1     113.968 126.640 136.818  0.00  0.00    +0.000 OA
ENDROOT
BRANCH   1  15
ATOM     12  C   UNL     1     113.646 129.555 136.317  0.00  0.00    +0.000 A 
ATOM     13  C   UNL     1     113.906 129.055 135.714  0.00  0.00    +0.000 A 
ATOM     14  C   UNL     1     113.809 128.240 135.785  0.00  0.00    +0.000 A 
ATOM     15  C   UNL     1     113.451 127.923 136.458  0.00  0.00    +0.000 A 
ATOM     16  C   UNL     1     113.191 128.422 137.060  0.00  0.00    +0.000 A 
ATOM     17  C   UNL     1     113.289 129.239 136.990  0.00  0.00    +0.000 A 
BRANCH  12  19
ATOM     18  C   UNL     1     114.395 130.740 136.592  0.00  0.00    +0.000 C 
ATOM     19  O   UNL     1     113.744 130.371 136.247  0.00  0.00    +0.000 OA
ENDBRANCH  12  19
ENDBRANCH   1  15
TORSDOF 2
ENDMDL
MODEL 9
REMARK VINA RESULT:      -7.3      0.868      4.125
REMARK  Name = null
REMARK  2 active torsions:
REMARK  status: ('A' for Active; 'I' for Inactive)
REMARK    1  A    between atoms: O_2  and  C_3
REMARK    2  A    between atoms: C_6  and  C_9
REMARK                            x       y       z     vdW  Elec       q    Type
REMARK                         _______ _______ _______ _____ _____    ______ ____
ROOT
ATOM      1  C   UNL     1     104.418 123.717 139.224  0.00  0.00    +0.000 A 
ATOM      2  C   UNL     1     104.295 123.250 139.894  0.00  0.00    +0.000 A 
ATOM      3  C   UNL     1     104.772 123.350 140.558  0.00  0.00    +0.000 A 
ATOM      4  O   UNL     1     104.650 122.883 141.228  0.00  0.00    +0.000 OA
ATOM      5  C   UNL     1     105.372 123.916 140.555  0.00  0.00    +0.000 A 
ATOM      6  C   UNL     1     105.849 124.016 141.220  0.00  0.00    +0.000 A 
ATOM      7  C   UNL     1     106.449 124.582 141.217  0.00  0.00    +0.000 A 
ATOM      8  C   UNL     1     106.571 125.050 140.547  0.00  0.00    +0.000 A 
ATOM      9  C   UNL     1     106.094 124.950 139.882  0.00  0.00    +0.000 A 
ATOM     10  C   UNL     1     105.494 124.383 139.885  0.00  0.00    +0.000 A 
ATOM     11  O   UNL     1     105.017 124.283 139.220  0.00  0.00    +0.000 OA
ENDROOT
BRANCH   1  15
ATOM     12  C   UNL     1     102.986 123.416 137.227  0.00  0.00    +0.000 A 
ATOM     13  C   UNL     1     102.659 123.698 137.931  0.00  0.00    +0.000 A 
ATOM     14  C   UNL     1     103.136 123.798 138.595  0.00  0.00    +0.000 A 
ATOM     15  C   UNL     1     103.940 123.617 138.558  0.00  0.00    +0.000 A 
ATOM     16  C   UNL     1     104.267 123.335 137.855  0.00  0.00    +0.000 A 
ATOM     17  C   UNL     1     103.789 123.234 137.189  0.00  0.00    +0.000 A 
BRANCH  12  19
ATOM     18  C   UNL     1     102.847 123.099 135.842  0.00  0.00    +0.000 C 
ATOM     19  O   UNL     1     102.509 123.315 136.562  0.00  0.00    +0.000 OA
ENDBRANCH  12  19
ENDBRANCH   1  15
TORSDOF 2
ENDMDL
MODEL 10
REMARK VINA RESULT:      -7.3      7.612      8.558
REMARK  Name = null
REMARK  2 active torsions:
REMARK  status: ('A' for Active; 'I' for Inactive)
REMARK    1  A    between atoms: O_2  and  C_3
REMARK    2  A    between atoms: C_6  and  C_9
REMARK                            x       y       z     vdW  Elec       q    Type
REMARK                         _______ _______ _______ _____ _____    ______ ____
ROOT
ATOM      1  C   UNL     1     104.807 124.510 146.873  0.00  0.00    +0.000 A 
ATOM      2  C   UNL     1     104.177 124.923 147.211  0.00  0.00    +0.000 A 
ATOM      3  C   UNL     1     103.401 124.687 147.060  0.00  0.00    +0.000 A 
ATOM      4  O   UNL     1     102.772 125.100 147.398  0.00  0.00    +0.000 OA
ATOM      5  C   UNL     1     103.255 124.039 146.573  0.00  0.00    +0.000 A 
ATOM      6  C   UNL     1     102.479 123.802 146.422  0.00  0.00    +0.000 A 
ATOM      7  C   UNL     1     102.332 123.154 145.934  0.00  0.00    +0.000 A 
ATOM      8  C   UNL     1     102.963 122.740 145.597  0.00  0.00    +0.000 A 
ATOM      9  C   UNL     1     103.738 122.976 145.747  0.00  0.00    +0.000 A 
ATOM     10  C   UNL     1     103.885 123.625 146.235  0.00  0.00    +0.000 A 
ATOM     11  O   UNL     1     104.660 123.861 146.386  0.00  0.00    +0.000 OA
ENDROOT
BRANCH   1  15
ATOM     12  C   UNL     1     107.135 125.220 147.325  0.00  0.00    +0.000 A 
ATOM     13  C   UNL     1     106.692 124.856 147.918  0.00  0.00    +0.000 A 
ATOM     14  C   UNL     1     105.917 124.620 147.768  0.00  0.00    +0.000 A 
ATOM     15  C   UNL     1     105.583 124.747 147.024  0.00  0.00    +0.000 A 
ATOM     16  C   UNL     1     106.025 125.110 146.431  0.00  0.00    +0.000 A 
ATOM     17  C   UNL     1     106.802 125.348 146.581  0.00  0.00    +0.000 A 
BRANCH  12  19
ATOM     18  C   UNL     1     108.404 124.986 147.936  0.00  0.00    +0.000 C 
ATOM     19  O   UNL     1     107.910 125.457 147.475  0.00  0.00    +0.000 OA
ENDBRANCH  12  19
ENDBRANCH   1  15
TORSDOF 2
ENDMDL
