MODEL 1
REMARK VINA RESULT:      -8.2      0.000      0.000
REMARK  Name = 11681403
REMARK  3 active torsions:
REMARK  status: ('A' for Active; 'I' for Inactive)
REMARK    1  A    between atoms: O_4  and  C_16
REMARK    2  A    between atoms: O_5  and  C_20
REMARK    3  A    between atoms: C_7  and  C_9
REMARK                            x       y       z     vdW  Elec       q    Type
REMARK                         _______ _______ _______ _____ _____    ______ ____
ROOT
ATOM      1  O   UNL     1     103.964 124.794 147.618  0.00  0.00    +0.000 OA
ATOM      2  O   UNL     1     103.434 123.591 145.521  0.00  0.00    +0.000 OA
ATOM      3  C   UNL     1     103.004 124.228 146.726  0.00  0.00    +0.000 A 
ATOM      4  C   UNL     1     104.573 124.559 147.113  0.00  0.00    +0.000 A 
ATOM      5  C   UNL     1     103.180 124.629 147.425  0.00  0.00    +0.000 A 
ATOM      6  C   UNL     1     103.611 123.992 146.220  0.00  0.00    +0.000 A 
ATOM      7  C   UNL     1     104.396 124.158 146.414  0.00  0.00    +0.000 A 
ATOM      8  C   UNL     1     102.190 124.050 146.513  0.00  0.00    +0.000 A 
ATOM      9  C   UNL     1     102.555 124.879 147.960  0.00  0.00    +0.000 A 
ATOM     10  C   UNL     1     101.736 124.710 147.764  0.00  0.00    +0.000 A 
ATOM     11  C   UNL     1     101.553 124.292 147.036  0.00  0.00    +0.000 A 
ENDROOT
BRANCH   4  14
ATOM     12  O   UNL     1     106.954 124.322 148.801  0.00  0.00    +0.000 OA
ATOM     13  O   UNL     1     107.676 125.118 148.021  0.00  0.00    +0.000 OA
ATOM     14  C   UNL     1     105.357 124.725 147.306  0.00  0.00    +0.000 A 
ATOM     15  C   UNL     1     106.478 124.562 148.178  0.00  0.00    +0.000 A 
ATOM     16  C   UNL     1     105.694 124.396 147.985  0.00  0.00    +0.000 A 
ATOM     17  C   UNL     1     106.927 125.056 147.693  0.00  0.00    +0.000 A 
ATOM     18  C   UNL     1     105.806 125.219 146.822  0.00  0.00    +0.000 A 
ATOM     19  C   UNL     1     106.591 125.385 147.015  0.00  0.00    +0.000 A 
ATOM     20  C   UNL     1     107.692 124.665 148.705  0.00  0.00    +0.000 C 
ENDBRANCH   4  14
BRANCH   8  21
ATOM     21  O   UNL     1     102.023 123.648 145.812  0.00  0.00    +0.000 OA
ATOM     22  C   UNL     1     101.270 123.334 145.686  0.00  0.00    +0.000 C 
ENDBRANCH   8  21
BRANCH  10  23
ATOM     23  O   UNL     1     101.130 124.946 148.271  0.00  0.00    +0.000 OA
ATOM     24  C   UNL     1     101.073 124.621 149.026  0.00  0.00    +0.000 C 
ENDBRANCH  10  23
TORSDOF 3
ENDMDL
MODEL 2
REMARK VINA RESULT:      -8.1      7.260      9.333
REMARK  Name = 11681403
REMARK  3 active torsions:
REMARK  status: ('A' for Active; 'I' for Inactive)
REMARK    1  A    between atoms: O_4  and  C_16
REMARK    2  A    between atoms: O_5  and  C_20
REMARK    3  A    between atoms: C_7  and  C_9
REMARK                            x       y       z     vdW  Elec       q    Type
REMARK                         _______ _______ _______ _____ _____    ______ ____
ROOT
ATOM      1  O   UNL     1     104.787 123.754 139.273  0.00  0.00    +0.000 OA
ATOM      2  O   UNL     1     104.517 126.131 139.906  0.00  0.00    +0.000 OA
ATOM      3  C   UNL     1     105.181 124.876 140.064  0.00  0.00    +0.000 A 
ATOM      4  C   UNL     1     104.212 124.216 138.903  0.00  0.00    +0.000 A 
ATOM      5  C   UNL     1     105.271 124.083 139.853  0.00  0.00    +0.000 A 
ATOM      6  C   UNL     1     104.607 125.339 139.695  0.00  0.00    +0.000 A 
ATOM      7  C   UNL     1     104.122 125.008 139.114  0.00  0.00    +0.000 A 
ATOM      8  C   UNL     1     105.679 125.231 140.668  0.00  0.00    +0.000 A 
ATOM      9  C   UNL     1     105.866 123.591 140.231  0.00  0.00    +0.000 A 
ATOM     10  C   UNL     1     106.373 123.929 140.837  0.00  0.00    +0.000 A 
ATOM     11  C   UNL     1     106.279 124.754 141.056  0.00  0.00    +0.000 A 
ENDROOT
BRANCH   4  14
ATOM     12  O   UNL     1     103.731 122.995 136.284  0.00  0.00    +0.000 OA
ATOM     13  O   UNL     1     102.425 122.883 136.495  0.00  0.00    +0.000 OA
ATOM     14  C   UNL     1     103.728 123.886 138.322  0.00  0.00    +0.000 A 
ATOM     15  C   UNL     1     103.570 123.297 137.030  0.00  0.00    +0.000 A 
ATOM     16  C   UNL     1     104.054 123.626 137.611  0.00  0.00    +0.000 A 
ATOM     17  C   UNL     1     102.759 123.227 137.161  0.00  0.00    +0.000 A 
ATOM     18  C   UNL     1     102.916 123.817 138.453  0.00  0.00    +0.000 A 
ATOM     19  C   UNL     1     102.431 123.487 137.872  0.00  0.00    +0.000 A 
ATOM     20  C   UNL     1     103.025 122.741 135.955  0.00  0.00    +0.000 C 
ENDBRANCH   4  14
BRANCH   8  21
ATOM     21  O   UNL     1     105.582 126.024 140.872  0.00  0.00    +0.000 OA
ATOM     22  C   UNL     1     105.818 126.290 141.617  0.00  0.00    +0.000 C 
ENDBRANCH   8  21
BRANCH  10  23
ATOM     23  O   UNL     1     106.946 123.464 141.205  0.00  0.00    +0.000 OA
ATOM     24  C   UNL     1     107.738 123.532 140.983  0.00  0.00    +0.000 C 
ENDBRANCH  10  23
TORSDOF 3
ENDMDL
MODEL 3
REMARK VINA RESULT:      -8.1     13.466     14.376
REMARK  Name = 11681403
REMARK  3 active torsions:
REMARK  status: ('A' for Active; 'I' for Inactive)
REMARK    1  A    between atoms: O_4  and  C_16
REMARK    2  A    between atoms: O_5  and  C_20
REMARK    3  A    between atoms: C_7  and  C_9
REMARK                            x       y       z     vdW  Elec       q    Type
REMARK                         _______ _______ _______ _____ _____    ______ ____
ROOT
ATOM      1  O   UNL     1     112.281 127.266 136.019  0.00  0.00    +0.000 OA
ATOM      2  O   UNL     1     113.517 125.394 137.064  0.00  0.00    +0.000 OA
ATOM      3  C   UNL     1     112.363 125.887 136.380  0.00  0.00    +0.000 A 
ATOM      4  C   UNL     1     113.023 127.399 136.354  0.00  0.00    +0.000 A 
ATOM      5  C   UNL     1     111.951 126.511 136.031  0.00  0.00    +0.000 A 
ATOM      6  C   UNL     1     113.105 126.018 136.716  0.00  0.00    +0.000 A 
ATOM      7  C   UNL     1     113.435 126.775 136.703  0.00  0.00    +0.000 A 
ATOM      8  C   UNL     1     112.030 125.095 136.399  0.00  0.00    +0.000 A 
ATOM      9  C   UNL     1     111.177 126.386 135.678  0.00  0.00    +0.000 A 
ATOM     10  C   UNL     1     110.829 125.601 135.688  0.00  0.00    +0.000 A 
ATOM     11  C   UNL     1     111.258 124.951 136.051  0.00  0.00    +0.000 A 
ENDROOT
BRANCH   4  14
ATOM     12  O   UNL     1     113.477 130.071 137.463  0.00  0.00    +0.000 OA
ATOM     13  O   UNL     1     114.258 130.437 136.453  0.00  0.00    +0.000 OA
ATOM     14  C   UNL     1     113.353 128.154 136.342  0.00  0.00    +0.000 A 
ATOM     15  C   UNL     1     113.529 129.438 136.943  0.00  0.00    +0.000 A 
ATOM     16  C   UNL     1     113.199 128.683 136.956  0.00  0.00    +0.000 A 
ATOM     17  C   UNL     1     114.014 129.666 136.316  0.00  0.00    +0.000 A 
ATOM     18  C   UNL     1     113.838 128.382 135.714  0.00  0.00    +0.000 A 
ATOM     19  C   UNL     1     114.169 129.138 135.701  0.00  0.00    +0.000 A 
ATOM     20  C   UNL     1     113.926 130.687 137.161  0.00  0.00    +0.000 C 
ENDBRANCH   4  14
BRANCH   8  21
ATOM     21  O   UNL     1     112.449 124.477 136.750  0.00  0.00    +0.000 OA
ATOM     22  C   UNL     1     112.131 123.715 136.759  0.00  0.00    +0.000 C 
ENDBRANCH   8  21
BRANCH  10  23
ATOM     23  O   UNL     1     110.087 125.472 135.352  0.00  0.00    +0.000 OA
ATOM     24  C   UNL     1     109.891 125.827 134.634  0.00  0.00    +0.000 C 
ENDBRANCH  10  23
TORSDOF 3
ENDMDL
MODEL 4
REMARK VINA RESULT:      -8.1      1.264      4.793
REMARK  Name = 11681403
REMARK  3 active torsions:
REMARK  status: ('A' for Active; 'I' for Inactive)
REMARK    1  A    between atoms: O_4  and  C_16
REMARK    2  A    between atoms: O_5  and  C_20
REMARK    3  A    between atoms: C_7  and  C_9
REMARK                            x       y       z     vdW  Elec       q    Type
REMARK                         _______ _______ _______ _____ _____    ______ ____
ROOT
ATOM      1  O   UNL     1     104.268 124.729 146.053  0.00  0.00    +0.000 OA
ATOM      2  O   UNL     1     105.478 124.346 148.178  0.00  0.00    +0.000 OA
ATOM      3  C   UNL     1     105.466 124.811 146.826  0.00  0.00    +0.000 A 
ATOM      4  C   UNL     1     103.875 124.392 146.695  0.00  0.00    +0.000 A 
ATOM      5  C   UNL     1     105.063 124.939 146.118  0.00  0.00    +0.000 A 
ATOM      6  C   UNL     1     105.075 124.474 147.469  0.00  0.00    +0.000 A 
ATOM      7  C   UNL     1     104.279 124.264 147.404  0.00  0.00    +0.000 A 
ATOM      8  C   UNL     1     106.295 125.025 146.907  0.00  0.00    +0.000 A 
ATOM      9  C   UNL     1     105.461 125.289 145.441  0.00  0.00    +0.000 A 
ATOM     10  C   UNL     1     106.289 125.510 145.504  0.00  0.00    +0.000 A 
ATOM     11  C   UNL     1     106.708 125.376 146.241  0.00  0.00    +0.000 A 
ENDROOT
BRANCH   4  14
ATOM     12  O   UNL     1     101.682 122.751 145.660  0.00  0.00    +0.000 OA
ATOM     13  O   UNL     1     100.759 123.433 146.328  0.00  0.00    +0.000 OA
ATOM     14  C   UNL     1     103.081 124.183 146.630  0.00  0.00    +0.000 A 
ATOM     15  C   UNL     1     102.064 123.340 146.084  0.00  0.00    +0.000 A 
ATOM     16  C   UNL     1     102.858 123.550 146.150  0.00  0.00    +0.000 A 
ATOM     17  C   UNL     1     101.490 123.764 146.499  0.00  0.00    +0.000 A 
ATOM     18  C   UNL     1     102.507 124.606 147.045  0.00  0.00    +0.000 A 
ATOM     19  C   UNL     1     101.711 124.397 146.980  0.00  0.00    +0.000 A 
ATOM     20  C   UNL     1     100.878 122.809 145.810  0.00  0.00    +0.000 C 
ENDBRANCH   4  14
BRANCH   8  21
ATOM     21  O   UNL     1     106.690 124.893 147.619  0.00  0.00    +0.000 OA
ATOM     22  C   UNL     1     107.435 125.224 147.745  0.00  0.00    +0.000 C 
ENDBRANCH   8  21
BRANCH  10  23
ATOM     23  O   UNL     1     106.678 125.847 144.859  0.00  0.00    +0.000 OA
ATOM     24  C   UNL     1     106.340 126.483 144.459  0.00  0.00    +0.000 C 
ENDBRANCH  10  23
TORSDOF 3
ENDMDL
MODEL 5
REMARK VINA RESULT:      -8.1      1.092      4.578
REMARK  Name = 11681403
REMARK  3 active torsions:
REMARK  status: ('A' for Active; 'I' for Inactive)
REMARK    1  A    between atoms: O_4  and  C_16
REMARK    2  A    between atoms: O_5  and  C_20
REMARK    3  A    between atoms: C_7  and  C_9
REMARK                            x       y       z     vdW  Elec       q    Type
REMARK                         _______ _______ _______ _____ _____    ______ ____
ROOT
ATOM      1  O   UNL     1     104.947 124.313 147.347  0.00  0.00    +0.000 OA
ATOM      2  O   UNL     1     106.066 125.702 145.632  0.00  0.00    +0.000 OA
ATOM      3  C   UNL     1     106.037 125.146 146.948  0.00  0.00    +0.000 A 
ATOM      4  C   UNL     1     104.603 124.406 146.603  0.00  0.00    +0.000 A 
ATOM      5  C   UNL     1     105.664 124.683 147.519  0.00  0.00    +0.000 A 
ATOM      6  C   UNL     1     105.693 125.239 146.203  0.00  0.00    +0.000 A 
ATOM      7  C   UNL     1     104.976 124.869 146.031  0.00  0.00    +0.000 A 
ATOM      8  C   UNL     1     106.784 125.536 147.115  0.00  0.00    +0.000 A 
ATOM      9  C   UNL     1     106.012 124.578 148.298  0.00  0.00    +0.000 A 
ATOM     10  C   UNL     1     106.758 124.961 148.483  0.00  0.00    +0.000 A 
ATOM     11  C   UNL     1     107.147 125.443 147.888  0.00  0.00    +0.000 A 
ENDROOT
BRANCH   4  14
ATOM     12  O   UNL     1     101.682 124.203 146.679  0.00  0.00    +0.000 OA
ATOM     13  O   UNL     1     101.670 123.063 145.999  0.00  0.00    +0.000 OA
ATOM     14  C   UNL     1     103.886 124.036 146.431  0.00  0.00    +0.000 A 
ATOM     15  C   UNL     1     102.460 124.005 146.508  0.00  0.00    +0.000 A 
ATOM     16  C   UNL     1     103.176 124.374 146.681  0.00  0.00    +0.000 A 
ATOM     17  C   UNL     1     102.452 123.297 146.085  0.00  0.00    +0.000 A 
ATOM     18  C   UNL     1     103.879 123.328 146.008  0.00  0.00    +0.000 A 
ATOM     19  C   UNL     1     103.161 122.958 145.835  0.00  0.00    +0.000 A 
ATOM     20  C   UNL     1     101.196 123.622 146.365  0.00  0.00    +0.000 C 
ENDBRANCH   4  14
BRANCH   8  21
ATOM     21  O   UNL     1     107.150 125.997 146.537  0.00  0.00    +0.000 OA
ATOM     22  C   UNL     1     107.514 126.708 146.746  0.00  0.00    +0.000 C 
ENDBRANCH   8  21
BRANCH  10  23
ATOM     23  O   UNL     1     107.100 124.866 149.228  0.00  0.00    +0.000 OA
ATOM     24  C   UNL     1     107.581 124.214 149.382  0.00  0.00    +0.000 C 
ENDBRANCH  10  23
TORSDOF 3
ENDMDL
MODEL 6
REMARK VINA RESULT:      -7.9     13.494     15.275
REMARK  Name = 11681403
REMARK  3 active torsions:
REMARK  status: ('A' for Active; 'I' for Inactive)
REMARK    1  A    between atoms: O_4  and  C_16
REMARK    2  A    between atoms: O_5  and  C_20
REMARK    3  A    between atoms: C_7  and  C_9
REMARK                            x       y       z     vdW  Elec       q    Type
REMARK                         _______ _______ _______ _____ _____    ______ ____
ROOT
ATOM      1  O   UNL     1     113.960 127.515 136.288  0.00  0.00    +0.000 OA
ATOM      2  O   UNL     1     111.509 127.322 135.998  0.00  0.00    +0.000 OA
ATOM      3  C   UNL     1     112.774 126.718 136.275  0.00  0.00    +0.000 A 
ATOM      4  C   UNL     1     113.512 128.184 136.107  0.00  0.00    +0.000 A 
ATOM      5  C   UNL     1     113.591 126.782 136.372  0.00  0.00    +0.000 A 
ATOM      6  C   UNL     1     112.326 127.386 136.094  0.00  0.00    +0.000 A 
ATOM      7  C   UNL     1     112.695 128.120 136.010  0.00  0.00    +0.000 A 
ATOM      8  C   UNL     1     112.378 125.960 136.360  0.00  0.00    +0.000 A 
ATOM      9  C   UNL     1     114.069 126.093 136.560  0.00  0.00    +0.000 A 
ATOM     10  C   UNL     1     113.690 125.327 136.649  0.00  0.00    +0.000 A 
ATOM     11  C   UNL     1     112.840 125.260 136.549  0.00  0.00    +0.000 A 
ENDROOT
BRANCH   4  14
ATOM     12  O   UNL     1     115.167 130.127 134.670  0.00  0.00    +0.000 OA
ATOM     13  O   UNL     1     115.040 131.047 135.620  0.00  0.00    +0.000 OA
ATOM     14  C   UNL     1     113.881 128.917 136.022  0.00  0.00    +0.000 A 
ATOM     15  C   UNL     1     114.697 129.812 135.264  0.00  0.00    +0.000 A 
ATOM     16  C   UNL     1     114.328 129.079 135.349  0.00  0.00    +0.000 A 
ATOM     17  C   UNL     1     114.618 130.383 135.854  0.00  0.00    +0.000 A 
ATOM     18  C   UNL     1     113.802 129.488 136.612  0.00  0.00    +0.000 A 
ATOM     19  C   UNL     1     114.171 130.222 136.528  0.00  0.00    +0.000 A 
ATOM     20  C   UNL     1     115.378 130.888 134.890  0.00  0.00    +0.000 C 
ENDBRANCH   4  14
BRANCH   8  21
ATOM     21  O   UNL     1     111.561 125.905 136.262  0.00  0.00    +0.000 OA
ATOM     22  C   UNL     1     111.206 125.167 136.164  0.00  0.00    +0.000 C 
ENDBRANCH   8  21
BRANCH  10  23
ATOM     23  O   UNL     1     114.140 124.660 136.830  0.00  0.00    +0.000 OA
ATOM     24  C   UNL     1     114.653 124.670 137.476  0.00  0.00    +0.000 C 
ENDBRANCH  10  23
TORSDOF 3
ENDMDL
MODEL 7
REMARK VINA RESULT:      -7.8     13.753     15.131
REMARK  Name = 11681403
REMARK  3 active torsions:
REMARK  status: ('A' for Active; 'I' for Inactive)
REMARK    1  A    between atoms: O_4  and  C_16
REMARK    2  A    between atoms: O_5  and  C_20
REMARK    3  A    between atoms: C_7  and  C_9
REMARK                            x       y       z     vdW  Elec       q    Type
REMARK                         _______ _______ _______ _____ _____    ______ ____
ROOT
ATOM      1  O   UNL     1     113.742 127.516 136.086  0.00  0.00    +0.000 OA
ATOM      2  O   UNL     1     112.841 128.791 138.006  0.00  0.00    +0.000 OA
ATOM      3  C   UNL     1     113.455 128.765 136.716  0.00  0.00    +0.000 A 
ATOM      4  C   UNL     1     113.428 127.116 136.736  0.00  0.00    +0.000 A 
ATOM      5  C   UNL     1     113.755 128.340 136.076  0.00  0.00    +0.000 A 
ATOM      6  C   UNL     1     113.141 128.366 137.366  0.00  0.00    +0.000 A 
ATOM      7  C   UNL     1     113.128 127.541 137.376  0.00  0.00    +0.000 A 
ATOM      8  C   UNL     1     113.463 129.625 136.717  0.00  0.00    +0.000 A 
ATOM      9  C   UNL     1     114.084 128.745 135.392  0.00  0.00    +0.000 A 
ATOM     10  C   UNL     1     114.101 129.604 135.376  0.00  0.00    +0.000 A 
ATOM     11  C   UNL     1     113.788 130.047 136.043  0.00  0.00    +0.000 A 
ENDROOT
BRANCH   4  14
ATOM     12  O   UNL     1     112.119 124.519 136.394  0.00  0.00    +0.000 OA
ATOM     13  O   UNL     1     113.211 123.841 136.728  0.00  0.00    +0.000 OA
ATOM     14  C   UNL     1     113.415 126.291 136.746  0.00  0.00    +0.000 A 
ATOM     15  C   UNL     1     112.710 125.062 136.559  0.00  0.00    +0.000 A 
ATOM     16  C   UNL     1     112.724 125.887 136.549  0.00  0.00    +0.000 A 
ATOM     17  C   UNL     1     113.389 124.642 136.766  0.00  0.00    +0.000 A 
ATOM     18  C   UNL     1     114.094 125.871 136.953  0.00  0.00    +0.000 A 
ATOM     19  C   UNL     1     114.081 125.045 136.963  0.00  0.00    +0.000 A 
ATOM     20  C   UNL     1     112.428 123.766 136.498  0.00  0.00    +0.000 C 
ENDBRANCH   4  14
BRANCH   8  21
ATOM     21  O   UNL     1     113.160 130.041 137.362  0.00  0.00    +0.000 OA
ATOM     22  C   UNL     1     113.064 130.860 137.315  0.00  0.00    +0.000 C 
ENDBRANCH   8  21
BRANCH  10  23
ATOM     23  O   UNL     1     114.415 130.001 134.725  0.00  0.00    +0.000 OA
ATOM     24  C   UNL     1     115.231 130.029 134.612  0.00  0.00    +0.000 C 
ENDBRANCH  10  23
TORSDOF 3
ENDMDL
MODEL 8
REMARK VINA RESULT:      -7.8      0.777      1.836
REMARK  Name = 11681403
REMARK  3 active torsions:
REMARK  status: ('A' for Active; 'I' for Inactive)
REMARK    1  A    between atoms: O_4  and  C_16
REMARK    2  A    between atoms: O_5  and  C_20
REMARK    3  A    between atoms: C_7  and  C_9
REMARK                            x       y       z     vdW  Elec       q    Type
REMARK                         _______ _______ _______ _____ _____    ______ ____
ROOT
ATOM      1  O   UNL     1     104.629 124.264 146.897  0.00  0.00    +0.000 OA
ATOM      2  O   UNL     1     103.150 125.830 148.116  0.00  0.00    +0.000 OA
ATOM      3  C   UNL     1     103.319 124.676 147.290  0.00  0.00    +0.000 A 
ATOM      4  C   UNL     1     104.954 124.896 147.317  0.00  0.00    +0.000 A 
ATOM      5  C   UNL     1     103.812 124.154 146.884  0.00  0.00    +0.000 A 
ATOM      6  C   UNL     1     103.643 125.308 147.710  0.00  0.00    +0.000 A 
ATOM      7  C   UNL     1     104.461 125.418 147.723  0.00  0.00    +0.000 A 
ATOM      8  C   UNL     1     102.466 124.572 147.284  0.00  0.00    +0.000 A 
ATOM      9  C   UNL     1     103.486 123.492 146.443  0.00  0.00    +0.000 A 
ATOM     10  C   UNL     1     102.636 123.373 146.425  0.00  0.00    +0.000 A 
ATOM     11  C   UNL     1     102.122 123.916 146.848  0.00  0.00    +0.000 A 
ENDROOT
BRANCH   4  14
ATOM     12  O   UNL     1     107.607 124.629 148.528  0.00  0.00    +0.000 OA
ATOM     13  O   UNL     1     108.210 125.253 147.522  0.00  0.00    +0.000 OA
ATOM     14  C   UNL     1     105.771 125.006 147.330  0.00  0.00    +0.000 A 
ATOM     15  C   UNL     1     107.032 124.838 147.982  0.00  0.00    +0.000 A 
ATOM     16  C   UNL     1     106.215 124.728 147.968  0.00  0.00    +0.000 A 
ATOM     17  C   UNL     1     107.406 125.227 147.357  0.00  0.00    +0.000 A 
ATOM     18  C   UNL     1     106.145 125.394 146.706  0.00  0.00    +0.000 A 
ATOM     19  C   UNL     1     106.964 125.505 146.719  0.00  0.00    +0.000 A 
ATOM     20  C   UNL     1     108.333 124.885 148.244  0.00  0.00    +0.000 C 
ENDBRANCH   4  14
BRANCH   8  21
ATOM     21  O   UNL     1     101.981 125.099 147.693  0.00  0.00    +0.000 OA
ATOM     22  C   UNL     1     101.256 124.843 147.995  0.00  0.00    +0.000 C 
ENDBRANCH   8  21
BRANCH  10  23
ATOM     23  O   UNL     1     102.314 122.740 146.004  0.00  0.00    +0.000 OA
ATOM     24  C   UNL     1     102.236 122.786 145.185  0.00  0.00    +0.000 C 
ENDBRANCH  10  23
TORSDOF 3
ENDMDL
MODEL 9
REMARK VINA RESULT:      -7.8      8.096      9.090
REMARK  Name = 11681403
REMARK  3 active torsions:
REMARK  status: ('A' for Active; 'I' for Inactive)
REMARK    1  A    between atoms: O_4  and  C_16
REMARK    2  A    between atoms: O_5  and  C_20
REMARK    3  A    between atoms: C_7  and  C_9
REMARK                            x       y       z     vdW  Elec       q    Type
REMARK                         _______ _______ _______ _____ _____    ______ ____
ROOT
ATOM      1  O   UNL     1     103.001 130.608 142.476  0.00  0.00    +0.000 OA
ATOM      2  O   UNL     1     103.164 129.264 140.403  0.00  0.00    +0.000 OA
ATOM      3  C   UNL     1     103.553 129.503 141.758  0.00  0.00    +0.000 A 
ATOM      4  C   UNL     1     102.557 130.818 141.812  0.00  0.00    +0.000 A 
ATOM      5  C   UNL     1     103.498 129.951 142.448  0.00  0.00    +0.000 A 
ATOM      6  C   UNL     1     103.110 129.712 141.094  0.00  0.00    +0.000 A 
ATOM      7  C   UNL     1     102.612 130.370 141.121  0.00  0.00    +0.000 A 
ATOM      8  C   UNL     1     104.068 128.816 141.717  0.00  0.00    +0.000 A 
ATOM      9  C   UNL     1     103.955 129.742 143.146  0.00  0.00    +0.000 A 
ATOM     10  C   UNL     1     104.475 129.059 143.124  0.00  0.00    +0.000 A 
ATOM     11  C   UNL     1     104.532 128.593 142.405  0.00  0.00    +0.000 A 
ENDROOT
BRANCH   4  14
ATOM     12  O   UNL     1     101.981 133.673 141.513  0.00  0.00    +0.000 OA
ATOM     13  O   UNL     1     100.710 133.529 141.870  0.00  0.00    +0.000 OA
ATOM     14  C   UNL     1     102.060 131.475 141.839  0.00  0.00    +0.000 A 
ATOM     15  C   UNL     1     101.854 132.879 141.672  0.00  0.00    +0.000 A 
ATOM     16  C   UNL     1     102.351 132.222 141.645  0.00  0.00    +0.000 A 
ATOM     17  C   UNL     1     101.064 132.789 141.894  0.00  0.00    +0.000 A 
ATOM     18  C   UNL     1     101.270 131.385 142.061  0.00  0.00    +0.000 A 
ATOM     19  C   UNL     1     100.772 132.043 142.088  0.00  0.00    +0.000 A 
ATOM     20  C   UNL     1     101.276 134.074 141.635  0.00  0.00    +0.000 C 
ENDBRANCH   4  14
BRANCH   8  21
ATOM     21  O   UNL     1     104.116 128.374 141.022  0.00  0.00    +0.000 OA
ATOM     22  C   UNL     1     104.482 127.634 141.028  0.00  0.00    +0.000 C 
ENDBRANCH   8  21
BRANCH  10  23
ATOM     23  O   UNL     1     104.917 128.851 143.789  0.00  0.00    +0.000 OA
ATOM     24  C   UNL     1     105.546 129.326 144.031  0.00  0.00    +0.000 C 
ENDBRANCH  10  23
TORSDOF 3
ENDMDL
MODEL 10
REMARK VINA RESULT:      -7.8      9.397     10.082
REMARK  Name = 11681403
REMARK  3 active torsions:
REMARK  status: ('A' for Active; 'I' for Inactive)
REMARK    1  A    between atoms: O_4  and  C_16
REMARK    2  A    between atoms: O_5  and  C_20
REMARK    3  A    between atoms: C_7  and  C_9
REMARK                            x       y       z     vdW  Elec       q    Type
REMARK                         _______ _______ _______ _____ _____    ______ ____
ROOT
ATOM      1  O   UNL     1     102.699 132.046 141.146  0.00  0.00    +0.000 OA
ATOM      2  O   UNL     1     100.718 132.227 142.618  0.00  0.00    +0.000 OA
ATOM      3  C   UNL     1     101.751 132.849 141.850  0.00  0.00    +0.000 A 
ATOM      4  C   UNL     1     102.328 131.363 141.423  0.00  0.00    +0.000 A 
ATOM      5  C   UNL     1     102.411 132.788 141.360  0.00  0.00    +0.000 A 
ATOM      6  C   UNL     1     101.378 132.167 142.128  0.00  0.00    +0.000 A 
ATOM      7  C   UNL     1     101.667 131.424 141.913  0.00  0.00    +0.000 A 
ATOM      8  C   UNL     1     101.441 133.617 142.080  0.00  0.00    +0.000 A 
ATOM      9  C   UNL     1     102.807 133.492 141.065  0.00  0.00    +0.000 A 
ATOM     10  C   UNL     1     102.512 134.268 141.284  0.00  0.00    +0.000 A 
ATOM     11  C   UNL     1     101.824 134.331 141.795  0.00  0.00    +0.000 A 
ENDROOT
BRANCH   4  14
ATOM     12  O   UNL     1     104.067 129.034 141.778  0.00  0.00    +0.000 OA
ATOM     13  O   UNL     1     103.581 128.416 140.708  0.00  0.00    +0.000 OA
ATOM     14  C   UNL     1     102.616 130.621 141.209  0.00  0.00    +0.000 A 
ATOM     15  C   UNL     1     103.495 129.519 141.446  0.00  0.00    +0.000 A 
ATOM     16  C   UNL     1     103.207 130.262 141.660  0.00  0.00    +0.000 A 
ATOM     17  C   UNL     1     103.193 129.135 140.782  0.00  0.00    +0.000 A 
ATOM     18  C   UNL     1     102.314 130.237 140.545  0.00  0.00    +0.000 A 
ATOM     19  C   UNL     1     102.602 129.493 140.331  0.00  0.00    +0.000 A 
ATOM     20  C   UNL     1     104.120 128.354 141.323  0.00  0.00    +0.000 C 
ENDBRANCH   4  14
BRANCH   8  21
ATOM     21  O   UNL     1     100.780 133.668 142.571  0.00  0.00    +0.000 OA
ATOM     22  C   UNL     1     100.710 134.292 143.106  0.00  0.00    +0.000 C 
ENDBRANCH   8  21
BRANCH  10  23
ATOM     23  O   UNL     1     102.885 134.949 141.006  0.00  0.00    +0.000 OA
ATOM     24  C   UNL     1     102.695 135.250 140.262  0.00  0.00    +0.000 C 
ENDBRANCH  10  23
TORSDOF 3
ENDMDL
