MODEL 1
REMARK VINA RESULT:     -10.7      0.000      0.000
REMARK  Name = 42607894
REMARK  9 active torsions:
REMARK  status: ('A' for Active; 'I' for Inactive)
REMARK    1  A    between atoms: O_3  and  C_22
REMARK    2  A    between atoms: O_3  and  C_28
REMARK    3  A    between atoms: O_7  and  C_25
REMARK    4  A    between atoms: O_7  and  C_35
REMARK    5  A    between atoms: C_19  and  C_26
REMARK    6  A    between atoms: C_24  and  C_27
REMARK    7  A    between atoms: C_29  and  C_34
REMARK    8  A    between atoms: C_30  and  C_38
REMARK    9  A    between atoms: C_38  and  C_44
REMARK                            x       y       z     vdW  Elec       q    Type
REMARK                         _______ _______ _______ _____ _____    ______ ____
ROOT
ATOM      1  O   UNL     1     110.467 128.282 136.084  0.00  0.00    +0.000 OA
ATOM      2  O   UNL     1     108.177 130.037 135.844  0.00  0.00    +0.000 OA
ATOM      3  O   UNL     1     107.979 128.610 135.740  0.00  0.00    +0.000 OA
ATOM      4  C   UNL     1     110.287 130.484 136.174  0.00  0.00    +0.000 A 
ATOM      5  C   UNL     1     109.962 127.595 135.975  0.00  0.00    +0.000 C 
ATOM      6  C   UNL     1     110.609 129.724 136.181  0.00  0.00    +0.000 A 
ATOM      7  C   UNL     1     110.120 129.068 136.075  0.00  0.00    +0.000 A 
ATOM      8  C   UNL     1     109.118 127.703 135.858  0.00  0.00    +0.000 C 
ATOM      9  C   UNL     1     109.309 129.173 135.963  0.00  0.00    +0.000 A 
ATOM     10  C   UNL     1     109.477 130.588 136.062  0.00  0.00    +0.000 A 
ATOM     11  C   UNL     1     108.789 128.497 135.852  0.00  0.00    +0.000 C 
ATOM     12  C   UNL     1     108.988 129.932 135.956  0.00  0.00    +0.000 A 
ENDROOT
BRANCH   5  13
ATOM     13  C   UNL     1     110.286 126.837 135.982  0.00  0.00    +0.000 A 
ATOM     14  C   UNL     1     110.934 125.319 135.996  0.00  0.00    +0.000 A 
ATOM     15  C   UNL     1     110.348 126.421 136.692  0.00  0.00    +0.000 A 
ATOM     16  C   UNL     1     110.549 126.494 135.279  0.00  0.00    +0.000 A 
ATOM     17  C   UNL     1     110.672 125.662 136.699  0.00  0.00    +0.000 A 
ATOM     18  C   UNL     1     110.873 125.735 135.286  0.00  0.00    +0.000 A 
BRANCH  14  19
ATOM     19  O   UNL     1     111.258 124.561 136.002  0.00  0.00    +0.000 OA
BRANCH  19  28
ATOM     20  O   UNL     1     112.617 124.976 136.161  0.00  0.00    +0.000 OA
ATOM     21  O   UNL     1     113.063 122.987 137.563  0.00  0.00    +0.000 OA
ATOM     22  O   UNL     1     114.272 124.066 137.253  0.00  0.00    +0.000 OA
ATOM     23  O   UNL     1     111.556 123.234 136.938  0.00  0.00    +0.000 OA
ATOM     24  C   UNL     1     112.914 123.650 137.095  0.00  0.00    +0.000 C 
ATOM     25  C   UNL     1     113.519 124.190 136.940  0.00  0.00    +0.000 C 
ATOM     26  C   UNL     1     112.161 123.773 136.783  0.00  0.00    +0.000 C 
ATOM     27  C   UNL     1     113.370 124.853 136.473  0.00  0.00    +0.000 C 
ATOM     28  C   UNL     1     112.012 124.437 136.315  0.00  0.00    +0.000 C 
BRANCH  27  30
ATOM     29  O   UNL     1     113.949 126.147 136.650  0.00  0.00    +0.000 OA
ATOM     30  C   UNL     1     113.975 125.392 136.318  0.00  0.00    +0.000 C 
ENDBRANCH  27  30
ENDBRANCH  19  28
ENDBRANCH  14  19
ENDBRANCH   5  13
BRANCH   4  31
ATOM     31  O   UNL     1     110.777 131.140 136.280  0.00  0.00    +0.000 OA
BRANCH  31  40
ATOM     32  O   UNL     1     110.449 131.465 137.632  0.00  0.00    +0.000 OA
ATOM     33  O   UNL     1     110.339 133.863 137.030  0.00  0.00    +0.000 OA
ATOM     34  O   UNL     1     110.048 133.388 138.583  0.00  0.00    +0.000 OA
ATOM     35  O   UNL     1     110.704 132.739 135.878  0.00  0.00    +0.000 OA
ATOM     36  C   UNL     1     110.376 133.064 137.231  0.00  0.00    +0.000 C 
ATOM     37  C   UNL     1     110.230 132.826 138.007  0.00  0.00    +0.000 C 
ATOM     38  C   UNL     1     110.558 132.501 136.655  0.00  0.00    +0.000 C 
ATOM     39  C   UNL     1     110.267 132.026 138.208  0.00  0.00    +0.000 C 
ATOM     40  C   UNL     1     110.595 131.702 136.855  0.00  0.00    +0.000 C 
BRANCH  39  42
ATOM     41  O   UNL     1     110.677 131.333 139.388  0.00  0.00    +0.000 OA
ATOM     42  C   UNL     1     110.121 131.789 138.984  0.00  0.00    +0.000 C 
ENDBRANCH  39  42
ENDBRANCH  31  40
ENDBRANCH   4  31
BRANCH   6  43
ATOM     43  C   UNL     1     111.420 129.621 136.293  0.00  0.00    +0.000 C 
BRANCH  43  44
ATOM     44  C   UNL     1     111.928 129.602 135.644  0.00  0.00    +0.000 C 
ATOM     45  C   UNL     1     112.736 129.478 135.756  0.00  0.00    +0.000 C 
ATOM     46  C   UNL     1     113.244 129.460 135.106  0.00  0.00    +0.000 C 
ATOM     47  C   UNL     1     113.036 129.373 136.516  0.00  0.00    +0.000 C 
ENDBRANCH  43  44
ENDBRANCH   6  43
TORSDOF 9
ENDMDL
MODEL 2
REMARK VINA RESULT:      -9.9      8.024     11.715
REMARK  Name = 42607894
REMARK  9 active torsions:
REMARK  status: ('A' for Active; 'I' for Inactive)
REMARK    1  A    between atoms: O_3  and  C_22
REMARK    2  A    between atoms: O_3  and  C_28
REMARK    3  A    between atoms: O_7  and  C_25
REMARK    4  A    between atoms: O_7  and  C_35
REMARK    5  A    between atoms: C_19  and  C_26
REMARK    6  A    between atoms: C_24  and  C_27
REMARK    7  A    between atoms: C_29  and  C_34
REMARK    8  A    between atoms: C_30  and  C_38
REMARK    9  A    between atoms: C_38  and  C_44
REMARK                            x       y       z     vdW  Elec       q    Type
REMARK                         _______ _______ _______ _____ _____    ______ ____
ROOT
ATOM      1  O   UNL     1     103.478 130.339 142.120  0.00  0.00    +0.000 OA
ATOM      2  O   UNL     1     103.980 127.833 140.761  0.00  0.00    +0.000 OA
ATOM      3  O   UNL     1     103.049 128.770 140.179  0.00  0.00    +0.000 OA
ATOM      4  C   UNL     1     104.793 128.633 142.622  0.00  0.00    +0.000 A 
ATOM      5  C   UNL     1     102.926 130.572 141.504  0.00  0.00    +0.000 C 
ATOM      6  C   UNL     1     104.405 129.361 142.662  0.00  0.00    +0.000 A 
ATOM      7  C   UNL     1     103.875 129.579 142.067  0.00  0.00    +0.000 A 
ATOM      8  C   UNL     1     102.778 130.041 140.844  0.00  0.00    +0.000 C 
ATOM      9  C   UNL     1     103.734 129.069 141.434  0.00  0.00    +0.000 A 
ATOM     10  C   UNL     1     104.651 128.125 141.989  0.00  0.00    +0.000 A 
ATOM     11  C   UNL     1     103.184 129.285 140.809  0.00  0.00    +0.000 C 
ATOM     12  C   UNL     1     104.121 128.343 141.395  0.00  0.00    +0.000 A 
ENDROOT
BRANCH   5  13
ATOM     13  C   UNL     1     102.539 131.299 141.546  0.00  0.00    +0.000 A 
ATOM     14  C   UNL     1     101.767 132.755 141.630  0.00  0.00    +0.000 A 
ATOM     15  C   UNL     1     101.777 131.344 141.858  0.00  0.00    +0.000 A 
ATOM     16  C   UNL     1     102.916 131.982 141.277  0.00  0.00    +0.000 A 
ATOM     17  C   UNL     1     101.391 132.072 141.900  0.00  0.00    +0.000 A 
ATOM     18  C   UNL     1     102.529 132.710 141.319  0.00  0.00    +0.000 A 
BRANCH  14  19
ATOM     19  O   UNL     1     101.382 133.483 141.672  0.00  0.00    +0.000 OA
BRANCH  19  28
ATOM     20  O   UNL     1     101.690 133.804 143.030  0.00  0.00    +0.000 OA
ATOM     21  O   UNL     1     102.100 136.157 142.383  0.00  0.00    +0.000 OA
ATOM     22  O   UNL     1     102.271 135.692 143.956  0.00  0.00    +0.000 OA
ATOM     23  O   UNL     1     101.655 135.053 141.240  0.00  0.00    +0.000 OA
ATOM     24  C   UNL     1     101.963 135.372 142.598  0.00  0.00    +0.000 C 
ATOM     25  C   UNL     1     102.049 135.140 143.385  0.00  0.00    +0.000 C 
ATOM     26  C   UNL     1     101.741 134.820 142.027  0.00  0.00    +0.000 C 
ATOM     27  C   UNL     1     101.912 134.356 143.601  0.00  0.00    +0.000 C 
ATOM     28  C   UNL     1     101.604 134.036 142.242  0.00  0.00    +0.000 C 
BRANCH  27  30
ATOM     29  O   UNL     1     101.391 133.709 144.764  0.00  0.00    +0.000 OA
ATOM     30  C   UNL     1     101.998 134.123 144.388  0.00  0.00    +0.000 C 
ENDBRANCH  27  30
ENDBRANCH  19  28
ENDBRANCH  14  19
ENDBRANCH   5  13
BRANCH   4  31
ATOM     31  O   UNL     1     105.322 128.415 143.216  0.00  0.00    +0.000 OA
BRANCH  31  40
ATOM     32  O   UNL     1     106.561 128.344 142.507  0.00  0.00    +0.000 OA
ATOM     33  O   UNL     1     106.988 126.108 143.479  0.00  0.00    +0.000 OA
ATOM     34  O   UNL     1     108.083 126.782 142.447  0.00  0.00    +0.000 OA
ATOM     35  O   UNL     1     105.607 126.925 143.864  0.00  0.00    +0.000 OA
ATOM     36  C   UNL     1     106.845 126.853 143.155  0.00  0.00    +0.000 C 
ATOM     37  C   UNL     1     107.393 127.190 142.639  0.00  0.00    +0.000 C 
ATOM     38  C   UNL     1     106.154 127.262 143.348  0.00  0.00    +0.000 C 
ATOM     39  C   UNL     1     107.251 127.936 142.315  0.00  0.00    +0.000 C 
ATOM     40  C   UNL     1     106.012 128.007 143.024  0.00  0.00    +0.000 C 
BRANCH  39  42
ATOM     41  O   UNL     1     107.934 129.086 141.813  0.00  0.00    +0.000 OA
ATOM     42  C   UNL     1     107.799 128.272 141.799  0.00  0.00    +0.000 C 
ENDBRANCH  39  42
ENDBRANCH  31  40
ENDBRANCH   4  31
BRANCH   6  43
ATOM     43  C   UNL     1     104.547 129.870 143.295  0.00  0.00    +0.000 C 
BRANCH  43  44
ATOM     44  C   UNL     1     104.107 129.797 143.990  0.00  0.00    +0.000 C 
ATOM     45  C   UNL     1     104.229 130.326 144.611  0.00  0.00    +0.000 C 
ATOM     46  C   UNL     1     103.789 130.254 145.306  0.00  0.00    +0.000 C 
ATOM     47  C   UNL     1     104.789 130.927 144.539  0.00  0.00    +0.000 C 
ENDBRANCH  43  44
ENDBRANCH   6  43
TORSDOF 9
ENDMDL
MODEL 3
REMARK VINA RESULT:      -9.6      1.870      6.804
REMARK  Name = 42607894
REMARK  9 active torsions:
REMARK  status: ('A' for Active; 'I' for Inactive)
REMARK    1  A    between atoms: O_3  and  C_22
REMARK    2  A    between atoms: O_3  and  C_28
REMARK    3  A    between atoms: O_7  and  C_25
REMARK    4  A    between atoms: O_7  and  C_35
REMARK    5  A    between atoms: C_19  and  C_26
REMARK    6  A    between atoms: C_24  and  C_27
REMARK    7  A    between atoms: C_29  and  C_34
REMARK    8  A    between atoms: C_30  and  C_38
REMARK    9  A    between atoms: C_38  and  C_44
REMARK                            x       y       z     vdW  Elec       q    Type
REMARK                         _______ _______ _______ _____ _____    ______ ____
ROOT
ATOM      1  O   UNL     1     111.580 128.921 137.702  0.00  0.00    +0.000 OA
ATOM      2  O   UNL     1     113.075 127.385 139.648  0.00  0.00    +0.000 OA
ATOM      3  O   UNL     1     112.198 128.435 140.110  0.00  0.00    +0.000 OA
ATOM      4  C   UNL     1     113.013 127.253 137.470  0.00  0.00    +0.000 A 
ATOM      5  C   UNL     1     111.225 129.387 138.331  0.00  0.00    +0.000 C 
ATOM      6  C   UNL     1     112.476 127.854 137.293  0.00  0.00    +0.000 A 
ATOM      7  C   UNL     1     112.138 128.298 137.900  0.00  0.00    +0.000 A 
ATOM      8  C   UNL     1     111.433 129.224 139.149  0.00  0.00    +0.000 C 
ATOM      9  C   UNL     1     112.338 128.142 138.686  0.00  0.00    +0.000 A 
ATOM     10  C   UNL     1     113.212 127.097 138.255  0.00  0.00    +0.000 A 
ATOM     11  C   UNL     1     111.993 128.598 139.328  0.00  0.00    +0.000 C 
ATOM     12  C   UNL     1     112.875 127.542 138.863  0.00  0.00    +0.000 A 
ENDROOT
BRANCH   5  13
ATOM     13  C   UNL     1     110.688 129.987 138.151  0.00  0.00    +0.000 A 
ATOM     14  C   UNL     1     109.614 131.186 137.790  0.00  0.00    +0.000 A 
ATOM     15  C   UNL     1     109.879 129.827 138.142  0.00  0.00    +0.000 A 
ATOM     16  C   UNL     1     110.960 130.746 137.979  0.00  0.00    +0.000 A 
ATOM     17  C   UNL     1     109.342 130.427 137.961  0.00  0.00    +0.000 A 
ATOM     18  C   UNL     1     110.423 131.346 137.799  0.00  0.00    +0.000 A 
BRANCH  14  19
ATOM     19  O   UNL     1     109.078 131.787 137.609  0.00  0.00    +0.000 OA
BRANCH  19  28
ATOM     20  O   UNL     1     109.084 131.694 136.183  0.00  0.00    +0.000 OA
ATOM     21  O   UNL     1     106.617 131.891 136.159  0.00  0.00    +0.000 OA
ATOM     22  O   UNL     1     107.447 131.733 134.741  0.00  0.00    +0.000 OA
ATOM     23  O   UNL     1     107.432 131.918 137.593  0.00  0.00    +0.000 OA
ATOM     24  C   UNL     1     107.440 131.826 136.167  0.00  0.00    +0.000 C 
ATOM     25  C   UNL     1     107.854 131.747 135.458  0.00  0.00    +0.000 C 
ATOM     26  C   UNL     1     107.847 131.839 136.884  0.00  0.00    +0.000 C 
ATOM     27  C   UNL     1     108.676 131.681 135.466  0.00  0.00    +0.000 C 
ATOM     28  C   UNL     1     108.670 131.773 136.893  0.00  0.00    +0.000 C 
BRANCH  27  30
ATOM     29  O   UNL     1     109.534 130.922 134.612  0.00  0.00    +0.000 OA
ATOM     30  C   UNL     1     109.091 131.602 134.757  0.00  0.00    +0.000 C 
ENDBRANCH  27  30
ENDBRANCH  19  28
ENDBRANCH  14  19
ENDBRANCH   5  13
BRANCH   4  31
ATOM     31  O   UNL     1     113.351 126.809 136.863  0.00  0.00    +0.000 OA
BRANCH  31  40
ATOM     32  O   UNL     1     112.660 125.566 137.007  0.00  0.00    +0.000 OA
ATOM     33  O   UNL     1     114.813 124.353 136.870  0.00  0.00    +0.000 OA
ATOM     34  O   UNL     1     113.405 123.516 137.060  0.00  0.00    +0.000 OA
ATOM     35  O   UNL     1     114.786 126.000 136.772  0.00  0.00    +0.000 OA
ATOM     36  C   UNL     1     114.095 124.757 136.916  0.00  0.00    +0.000 C 
ATOM     37  C   UNL     1     113.391 124.339 137.011  0.00  0.00    +0.000 C 
ATOM     38  C   UNL     1     114.082 125.582 136.867  0.00  0.00    +0.000 C 
ATOM     39  C   UNL     1     112.673 124.744 137.056  0.00  0.00    +0.000 C 
ATOM     40  C   UNL     1     113.364 125.986 136.912  0.00  0.00    +0.000 C 
BRANCH  39  42
ATOM     41  O   UNL     1     111.278 124.591 136.788  0.00  0.00    +0.000 OA
ATOM     42  C   UNL     1     111.969 124.325 137.151  0.00  0.00    +0.000 C 
ENDBRANCH  39  42
ENDBRANCH  31  40
ENDBRANCH   4  31
BRANCH   6  43
ATOM     43  C   UNL     1     112.277 128.010 136.508  0.00  0.00    +0.000 C 
BRANCH  43  44
ATOM     44  C   UNL     1     112.736 128.529 136.060  0.00  0.00    +0.000 C 
ATOM     45  C   UNL     1     112.512 128.717 135.288  0.00  0.00    +0.000 C 
ATOM     46  C   UNL     1     112.971 129.236 134.841  0.00  0.00    +0.000 C 
ATOM     47  C   UNL     1     111.830 128.385 134.964  0.00  0.00    +0.000 C 
ENDBRANCH  43  44
ENDBRANCH   6  43
TORSDOF 9
ENDMDL
MODEL 4
REMARK VINA RESULT:      -9.5      3.198      7.285
REMARK  Name = 42607894
REMARK  9 active torsions:
REMARK  status: ('A' for Active; 'I' for Inactive)
REMARK    1  A    between atoms: O_3  and  C_22
REMARK    2  A    between atoms: O_3  and  C_28
REMARK    3  A    between atoms: O_7  and  C_25
REMARK    4  A    between atoms: O_7  and  C_35
REMARK    5  A    between atoms: C_19  and  C_26
REMARK    6  A    between atoms: C_24  and  C_27
REMARK    7  A    between atoms: C_29  and  C_34
REMARK    8  A    between atoms: C_30  and  C_38
REMARK    9  A    between atoms: C_38  and  C_44
REMARK                            x       y       z     vdW  Elec       q    Type
REMARK                         _______ _______ _______ _____ _____    ______ ____
ROOT
ATOM      1  O   UNL     1     112.266 128.632 139.268  0.00  0.00    +0.000 OA
ATOM      2  O   UNL     1     112.482 128.287 136.402  0.00  0.00    +0.000 OA
ATOM      3  O   UNL     1     111.823 129.463 136.918  0.00  0.00    +0.000 OA
ATOM      4  C   UNL     1     113.170 127.026 138.045  0.00  0.00    +0.000 A 
ATOM      5  C   UNL     1     111.853 129.376 139.156  0.00  0.00    +0.000 C 
ATOM      6  C   UNL     1     112.919 127.467 138.696  0.00  0.00    +0.000 A 
ATOM      7  C   UNL     1     112.522 128.182 138.582  0.00  0.00    +0.000 A 
ATOM      8  C   UNL     1     111.701 129.661 138.359  0.00  0.00    +0.000 C 
ATOM      9  C   UNL     1     112.377 128.455 137.817  0.00  0.00    +0.000 A 
ATOM     10  C   UNL     1     113.024 127.300 137.281  0.00  0.00    +0.000 A 
ATOM     11  C   UNL     1     111.964 129.198 137.686  0.00  0.00    +0.000 C 
ATOM     12  C   UNL     1     112.628 128.014 137.167  0.00  0.00    +0.000 A 
ENDROOT
BRANCH   5  13
ATOM     13  C   UNL     1     111.603 129.815 139.808  0.00  0.00    +0.000 A 
ATOM     14  C   UNL     1     111.103 130.693 141.113  0.00  0.00    +0.000 A 
ATOM     15  C   UNL     1     112.114 130.358 140.161  0.00  0.00    +0.000 A 
ATOM     16  C   UNL     1     110.841 129.711 140.108  0.00  0.00    +0.000 A 
ATOM     17  C   UNL     1     111.865 130.796 140.813  0.00  0.00    +0.000 A 
ATOM     18  C   UNL     1     110.591 130.150 140.760  0.00  0.00    +0.000 A 
BRANCH  14  19
ATOM     19  O   UNL     1     110.852 131.131 141.765  0.00  0.00    +0.000 OA
BRANCH  19  28
ATOM     20  O   UNL     1     111.154 130.168 142.777  0.00  0.00    +0.000 OA
ATOM     21  O   UNL     1     111.969 131.976 144.257  0.00  0.00    +0.000 OA
ATOM     22  O   UNL     1     111.998 130.410 144.775  0.00  0.00    +0.000 OA
ATOM     23  O   UNL     1     111.397 132.337 142.752  0.00  0.00    +0.000 OA
ATOM     24  C   UNL     1     111.697 131.374 143.763  0.00  0.00    +0.000 C 
ATOM     25  C   UNL     1     111.712 130.591 144.022  0.00  0.00    +0.000 C 
ATOM     26  C   UNL     1     111.411 131.554 143.011  0.00  0.00    +0.000 C 
ATOM     27  C   UNL     1     111.440 129.988 143.530  0.00  0.00    +0.000 C 
ATOM     28  C   UNL     1     111.139 130.951 142.518  0.00  0.00    +0.000 C 
BRANCH  27  30
ATOM     29  O   UNL     1     110.772 128.743 143.745  0.00  0.00    +0.000 OA
ATOM     30  C   UNL     1     111.454 129.204 143.789  0.00  0.00    +0.000 C 
ENDBRANCH  27  30
ENDBRANCH  19  28
ENDBRANCH  14  19
ENDBRANCH   5  13
BRANCH   4  31
ATOM     31  O   UNL     1     113.567 126.312 138.159  0.00  0.00    +0.000 OA
BRANCH  31  40
ATOM     32  O   UNL     1     112.565 125.370 137.772  0.00  0.00    +0.000 OA
ATOM     33  O   UNL     1     114.224 124.181 136.372  0.00  0.00    +0.000 OA
ATOM     34  O   UNL     1     112.669 123.636 136.451  0.00  0.00    +0.000 OA
ATOM     35  O   UNL     1     114.673 125.519 137.226  0.00  0.00    +0.000 OA
ATOM     36  C   UNL     1     113.671 124.577 136.838  0.00  0.00    +0.000 C 
ATOM     37  C   UNL     1     112.893 124.305 136.878  0.00  0.00    +0.000 C 
ATOM     38  C   UNL     1     113.895 125.247 137.266  0.00  0.00    +0.000 C 
ATOM     39  C   UNL     1     112.340 124.701 137.345  0.00  0.00    +0.000 C 
ATOM     40  C   UNL     1     113.343 125.643 137.732  0.00  0.00    +0.000 C 
BRANCH  39  42
ATOM     41  O   UNL     1     111.159 124.435 138.104  0.00  0.00    +0.000 OA
ATOM     42  C   UNL     1     111.563 124.428 137.384  0.00  0.00    +0.000 C 
ENDBRANCH  39  42
ENDBRANCH  31  40
ENDBRANCH   4  31
BRANCH   6  43
ATOM     43  C   UNL     1     113.065 127.194 139.460  0.00  0.00    +0.000 C 
BRANCH  43  44
ATOM     44  C   UNL     1     113.794 127.338 139.819  0.00  0.00    +0.000 C 
ATOM     45  C   UNL     1     113.917 127.121 140.605  0.00  0.00    +0.000 C 
ATOM     46  C   UNL     1     114.646 127.265 140.964  0.00  0.00    +0.000 C 
ATOM     47  C   UNL     1     113.311 126.761 141.034  0.00  0.00    +0.000 C 
ENDBRANCH  43  44
ENDBRANCH   6  43
TORSDOF 9
ENDMDL
MODEL 5
REMARK VINA RESULT:      -9.5      8.749     11.378
REMARK  Name = 42607894
REMARK  9 active torsions:
REMARK  status: ('A' for Active; 'I' for Inactive)
REMARK    1  A    between atoms: O_3  and  C_22
REMARK    2  A    between atoms: O_3  and  C_28
REMARK    3  A    between atoms: O_7  and  C_25
REMARK    4  A    between atoms: O_7  and  C_35
REMARK    5  A    between atoms: C_19  and  C_26
REMARK    6  A    between atoms: C_24  and  C_27
REMARK    7  A    between atoms: C_29  and  C_34
REMARK    8  A    between atoms: C_30  and  C_38
REMARK    9  A    between atoms: C_38  and  C_44
REMARK                            x       y       z     vdW  Elec       q    Type
REMARK                         _______ _______ _______ _____ _____    ______ ____
ROOT
ATOM      1  O   UNL     1     106.059 127.360 144.264  0.00  0.00    +0.000 OA
ATOM      2  O   UNL     1     106.136 124.507 144.749  0.00  0.00    +0.000 OA
ATOM      3  O   UNL     1     105.637 124.988 143.483  0.00  0.00    +0.000 OA
ATOM      4  C   UNL     1     106.726 126.184 146.014  0.00  0.00    +0.000 A 
ATOM      5  C   UNL     1     105.732 127.226 143.480  0.00  0.00    +0.000 C 
ATOM      6  C   UNL     1     106.551 126.822 145.520  0.00  0.00    +0.000 A 
ATOM      7  C   UNL     1     106.237 126.687 144.769  0.00  0.00    +0.000 A 
ATOM      8  C   UNL     1     105.588 126.422 143.212  0.00  0.00    +0.000 C 
ATOM      9  C   UNL     1     106.099 125.915 144.512  0.00  0.00    +0.000 A 
ATOM     10  C   UNL     1     106.587 125.413 145.757  0.00  0.00    +0.000 A 
ATOM     11  C   UNL     1     105.772 125.762 143.731  0.00  0.00    +0.000 C 
ATOM     12  C   UNL     1     106.274 125.279 145.006  0.00  0.00    +0.000 A 
ENDROOT
BRANCH   5  13
ATOM     13  C   UNL     1     105.558 127.865 142.988  0.00  0.00    +0.000 A 
ATOM     14  C   UNL     1     105.210 129.143 142.004  0.00  0.00    +0.000 A 
ATOM     15  C   UNL     1     104.861 128.291 143.098  0.00  0.00    +0.000 A 
ATOM     16  C   UNL     1     106.082 128.077 142.387  0.00  0.00    +0.000 A 
ATOM     17  C   UNL     1     104.686 128.930 142.606  0.00  0.00    +0.000 A 
ATOM     18  C   UNL     1     105.908 128.716 141.895  0.00  0.00    +0.000 A 
BRANCH  14  19
ATOM     19  O   UNL     1     105.037 129.781 141.512  0.00  0.00    +0.000 OA
BRANCH  19  28
ATOM     20  O   UNL     1     105.834 130.734 142.219  0.00  0.00    +0.000 OA
ATOM     21  O   UNL     1     104.186 132.504 141.694  0.00  0.00    +0.000 OA
ATOM     22  O   UNL     1     105.533 132.865 142.576  0.00  0.00    +0.000 OA
ATOM     23  O   UNL     1     103.937 130.962 141.162  0.00  0.00    +0.000 OA
ATOM     24  C   UNL     1     104.735 131.914 141.869  0.00  0.00    +0.000 C 
ATOM     25  C   UNL     1     105.409 132.094 142.310  0.00  0.00    +0.000 C 
ATOM     26  C   UNL     1     104.611 131.143 141.603  0.00  0.00    +0.000 C 
ATOM     27  C   UNL     1     105.958 131.505 142.485  0.00  0.00    +0.000 C 
ATOM     28  C   UNL     1     105.160 130.552 141.778  0.00  0.00    +0.000 C 
BRANCH  27  30
ATOM     29  O   UNL     1     107.378 131.629 142.580  0.00  0.00    +0.000 OA
ATOM     30  C   UNL     1     106.632 131.685 142.926  0.00  0.00    +0.000 C 
ENDBRANCH  27  30
ENDBRANCH  19  28
ENDBRANCH  14  19
ENDBRANCH   5  13
BRANCH   4  31
ATOM     31  O   UNL     1     107.040 126.319 146.766  0.00  0.00    +0.000 OA
BRANCH  31  40
ATOM     32  O   UNL     1     106.062 125.729 147.624  0.00  0.00    +0.000 OA
ATOM     33  O   UNL     1     107.845 124.468 148.789  0.00  0.00    +0.000 OA
ATOM     34  O   UNL     1     106.274 124.299 149.259  0.00  0.00    +0.000 OA
ATOM     35  O   UNL     1     108.229 125.478 147.542  0.00  0.00    +0.000 OA
ATOM     36  C   UNL     1     107.251 124.888 148.401  0.00  0.00    +0.000 C 
ATOM     37  C   UNL     1     106.465 124.804 148.635  0.00  0.00    +0.000 C 
ATOM     38  C   UNL     1     107.443 125.394 147.776  0.00  0.00    +0.000 C 
ATOM     39  C   UNL     1     105.870 125.224 148.247  0.00  0.00    +0.000 C 
ATOM     40  C   UNL     1     106.848 125.814 147.388  0.00  0.00    +0.000 C 
BRANCH  39  42
ATOM     41  O   UNL     1     104.594 125.801 148.531  0.00  0.00    +0.000 OA
ATOM     42  C   UNL     1     105.085 125.139 148.483  0.00  0.00    +0.000 C 
ENDBRANCH  39  42
ENDBRANCH  31  40
ENDBRANCH   4  31
BRANCH   6  43
ATOM     43  C   UNL     1     106.690 127.593 145.777  0.00  0.00    +0.000 C 
BRANCH  43  44
ATOM     44  C   UNL     1     107.425 127.945 145.650  0.00  0.00    +0.000 C 
ATOM     45  C   UNL     1     107.550 128.730 145.872  0.00  0.00    +0.000 C 
ATOM     46  C   UNL     1     108.285 129.082 145.745  0.00  0.00    +0.000 C 
ATOM     47  C   UNL     1     106.940 129.163 146.220  0.00  0.00    +0.000 C 
ENDBRANCH  43  44
ENDBRANCH   6  43
TORSDOF 9
ENDMDL
MODEL 6
REMARK VINA RESULT:      -9.3      3.626      7.584
REMARK  Name = 42607894
REMARK  9 active torsions:
REMARK  status: ('A' for Active; 'I' for Inactive)
REMARK    1  A    between atoms: O_3  and  C_22
REMARK    2  A    between atoms: O_3  and  C_28
REMARK    3  A    between atoms: O_7  and  C_25
REMARK    4  A    between atoms: O_7  and  C_35
REMARK    5  A    between atoms: C_19  and  C_26
REMARK    6  A    between atoms: C_24  and  C_27
REMARK    7  A    between atoms: C_29  and  C_34
REMARK    8  A    between atoms: C_30  and  C_38
REMARK    9  A    between atoms: C_38  and  C_44
REMARK                            x       y       z     vdW  Elec       q    Type
REMARK                         _______ _______ _______ _____ _____    ______ ____
ROOT
ATOM      1  O   UNL     1     111.823 128.180 140.012  0.00  0.00    +0.000 OA
ATOM      2  O   UNL     1     110.733 125.499 139.978  0.00  0.00    +0.000 OA
ATOM      3  O   UNL     1     110.725 126.241 141.216  0.00  0.00    +0.000 OA
ATOM      4  C   UNL     1     111.625 126.695 138.386  0.00  0.00    +0.000 A 
ATOM      5  C   UNL     1     111.641 128.252 140.849  0.00  0.00    +0.000 C 
ATOM      6  C   UNL     1     111.806 127.389 138.795  0.00  0.00    +0.000 A 
ATOM      7  C   UNL     1     111.629 127.453 139.598  0.00  0.00    +0.000 A 
ATOM      8  C   UNL     1     111.268 127.596 141.260  0.00  0.00    +0.000 C 
ATOM      9  C   UNL     1     111.271 126.822 139.992  0.00  0.00    +0.000 A 
ATOM     10  C   UNL     1     111.267 126.066 138.781  0.00  0.00    +0.000 A 
ATOM     11  C   UNL     1     111.082 126.876 140.830  0.00  0.00    +0.000 C 
ATOM     12  C   UNL     1     111.090 126.129 139.584  0.00  0.00    +0.000 A 
ENDROOT
BRANCH   5  13
ATOM     13  C   UNL     1     111.823 128.947 141.255  0.00  0.00    +0.000 A 
ATOM     14  C   UNL     1     112.187 130.336 142.068  0.00  0.00    +0.000 A 
ATOM     15  C   UNL     1     111.273 129.561 141.289  0.00  0.00    +0.000 A 
ATOM     16  C   UNL     1     112.555 129.027 141.627  0.00  0.00    +0.000 A 
ATOM     17  C   UNL     1     111.455 130.255 141.695  0.00  0.00    +0.000 A 
ATOM     18  C   UNL     1     112.737 129.722 142.034  0.00  0.00    +0.000 A 
BRANCH  14  19
ATOM     19  O   UNL     1     112.370 131.030 142.474  0.00  0.00    +0.000 OA
BRANCH  19  28
ATOM     20  O   UNL     1     111.889 130.608 143.752  0.00  0.00    +0.000 OA
ATOM     21  O   UNL     1     111.074 132.901 144.203  0.00  0.00    +0.000 OA
ATOM     22  O   UNL     1     110.865 131.714 145.330  0.00  0.00    +0.000 OA
ATOM     23  O   UNL     1     111.826 132.559 142.775  0.00  0.00    +0.000 OA
ATOM     24  C   UNL     1     111.346 132.137 144.052  0.00  0.00    +0.000 C 
ATOM     25  C   UNL     1     111.241 131.543 144.616  0.00  0.00    +0.000 C 
ATOM     26  C   UNL     1     111.722 131.966 143.338  0.00  0.00    +0.000 C 
ATOM     27  C   UNL     1     111.513 130.779 144.466  0.00  0.00    +0.000 C 
ATOM     28  C   UNL     1     111.994 131.202 143.188  0.00  0.00    +0.000 C 
BRANCH  27  30
ATOM     29  O   UNL     1     112.056 129.745 145.290  0.00  0.00    +0.000 OA
ATOM     30  C   UNL     1     111.408 130.185 145.029  0.00  0.00    +0.000 C 
ENDBRANCH  27  30
ENDBRANCH  19  28
ENDBRANCH  14  19
ENDBRANCH   5  13
BRANCH   4  31
ATOM     31  O   UNL     1     111.801 126.632 137.582  0.00  0.00    +0.000 OA
BRANCH  31  40
ATOM     32  O   UNL     1     112.882 125.697 137.564  0.00  0.00    +0.000 OA
ATOM     33  O   UNL     1     111.694 124.356 135.857  0.00  0.00    +0.000 OA
ATOM     34  O   UNL     1     113.170 123.869 136.408  0.00  0.00    +0.000 OA
ATOM     35  O   UNL     1     111.009 125.738 136.444  0.00  0.00    +0.000 OA
ATOM     36  C   UNL     1     112.090 124.803 136.426  0.00  0.00    +0.000 C 
ATOM     37  C   UNL     1     112.828 124.560 136.702  0.00  0.00    +0.000 C 
ATOM     38  C   UNL     1     111.747 125.494 136.720  0.00  0.00    +0.000 C 
ATOM     39  C   UNL     1     113.224 125.007 137.271  0.00  0.00    +0.000 C 
ATOM     40  C   UNL     1     112.143 125.941 137.289  0.00  0.00    +0.000 C 
BRANCH  39  42
ATOM     41  O   UNL     1     114.536 125.323 137.740  0.00  0.00    +0.000 OA
ATOM     42  C   UNL     1     113.962 124.763 137.546  0.00  0.00    +0.000 C 
ENDBRANCH  39  42
ENDBRANCH  31  40
ENDBRANCH   4  31
BRANCH   6  43
ATOM     43  C   UNL     1     112.163 128.019 138.400  0.00  0.00    +0.000 C 
BRANCH  43  44
ATOM     44  C   UNL     1     111.700 128.572 138.000  0.00  0.00    +0.000 C 
ATOM     45  C   UNL     1     112.057 129.217 137.628  0.00  0.00    +0.000 C 
ATOM     46  C   UNL     1     111.594 129.770 137.229  0.00  0.00    +0.000 C 
ATOM     47  C   UNL     1     112.876 129.307 137.655  0.00  0.00    +0.000 C 
ENDBRANCH  43  44
ENDBRANCH   6  43
TORSDOF 9
ENDMDL
MODEL 7
REMARK VINA RESULT:      -9.3      4.021      5.833
REMARK  Name = 42607894
REMARK  9 active torsions:
REMARK  status: ('A' for Active; 'I' for Inactive)
REMARK    1  A    between atoms: O_3  and  C_22
REMARK    2  A    between atoms: O_3  and  C_28
REMARK    3  A    between atoms: O_7  and  C_25
REMARK    4  A    between atoms: O_7  and  C_35
REMARK    5  A    between atoms: C_19  and  C_26
REMARK    6  A    between atoms: C_24  and  C_27
REMARK    7  A    between atoms: C_29  and  C_34
REMARK    8  A    between atoms: C_30  and  C_38
REMARK    9  A    between atoms: C_38  and  C_44
REMARK                            x       y       z     vdW  Elec       q    Type
REMARK                         _______ _______ _______ _____ _____    ______ ____
ROOT
ATOM      1  O   UNL     1     112.589 128.817 140.939  0.00  0.00    +0.000 OA
ATOM      2  O   UNL     1     113.630 131.308 141.984  0.00  0.00    +0.000 OA
ATOM      3  O   UNL     1     114.441 130.540 141.069  0.00  0.00    +0.000 OA
ATOM      4  C   UNL     1     111.728 130.298 142.338  0.00  0.00    +0.000 A 
ATOM      5  C   UNL     1     113.309 128.698 140.486  0.00  0.00    +0.000 C 
ATOM      6  C   UNL     1     111.816 129.628 141.863  0.00  0.00    +0.000 A 
ATOM      7  C   UNL     1     112.509 129.519 141.429  0.00  0.00    +0.000 A 
ATOM      8  C   UNL     1     113.939 129.280 140.527  0.00  0.00    +0.000 C 
ATOM      9  C   UNL     1     113.114 130.079 141.470  0.00  0.00    +0.000 A 
ATOM     10  C   UNL     1     112.333 130.858 142.378  0.00  0.00    +0.000 A 
ATOM     11  C   UNL     1     113.841 129.975 141.023  0.00  0.00    +0.000 C 
ATOM     12  C   UNL     1     113.026 130.748 141.944  0.00  0.00    +0.000 A 
ENDROOT
BRANCH   5  13
ATOM     13  C   UNL     1     113.394 128.027 140.012  0.00  0.00    +0.000 A 
ATOM     14  C   UNL     1     113.566 126.686 139.066  0.00  0.00    +0.000 A 
ATOM     15  C   UNL     1     113.321 128.088 139.193  0.00  0.00    +0.000 A 
ATOM     16  C   UNL     1     113.553 127.295 140.359  0.00  0.00    +0.000 A 
ATOM     17  C   UNL     1     113.407 127.418 138.720  0.00  0.00    +0.000 A 
ATOM     18  C   UNL     1     113.639 126.625 139.886  0.00  0.00    +0.000 A 
BRANCH  14  19
ATOM     19  O   UNL     1     113.651 126.016 138.594  0.00  0.00    +0.000 OA
BRANCH  19  28
ATOM     20  O   UNL     1     112.254 125.727 138.507  0.00  0.00    +0.000 OA
ATOM     21  O   UNL     1     112.576 124.851 136.215  0.00  0.00    +0.000 OA
ATOM     22  O   UNL     1     111.072 124.855 136.894  0.00  0.00    +0.000 OA
ATOM     23  O   UNL     1     113.866 125.431 137.065  0.00  0.00    +0.000 OA
ATOM     24  C   UNL     1     112.469 125.143 136.980  0.00  0.00    +0.000 C 
ATOM     25  C   UNL     1     111.717 125.145 137.319  0.00  0.00    +0.000 C 
ATOM     26  C   UNL     1     113.114 125.433 137.404  0.00  0.00    +0.000 C 
ATOM     27  C   UNL     1     111.609 125.437 138.083  0.00  0.00    +0.000 C 
ATOM     28  C   UNL     1     113.007 125.725 138.168  0.00  0.00    +0.000 C 
BRANCH  27  30
ATOM     29  O   UNL     1     110.755 125.183 139.200  0.00  0.00    +0.000 OA
ATOM     30  C   UNL     1     110.857 125.439 138.422  0.00  0.00    +0.000 C 
ENDBRANCH  27  30
ENDBRANCH  19  28
ENDBRANCH  14  19
ENDBRANCH   5  13
BRANCH   4  31
ATOM     31  O   UNL     1     111.035 130.408 142.771  0.00  0.00    +0.000 OA
BRANCH  31  40
ATOM     32  O   UNL     1     111.503 130.281 144.115  0.00  0.00    +0.000 OA
ATOM     33  O   UNL     1     110.327 132.372 144.723  0.00  0.00    +0.000 OA
ATOM     34  O   UNL     1     111.187 131.547 145.864  0.00  0.00    +0.000 OA
ATOM     35  O   UNL     1     110.251 131.802 143.177  0.00  0.00    +0.000 OA
ATOM     36  C   UNL     1     110.719 131.675 144.521  0.00  0.00    +0.000 C 
ATOM     37  C   UNL     1     111.149 131.262 145.091  0.00  0.00    +0.000 C 
ATOM     38  C   UNL     1     110.681 131.390 143.747  0.00  0.00    +0.000 C 
ATOM     39  C   UNL     1     111.541 130.565 144.888  0.00  0.00    +0.000 C 
ATOM     40  C   UNL     1     111.073 130.693 143.544  0.00  0.00    +0.000 C 
BRANCH  39  42
ATOM     41  O   UNL     1     111.951 129.329 145.475  0.00  0.00    +0.000 OA
ATOM     42  C   UNL     1     111.971 130.153 145.459  0.00  0.00    +0.000 C 
ENDBRANCH  39  42
ENDBRANCH  31  40
ENDBRANCH   4  31
BRANCH   6  43
ATOM     43  C   UNL     1     111.211 129.069 141.823  0.00  0.00    +0.000 C 
BRANCH  43  44
ATOM     44  C   UNL     1     110.605 129.155 141.270  0.00  0.00    +0.000 C 
ATOM     45  C   UNL     1     110.019 128.577 141.208  0.00  0.00    +0.000 C 
ATOM     46  C   UNL     1     109.413 128.663 140.655  0.00  0.00    +0.000 C 
ATOM     47  C   UNL     1     110.039 127.915 141.698  0.00  0.00    +0.000 C 
ENDBRANCH  43  44
ENDBRANCH   6  43
TORSDOF 9
ENDMDL
MODEL 8
REMARK VINA RESULT:      -9.3      3.388      4.678
REMARK  Name = 42607894
REMARK  9 active torsions:
REMARK  status: ('A' for Active; 'I' for Inactive)
REMARK    1  A    between atoms: O_3  and  C_22
REMARK    2  A    between atoms: O_3  and  C_28
REMARK    3  A    between atoms: O_7  and  C_25
REMARK    4  A    between atoms: O_7  and  C_35
REMARK    5  A    between atoms: C_19  and  C_26
REMARK    6  A    between atoms: C_24  and  C_27
REMARK    7  A    between atoms: C_29  and  C_34
REMARK    8  A    between atoms: C_30  and  C_38
REMARK    9  A    between atoms: C_38  and  C_44
REMARK                            x       y       z     vdW  Elec       q    Type
REMARK                         _______ _______ _______ _____ _____    ______ ____
ROOT
ATOM      1  O   UNL     1     112.226 128.855 139.810  0.00  0.00    +0.000 OA
ATOM      2  O   UNL     1     109.825 130.135 140.799  0.00  0.00    +0.000 OA
ATOM      3  O   UNL     1     109.719 129.199 139.705  0.00  0.00    +0.000 OA
ATOM      4  C   UNL     1     111.905 130.325 141.431  0.00  0.00    +0.000 A 
ATOM      5  C   UNL     1     111.765 128.425 139.226  0.00  0.00    +0.000 C 
ATOM      6  C   UNL     1     112.275 129.804 140.908  0.00  0.00    +0.000 A 
ATOM      7  C   UNL     1     111.829 129.394 140.349  0.00  0.00    +0.000 A 
ATOM      8  C   UNL     1     110.915 128.540 139.187  0.00  0.00    +0.000 C 
ATOM      9  C   UNL     1     111.012 129.505 140.313  0.00  0.00    +0.000 A 
ATOM     10  C   UNL     1     111.089 130.435 141.394  0.00  0.00    +0.000 A 
ATOM     11  C   UNL     1     110.535 129.083 139.734  0.00  0.00    +0.000 C 
ATOM     12  C   UNL     1     110.642 130.024 140.835  0.00  0.00    +0.000 A 
ENDROOT
BRANCH   5  13
ATOM     13  C   UNL     1     112.138 127.906 138.704  0.00  0.00    +0.000 A 
ATOM     14  C   UNL     1     112.883 126.866 137.661  0.00  0.00    +0.000 A 
ATOM     15  C   UNL     1     112.375 127.159 138.964  0.00  0.00    +0.000 A 
ATOM     16  C   UNL     1     112.273 128.132 137.922  0.00  0.00    +0.000 A 
ATOM     17  C   UNL     1     112.747 126.640 138.443  0.00  0.00    +0.000 A 
ATOM     18  C   UNL     1     112.646 127.613 137.401  0.00  0.00    +0.000 A 
BRANCH  14  19
ATOM     19  O   UNL     1     113.255 126.348 137.139  0.00  0.00    +0.000 OA
BRANCH  19  28
ATOM     20  O   UNL     1     112.114 125.730 136.540  0.00  0.00    +0.000 OA
ATOM     21  O   UNL     1     113.180 123.511 136.794  0.00  0.00    +0.000 OA
ATOM     22  O   UNL     1     111.684 123.634 136.110  0.00  0.00    +0.000 OA
ATOM     23  O   UNL     1     113.966 124.867 137.309  0.00  0.00    +0.000 OA
ATOM     24  C   UNL     1     112.825 124.251 136.709  0.00  0.00    +0.000 C 
ATOM     25  C   UNL     1     112.077 124.313 136.367  0.00  0.00    +0.000 C 
ATOM     26  C   UNL     1     113.218 124.929 136.967  0.00  0.00    +0.000 C 
ATOM     27  C   UNL     1     111.721 125.052 136.282  0.00  0.00    +0.000 C 
ATOM     28  C   UNL     1     112.863 125.669 136.882  0.00  0.00    +0.000 C 
BRANCH  27  30
ATOM     29  O   UNL     1     110.854 125.616 135.296  0.00  0.00    +0.000 OA
ATOM     30  C   UNL     1     110.973 125.114 135.940  0.00  0.00    +0.000 C 
ENDBRANCH  27  30
ENDBRANCH  19  28
ENDBRANCH  14  19
ENDBRANCH   5  13
BRANCH   4  31
ATOM     31  O   UNL     1     112.352 130.735 141.990  0.00  0.00    +0.000 OA
BRANCH  31  40
ATOM     32  O   UNL     1     111.866 130.110 143.179  0.00  0.00    +0.000 OA
ATOM     33  O   UNL     1     111.736 132.320 144.287  0.00  0.00    +0.000 OA
ATOM     34  O   UNL     1     111.294 130.959 145.107  0.00  0.00    +0.000 OA
ATOM     35  O   UNL     1     112.265 132.208 142.728  0.00  0.00    +0.000 OA
ATOM     36  C   UNL     1     111.779 131.583 143.918  0.00  0.00    +0.000 C 
ATOM     37  C   UNL     1     111.558 130.902 144.327  0.00  0.00    +0.000 C 
ATOM     38  C   UNL     1     112.044 131.527 143.138  0.00  0.00    +0.000 C 
ATOM     39  C   UNL     1     111.602 130.166 143.958  0.00  0.00    +0.000 C 
ATOM     40  C   UNL     1     112.088 130.791 142.769  0.00  0.00    +0.000 C 
BRANCH  39  42
ATOM     41  O   UNL     1     111.813 128.788 144.276  0.00  0.00    +0.000 OA
ATOM     42  C   UNL     1     111.381 129.486 144.368  0.00  0.00    +0.000 C 
ENDBRANCH  39  42
ENDBRANCH  31  40
ENDBRANCH   4  31
BRANCH   6  43
ATOM     43  C   UNL     1     113.092 129.695 140.945  0.00  0.00    +0.000 C 
BRANCH  43  44
ATOM     44  C   UNL     1     113.597 130.221 140.558  0.00  0.00    +0.000 C 
ATOM     45  C   UNL     1     114.407 130.066 140.527  0.00  0.00    +0.000 C 
ATOM     46  C   UNL     1     114.913 130.592 140.141  0.00  0.00    +0.000 C 
ATOM     47  C   UNL     1     114.712 129.387 140.882  0.00  0.00    +0.000 C 
ENDBRANCH  43  44
ENDBRANCH   6  43
TORSDOF 9
ENDMDL
MODEL 9
REMARK VINA RESULT:      -9.3      6.403      9.565
REMARK  Name = 42607894
REMARK  9 active torsions:
REMARK  status: ('A' for Active; 'I' for Inactive)
REMARK    1  A    between atoms: O_3  and  C_22
REMARK    2  A    between atoms: O_3  and  C_28
REMARK    3  A    between atoms: O_7  and  C_25
REMARK    4  A    between atoms: O_7  and  C_35
REMARK    5  A    between atoms: C_19  and  C_26
REMARK    6  A    between atoms: C_24  and  C_27
REMARK    7  A    between atoms: C_29  and  C_34
REMARK    8  A    between atoms: C_30  and  C_38
REMARK    9  A    between atoms: C_38  and  C_44
REMARK                            x       y       z     vdW  Elec       q    Type
REMARK                         _______ _______ _______ _____ _____    ______ ____
ROOT
ATOM      1  O   UNL     1     105.902 128.510 141.941  0.00  0.00    +0.000 OA
ATOM      2  O   UNL     1     106.980 125.953 142.764  0.00  0.00    +0.000 OA
ATOM      3  O   UNL     1     105.556 126.173 142.853  0.00  0.00    +0.000 OA
ATOM      4  C   UNL     1     107.972 127.733 141.982  0.00  0.00    +0.000 A 
ATOM      5  C   UNL     1     105.108 128.247 142.135  0.00  0.00    +0.000 C 
ATOM      6  C   UNL     1     107.326 128.236 141.872  0.00  0.00    +0.000 A 
ATOM      7  C   UNL     1     106.565 127.977 142.060  0.00  0.00    +0.000 A 
ATOM      8  C   UNL     1     104.987 127.454 142.444  0.00  0.00    +0.000 C 
ATOM      9  C   UNL     1     106.451 127.216 142.357  0.00  0.00    +0.000 A 
ATOM     10  C   UNL     1     107.856 126.973 142.279  0.00  0.00    +0.000 A 
ATOM     11  C   UNL     1     105.662 126.935 142.557  0.00  0.00    +0.000 C 
ATOM     12  C   UNL     1     107.095 126.714 142.467  0.00  0.00    +0.000 A 
ENDROOT
BRANCH   5  13
ATOM     13  C   UNL     1     104.464 128.751 142.024  0.00  0.00    +0.000 A 
ATOM     14  C   UNL     1     103.177 129.760 141.803  0.00  0.00    +0.000 A 
ATOM     15  C   UNL     1     104.228 129.258 142.631  0.00  0.00    +0.000 A 
ATOM     16  C   UNL     1     104.056 128.749 141.307  0.00  0.00    +0.000 A 
ATOM     17  C   UNL     1     103.585 129.763 142.520  0.00  0.00    +0.000 A 
ATOM     18  C   UNL     1     103.413 129.253 141.196  0.00  0.00    +0.000 A 
BRANCH  14  19
ATOM     19  O   UNL     1     102.534 130.264 141.691  0.00  0.00    +0.000 OA
BRANCH  19  28
ATOM     20  O   UNL     1     103.265 131.322 141.067  0.00  0.00    +0.000 OA
ATOM     21  O   UNL     1     101.819 132.987 142.191  0.00  0.00    +0.000 OA
ATOM     22  O   UNL     1     103.033 133.488 141.191  0.00  0.00    +0.000 OA
ATOM     23  O   UNL     1     101.570 131.375 142.441  0.00  0.00    +0.000 OA
ATOM     24  C   UNL     1     102.301 132.431 141.816  0.00  0.00    +0.000 C 
ATOM     25  C   UNL     1     102.908 132.682 141.316  0.00  0.00    +0.000 C 
ATOM     26  C   UNL     1     102.176 131.625 141.941  0.00  0.00    +0.000 C 
ATOM     27  C   UNL     1     103.390 132.128 140.942  0.00  0.00    +0.000 C 
ATOM     28  C   UNL     1     102.658 131.070 141.567  0.00  0.00    +0.000 C 
BRANCH  27  30
ATOM     29  O   UNL     1     104.007 132.137 139.653  0.00  0.00    +0.000 OA
ATOM     30  C   UNL     1     103.997 132.378 140.442  0.00  0.00    +0.000 C 
ENDBRANCH  27  30
ENDBRANCH  19  28
ENDBRANCH  14  19
ENDBRANCH   5  13
BRANCH   4  31
ATOM     31  O   UNL     1     108.733 127.992 141.794  0.00  0.00    +0.000 OA
BRANCH  31  40
ATOM     32  O   UNL     1     109.034 127.104 140.715  0.00  0.00    +0.000 OA
ATOM     33  O   UNL     1     111.286 126.715 141.664  0.00  0.00    +0.000 OA
ATOM     34  O   UNL     1     110.836 125.958 140.269  0.00  0.00    +0.000 OA
ATOM     35  O   UNL     1     110.234 127.732 142.427  0.00  0.00    +0.000 OA
ATOM     36  C   UNL     1     110.535 126.845 141.347  0.00  0.00    +0.000 C 
ATOM     37  C   UNL     1     110.310 126.466 140.650  0.00  0.00    +0.000 C 
ATOM     38  C   UNL     1     110.009 127.354 141.729  0.00  0.00    +0.000 C 
ATOM     39  C   UNL     1     109.559 126.596 140.334  0.00  0.00    +0.000 C 
ATOM     40  C   UNL     1     109.258 127.483 141.413  0.00  0.00    +0.000 C 
BRANCH  39  42
ATOM     41  O   UNL     1     108.950 126.641 139.042  0.00  0.00    +0.000 OA
ATOM     42  C   UNL     1     109.334 126.218 139.637  0.00  0.00    +0.000 C 
ENDBRANCH  39  42
ENDBRANCH  31  40
ENDBRANCH   4  31
BRANCH   6  43
ATOM     43  C   UNL     1     107.442 128.996 141.575  0.00  0.00    +0.000 C 
BRANCH  43  44
ATOM     44  C   UNL     1     107.609 129.620 142.089  0.00  0.00    +0.000 C 
ATOM     45  C   UNL     1     107.707 130.384 141.792  0.00  0.00    +0.000 C 
ATOM     46  C   UNL     1     107.874 131.007 142.306  0.00  0.00    +0.000 C 
ATOM     47  C   UNL     1     107.639 130.524 140.983  0.00  0.00    +0.000 C 
ENDBRANCH  43  44
ENDBRANCH   6  43
TORSDOF 9
ENDMDL
MODEL 10
REMARK VINA RESULT:      -9.2      8.630     11.722
REMARK  Name = 42607894
REMARK  9 active torsions:
REMARK  status: ('A' for Active; 'I' for Inactive)
REMARK    1  A    between atoms: O_3  and  C_22
REMARK    2  A    between atoms: O_3  and  C_28
REMARK    3  A    between atoms: O_7  and  C_25
REMARK    4  A    between atoms: O_7  and  C_35
REMARK    5  A    between atoms: C_19  and  C_26
REMARK    6  A    between atoms: C_24  and  C_27
REMARK    7  A    between atoms: C_29  and  C_34
REMARK    8  A    between atoms: C_30  and  C_38
REMARK    9  A    between atoms: C_38  and  C_44
REMARK                            x       y       z     vdW  Elec       q    Type
REMARK                         _______ _______ _______ _____ _____    ______ ____
ROOT
ATOM      1  O   UNL     1     105.014 128.681 143.770  0.00  0.00    +0.000 OA
ATOM      2  O   UNL     1     105.179 128.671 146.660  0.00  0.00    +0.000 OA
ATOM      3  O   UNL     1     104.594 129.812 145.997  0.00  0.00    +0.000 OA
ATOM      4  C   UNL     1     105.811 127.186 145.191  0.00  0.00    +0.000 A 
ATOM      5  C   UNL     1     104.643 129.456 143.786  0.00  0.00    +0.000 C 
ATOM      6  C   UNL     1     105.592 127.559 144.488  0.00  0.00    +0.000 A 
ATOM      7  C   UNL     1     105.236 128.303 144.509  0.00  0.00    +0.000 A 
ATOM      8  C   UNL     1     104.499 129.842 144.540  0.00  0.00    +0.000 C 
ATOM      9  C   UNL     1     105.099 128.673 145.234  0.00  0.00    +0.000 A 
ATOM     10  C   UNL     1     105.673 127.557 145.915  0.00  0.00    +0.000 A 
ATOM     11  C   UNL     1     104.728 129.449 145.269  0.00  0.00    +0.000 C 
ATOM     12  C   UNL     1     105.317 128.301 145.936  0.00  0.00    +0.000 A 
ENDROOT
BRANCH   5  13
ATOM     13  C   UNL     1     104.425 129.827 143.082  0.00  0.00    +0.000 A 
ATOM     14  C   UNL     1     103.991 130.569 141.674  0.00  0.00    +0.000 A 
ATOM     15  C   UNL     1     103.720 129.621 142.708  0.00  0.00    +0.000 A 
ATOM     16  C   UNL     1     104.914 130.404 142.752  0.00  0.00    +0.000 A 
ATOM     17  C   UNL     1     103.502 129.992 142.004  0.00  0.00    +0.000 A 
ATOM     18  C   UNL     1     104.697 130.775 142.048  0.00  0.00    +0.000 A 
BRANCH  14  19
ATOM     19  O   UNL     1     103.775 130.940 140.970  0.00  0.00    +0.000 OA
BRANCH  19  28
ATOM     20  O   UNL     1     102.817 131.879 141.463  0.00  0.00    +0.000 OA
ATOM     21  O   UNL     1     103.839 133.654 140.074  0.00  0.00    +0.000 OA
ATOM     22  O   UNL     1     102.540 134.000 141.031  0.00  0.00    +0.000 OA
ATOM     23  O   UNL     1     104.456 132.124 140.043  0.00  0.00    +0.000 OA
ATOM     24  C   UNL     1     103.498 133.062 140.537  0.00  0.00    +0.000 C 
ATOM     25  C   UNL     1     102.849 133.235 141.016  0.00  0.00    +0.000 C 
ATOM     26  C   UNL     1     103.807 132.297 140.522  0.00  0.00    +0.000 C 
ATOM     27  C   UNL     1     102.508 132.644 141.479  0.00  0.00    +0.000 C 
ATOM     28  C   UNL     1     103.467 131.705 140.985  0.00  0.00    +0.000 C 
BRANCH  27  30
ATOM     29  O   UNL     1     101.179 132.350 141.915  0.00  0.00    +0.000 OA
ATOM     30  C   UNL     1     101.858 132.817 141.957  0.00  0.00    +0.000 C 
ENDBRANCH  27  30
ENDBRANCH  19  28
ENDBRANCH  14  19
ENDBRANCH   5  13
BRANCH   4  31
ATOM     31  O   UNL     1     106.167 126.442 145.170  0.00  0.00    +0.000 OA
BRANCH  31  40
ATOM     32  O   UNL     1     105.173 125.626 145.793  0.00  0.00    +0.000 OA
ATOM     33  O   UNL     1     106.906 124.636 147.258  0.00  0.00    +0.000 OA
ATOM     34  O   UNL     1     105.336 124.150 147.393  0.00  0.00    +0.000 OA
ATOM     35  O   UNL     1     107.322 125.782 146.146  0.00  0.00    +0.000 OA
ATOM     36  C   UNL     1     106.328 124.966 146.770  0.00  0.00    +0.000 C 
ATOM     37  C   UNL     1     105.543 124.723 146.837  0.00  0.00    +0.000 C 
ATOM     38  C   UNL     1     106.536 125.539 146.213  0.00  0.00    +0.000 C 
ATOM     39  C   UNL     1     104.965 125.053 146.349  0.00  0.00    +0.000 C 
ATOM     40  C   UNL     1     105.959 125.869 145.725  0.00  0.00    +0.000 C 
BRANCH  39  42
ATOM     41  O   UNL     1     103.756 124.593 145.744  0.00  0.00    +0.000 OA
ATOM     42  C   UNL     1     104.181 124.810 146.417  0.00  0.00    +0.000 C 
ENDBRANCH  39  42
ENDBRANCH  31  40
ENDBRANCH   4  31
BRANCH   6  43
ATOM     43  C   UNL     1     105.731 127.188 143.764  0.00  0.00    +0.000 C 
BRANCH  43  44
ATOM     44  C   UNL     1     106.462 127.271 143.391  0.00  0.00    +0.000 C 
ATOM     45  C   UNL     1     106.589 126.922 142.654  0.00  0.00    +0.000 C 
ATOM     46  C   UNL     1     107.320 127.005 142.280  0.00  0.00    +0.000 C 
ATOM     47  C   UNL     1     105.987 126.492 142.290  0.00  0.00    +0.000 C 
ENDBRANCH  43  44
ENDBRANCH   6  43
TORSDOF 9
ENDMDL
