MODEL 1
REMARK VINA RESULT:     -10.0      0.000      0.000
REMARK  Name = 44258078
REMARK  7 active torsions:
REMARK  status: ('A' for Active; 'I' for Inactive)
REMARK    1  A    between atoms: O_3  and  C_21
REMARK    2  A    between atoms: O_3  and  C_25
REMARK    3  A    between atoms: O_6  and  C_24
REMARK    4  A    between atoms: O_6  and  C_27
REMARK    5  A    between atoms: C_16  and  C_25
REMARK    6  A    between atoms: C_23  and  C_26
REMARK    7  A    between atoms: C_34  and  C_36
REMARK                            x       y       z     vdW  Elec       q    Type
REMARK                         _______ _______ _______ _____ _____    ______ ____
ROOT
ATOM      1  O   UNL     1     112.832 129.494 134.975  0.00  0.00    +0.000 OA
ENDROOT
BRANCH   1   5
ATOM      2  O   UNL     1     111.833 126.917 135.895  0.00  0.00    +0.000 OA
ATOM      3  O   UNL     1     110.025 128.770 134.613  0.00  0.00    +0.000 OA
ATOM      4  O   UNL     1     109.566 127.486 135.081  0.00  0.00    +0.000 OA
ATOM      5  C   UNL     1     112.211 128.957 135.065  0.00  0.00    +0.000 A 
ATOM      6  C   UNL     1     112.348 128.197 135.443  0.00  0.00    +0.000 A 
ATOM      7  C   UNL     1     111.424 129.154 134.783  0.00  0.00    +0.000 A 
ATOM      8  C   UNL     1     111.696 127.645 135.532  0.00  0.00    +0.000 A 
ATOM      9  C   UNL     1     110.785 128.589 134.881  0.00  0.00    +0.000 A 
ATOM     10  C   UNL     1     110.940 127.835 135.261  0.00  0.00    +0.000 A 
ATOM     11  C   UNL     1     110.322 127.296 135.352  0.00  0.00    +0.000 A 
ATOM     12  C   UNL     1     111.214 126.378 135.987  0.00  0.00    +0.000 A 
ATOM     13  C   UNL     1     110.459 126.568 135.715  0.00  0.00    +0.000 A 
BRANCH  12  16
ATOM     14  O   UNL     1     111.317 124.770 138.347  0.00  0.00    +0.000 OA
ATOM     15  O   UNL     1     111.762 123.466 137.439  0.00  0.00    +0.000 OA
ATOM     16  C   UNL     1     111.351 125.650 136.350  0.00  0.00    +0.000 A 
ATOM     17  C   UNL     1     111.266 125.575 137.167  0.00  0.00    +0.000 A 
ATOM     18  C   UNL     1     111.574 124.998 135.896  0.00  0.00    +0.000 A 
ATOM     19  C   UNL     1     111.403 124.846 137.530  0.00  0.00    +0.000 A 
ATOM     20  C   UNL     1     111.711 124.271 136.259  0.00  0.00    +0.000 A 
ATOM     21  C   UNL     1     111.625 124.195 137.076  0.00  0.00    +0.000 A 
ENDBRANCH  12  16
ENDBRANCH   1   5
BRANCH   1  30
ATOM     22  O   UNL     1     112.609 130.239 136.174  0.00  0.00    +0.000 OA
ATOM     23  O   UNL     1     114.016 131.103 137.602  0.00  0.00    +0.000 OA
ATOM     24  O   UNL     1     115.053 130.416 136.518  0.00  0.00    +0.000 OA
ATOM     25  O   UNL     1     114.461 129.612 135.205  0.00  0.00    +0.000 OA
ATOM     26  C   UNL     1     112.905 130.641 136.830  0.00  0.00    +0.000 C 
ATOM     27  C   UNL     1     113.719 130.700 136.945  0.00  0.00    +0.000 C 
ATOM     28  C   UNL     1     114.239 130.357 136.403  0.00  0.00    +0.000 C 
ATOM     29  C   UNL     1     113.942 129.955 135.746  0.00  0.00    +0.000 C 
ATOM     30  C   UNL     1     113.127 129.896 135.631  0.00  0.00    +0.000 C 
BRANCH  26  31
ATOM     31  C   UNL     1     112.386 130.985 137.372  0.00  0.00    +0.000 C 
BRANCH  31  32
ATOM     32  O   UNL     1     111.743 131.426 137.106  0.00  0.00    +0.000 OA
BRANCH  32  37
ATOM     33  O   UNL     1     111.026 131.376 138.388  0.00  0.00    +0.000 OA
ATOM     34  O   UNL     1     110.607 132.792 136.847  0.00  0.00    +0.000 OA
ATOM     35  O   UNL     1     109.585 132.949 138.313  0.00  0.00    +0.000 OA
ATOM     36  C   UNL     1     110.651 132.319 137.522  0.00  0.00    +0.000 C 
ATOM     37  C   UNL     1     111.173 131.691 137.641  0.00  0.00    +0.000 C 
ATOM     38  C   UNL     1     110.181 132.391 138.196  0.00  0.00    +0.000 C 
ATOM     39  C   UNL     1     110.412 131.808 138.731  0.00  0.00    +0.000 C 
BRANCH  39  41
ATOM     40  O   UNL     1     110.556 131.373 140.085  0.00  0.00    +0.000 OA
ATOM     41  C   UNL     1     110.087 131.680 139.479  0.00  0.00    +0.000 C 
ENDBRANCH  39  41
ENDBRANCH  32  37
ENDBRANCH  31  32
ENDBRANCH  26  31
ENDBRANCH   1  30
TORSDOF 7
ENDMDL
MODEL 2
REMARK VINA RESULT:      -9.9      2.120      5.547
REMARK  Name = 44258078
REMARK  7 active torsions:
REMARK  status: ('A' for Active; 'I' for Inactive)
REMARK    1  A    between atoms: O_3  and  C_21
REMARK    2  A    between atoms: O_3  and  C_25
REMARK    3  A    between atoms: O_6  and  C_24
REMARK    4  A    between atoms: O_6  and  C_27
REMARK    5  A    between atoms: C_16  and  C_25
REMARK    6  A    between atoms: C_23  and  C_26
REMARK    7  A    between atoms: C_34  and  C_36
REMARK                            x       y       z     vdW  Elec       q    Type
REMARK                         _______ _______ _______ _____ _____    ______ ____
ROOT
ATOM      1  O   UNL     1     110.926 127.506 135.560  0.00  0.00    +0.000 OA
ENDROOT
BRANCH   1   5
ATOM      2  O   UNL     1     110.155 130.106 136.625  0.00  0.00    +0.000 OA
ATOM      3  O   UNL     1     108.119 128.313 135.632  0.00  0.00    +0.000 OA
ATOM      4  O   UNL     1     107.774 129.607 136.166  0.00  0.00    +0.000 OA
ATOM      5  C   UNL     1     110.342 128.060 135.745  0.00  0.00    +0.000 A 
ATOM      6  C   UNL     1     110.557 128.814 136.098  0.00  0.00    +0.000 A 
ATOM      7  C   UNL     1     109.516 127.887 135.585  0.00  0.00    +0.000 A 
ATOM      8  C   UNL     1     109.943 129.384 136.286  0.00  0.00    +0.000 A 
ATOM      9  C   UNL     1     108.916 128.470 135.781  0.00  0.00    +0.000 A 
ATOM     10  C   UNL     1     109.150 129.218 136.133  0.00  0.00    +0.000 A 
ATOM     11  C   UNL     1     108.569 129.773 136.319  0.00  0.00    +0.000 A 
ATOM     12  C   UNL     1     109.574 130.661 136.810  0.00  0.00    +0.000 A 
ATOM     13  C   UNL     1     108.781 130.495 136.657  0.00  0.00    +0.000 A 
BRANCH  12  16
ATOM     14  O   UNL     1     110.111 132.245 139.128  0.00  0.00    +0.000 OA
ATOM     15  O   UNL     1     110.423 133.548 138.165  0.00  0.00    +0.000 OA
ATOM     16  C   UNL     1     109.787 131.383 137.149  0.00  0.00    +0.000 A 
ATOM     17  C   UNL     1     109.842 131.453 137.970  0.00  0.00    +0.000 A 
ATOM     18  C   UNL     1     109.943 132.035 136.668  0.00  0.00    +0.000 A 
ATOM     19  C   UNL     1     110.055 132.174 138.308  0.00  0.00    +0.000 A 
ATOM     20  C   UNL     1     110.155 132.756 137.007  0.00  0.00    +0.000 A 
ATOM     21  C   UNL     1     110.211 132.826 137.827  0.00  0.00    +0.000 A 
ENDBRANCH  12  16
ENDBRANCH   1   5
BRANCH   1  30
ATOM     22  O   UNL     1     111.097 126.850 136.818  0.00  0.00    +0.000 OA
ATOM     23  O   UNL     1     111.181 124.729 137.324  0.00  0.00    +0.000 OA
ATOM     24  O   UNL     1     110.965 124.651 135.690  0.00  0.00    +0.000 OA
ATOM     25  O   UNL     1     110.838 126.040 134.808  0.00  0.00    +0.000 OA
ATOM     26  C   UNL     1     111.161 126.157 137.259  0.00  0.00    +0.000 C 
ATOM     27  C   UNL     1     111.117 125.424 136.883  0.00  0.00    +0.000 C 
ATOM     28  C   UNL     1     111.009 125.384 136.066  0.00  0.00    +0.000 C 
ATOM     29  C   UNL     1     110.945 126.079 135.625  0.00  0.00    +0.000 C 
ATOM     30  C   UNL     1     110.989 126.812 136.001  0.00  0.00    +0.000 C 
BRANCH  26  31
ATOM     31  C   UNL     1     111.269 126.195 138.076  0.00  0.00    +0.000 C 
BRANCH  31  32
ATOM     32  O   UNL     1     111.879 126.650 138.392  0.00  0.00    +0.000 OA
BRANCH  32  37
ATOM     33  O   UNL     1     111.394 126.606 139.778  0.00  0.00    +0.000 OA
ATOM     34  O   UNL     1     113.431 126.949 139.242  0.00  0.00    +0.000 OA
ATOM     35  O   UNL     1     113.106 126.945 141.007  0.00  0.00    +0.000 OA
ATOM     36  C   UNL     1     112.697 126.830 139.600  0.00  0.00    +0.000 C 
ATOM     37  C   UNL     1     111.983 126.693 139.209  0.00  0.00    +0.000 C 
ATOM     38  C   UNL     1     112.547 126.828 140.411  0.00  0.00    +0.000 C 
ATOM     39  C   UNL     1     111.742 126.690 140.521  0.00  0.00    +0.000 C 
BRANCH  39  41
ATOM     40  O   UNL     1     110.766 126.075 141.365  0.00  0.00    +0.000 OA
ATOM     41  C   UNL     1     111.353 126.643 141.248  0.00  0.00    +0.000 C 
ENDBRANCH  39  41
ENDBRANCH  32  37
ENDBRANCH  31  32
ENDBRANCH  26  31
ENDBRANCH   1  30
TORSDOF 7
ENDMDL
MODEL 3
REMARK VINA RESULT:      -9.9      9.694     12.525
REMARK  Name = 44258078
REMARK  7 active torsions:
REMARK  status: ('A' for Active; 'I' for Inactive)
REMARK    1  A    between atoms: O_3  and  C_21
REMARK    2  A    between atoms: O_3  and  C_25
REMARK    3  A    between atoms: O_6  and  C_24
REMARK    4  A    between atoms: O_6  and  C_27
REMARK    5  A    between atoms: C_16  and  C_25
REMARK    6  A    between atoms: C_23  and  C_26
REMARK    7  A    between atoms: C_34  and  C_36
REMARK                            x       y       z     vdW  Elec       q    Type
REMARK                         _______ _______ _______ _____ _____    ______ ____
ROOT
ATOM      1  O   UNL     1     107.177 126.156 146.159  0.00  0.00    +0.000 OA
ENDROOT
BRANCH   1   5
ATOM      2  O   UNL     1     105.694 127.650 144.145  0.00  0.00    +0.000 OA
ATOM      3  O   UNL     1     106.016 128.760 146.793  0.00  0.00    +0.000 OA
ATOM      4  O   UNL     1     105.288 129.472 145.771  0.00  0.00    +0.000 OA
ATOM      5  C   UNL     1     106.747 126.824 145.936  0.00  0.00    +0.000 A 
ATOM      6  C   UNL     1     106.436 126.891 145.137  0.00  0.00    +0.000 A 
ATOM      7  C   UNL     1     106.606 127.456 146.500  0.00  0.00    +0.000 A 
ATOM      8  C   UNL     1     105.989 127.590 144.914  0.00  0.00    +0.000 A 
ATOM      9  C   UNL     1     106.157 128.148 146.258  0.00  0.00    +0.000 A 
ATOM     10  C   UNL     1     105.854 128.197 145.456  0.00  0.00    +0.000 A 
ATOM     11  C   UNL     1     105.424 128.864 145.230  0.00  0.00    +0.000 A 
ATOM     12  C   UNL     1     105.263 128.316 143.920  0.00  0.00    +0.000 A 
ATOM     13  C   UNL     1     105.128 128.923 144.462  0.00  0.00    +0.000 A 
BRANCH  12  16
ATOM     14  O   UNL     1     105.110 127.325 141.243  0.00  0.00    +0.000 OA
ATOM     15  O   UNL     1     104.082 128.553 140.848  0.00  0.00    +0.000 OA
ATOM     16  C   UNL     1     104.968 128.376 143.151  0.00  0.00    +0.000 A 
ATOM     17  C   UNL     1     105.187 127.820 142.582  0.00  0.00    +0.000 A 
ATOM     18  C   UNL     1     104.454 128.990 142.954  0.00  0.00    +0.000 A 
ATOM     19  C   UNL     1     104.891 127.880 141.814  0.00  0.00    +0.000 A 
ATOM     20  C   UNL     1     104.159 129.049 142.186  0.00  0.00    +0.000 A 
ATOM     21  C   UNL     1     104.377 128.494 141.616  0.00  0.00    +0.000 A 
ENDBRANCH  12  16
ENDBRANCH   1   5
BRANCH   1  30
ATOM     22  O   UNL     1     106.116 125.370 146.706  0.00  0.00    +0.000 OA
ATOM     23  O   UNL     1     106.023 124.164 148.523  0.00  0.00    +0.000 OA
ATOM     24  O   UNL     1     107.566 124.740 148.611  0.00  0.00    +0.000 OA
ATOM     25  O   UNL     1     108.144 125.736 147.428  0.00  0.00    +0.000 OA
ATOM     26  C   UNL     1     105.828 124.872 147.297  0.00  0.00    +0.000 C 
ATOM     27  C   UNL     1     106.311 124.662 147.932  0.00  0.00    +0.000 C 
ATOM     28  C   UNL     1     107.083 124.950 147.976  0.00  0.00    +0.000 C 
ATOM     29  C   UNL     1     107.372 125.448 147.384  0.00  0.00    +0.000 C 
ATOM     30  C   UNL     1     106.888 125.658 146.749  0.00  0.00    +0.000 C 
BRANCH  26  31
ATOM     31  C   UNL     1     105.056 124.584 147.254  0.00  0.00    +0.000 C 
BRANCH  31  32
ATOM     32  O   UNL     1     104.782 124.240 146.556  0.00  0.00    +0.000 OA
BRANCH  32  37
ATOM     33  O   UNL     1     103.346 124.394 146.829  0.00  0.00    +0.000 OA
ATOM     34  O   UNL     1     104.169 122.815 145.653  0.00  0.00    +0.000 OA
ATOM     35  O   UNL     1     102.385 122.771 145.831  0.00  0.00    +0.000 OA
ATOM     36  C   UNL     1     103.711 123.355 146.076  0.00  0.00    +0.000 C 
ATOM     37  C   UNL     1     103.992 124.010 146.491  0.00  0.00    +0.000 C 
ATOM     38  C   UNL     1     102.890 123.335 146.158  0.00  0.00    +0.000 C 
ATOM     39  C   UNL     1     102.665 123.977 146.623  0.00  0.00    +0.000 C 
BRANCH  39  41
ATOM     40  O   UNL     1     101.760 124.717 147.446  0.00  0.00    +0.000 OA
ATOM     41  C   UNL     1     101.893 124.168 146.844  0.00  0.00    +0.000 C 
ENDBRANCH  39  41
ENDBRANCH  32  37
ENDBRANCH  31  32
ENDBRANCH  26  31
ENDBRANCH   1  30
TORSDOF 7
ENDMDL
MODEL 4
REMARK VINA RESULT:      -9.9      6.511      9.725
REMARK  Name = 44258078
REMARK  7 active torsions:
REMARK  status: ('A' for Active; 'I' for Inactive)
REMARK    1  A    between atoms: O_3  and  C_21
REMARK    2  A    between atoms: O_3  and  C_25
REMARK    3  A    between atoms: O_6  and  C_24
REMARK    4  A    between atoms: O_6  and  C_27
REMARK    5  A    between atoms: C_16  and  C_25
REMARK    6  A    between atoms: C_23  and  C_26
REMARK    7  A    between atoms: C_34  and  C_36
REMARK                            x       y       z     vdW  Elec       q    Type
REMARK                         _______ _______ _______ _____ _____    ______ ____
ROOT
ATOM      1  O   UNL     1     105.042 128.225 143.101  0.00  0.00    +0.000 OA
ENDROOT
BRANCH   1   5
ATOM      2  O   UNL     1     103.253 130.267 142.044  0.00  0.00    +0.000 OA
ATOM      3  O   UNL     1     103.839 127.925 140.457  0.00  0.00    +0.000 OA
ATOM      4  O   UNL     1     102.958 128.955 139.966  0.00  0.00    +0.000 OA
ATOM      5  C   UNL     1     104.555 128.507 142.498  0.00  0.00    +0.000 A 
ATOM      6  C   UNL     1     104.147 129.259 142.587  0.00  0.00    +0.000 A 
ATOM      7  C   UNL     1     104.452 128.053 141.776  0.00  0.00    +0.000 A 
ATOM      8  C   UNL     1     103.643 129.545 141.953  0.00  0.00    +0.000 A 
ATOM      9  C   UNL     1     103.944 128.355 141.154  0.00  0.00    +0.000 A 
ATOM     10  C   UNL     1     103.544 129.108 141.261  0.00  0.00    +0.000 A 
ATOM     11  C   UNL     1     103.057 129.392 140.659  0.00  0.00    +0.000 A 
ATOM     12  C   UNL     1     102.766 130.551 141.443  0.00  0.00    +0.000 A 
ATOM     13  C   UNL     1     102.668 130.114 140.750  0.00  0.00    +0.000 A 
BRANCH  12  16
ATOM     14  O   UNL     1     102.740 133.398 141.187  0.00  0.00    +0.000 OA
ATOM     15  O   UNL     1     101.211 133.439 141.806  0.00  0.00    +0.000 OA
ATOM     16  C   UNL     1     102.377 131.273 141.534  0.00  0.00    +0.000 A 
ATOM     17  C   UNL     1     102.753 131.975 141.315  0.00  0.00    +0.000 A 
ATOM     18  C   UNL     1     101.613 131.294 141.843  0.00  0.00    +0.000 A 
ATOM     19  C   UNL     1     102.364 132.696 141.406  0.00  0.00    +0.000 A 
ATOM     20  C   UNL     1     101.225 132.016 141.934  0.00  0.00    +0.000 A 
ATOM     21  C   UNL     1     101.600 132.717 141.715  0.00  0.00    +0.000 A 
ENDBRANCH  12  16
ENDBRANCH   1   5
BRANCH   1  30
ATOM     22  O   UNL     1     106.291 128.407 142.432  0.00  0.00    +0.000 OA
ATOM     23  O   UNL     1     108.092 127.173 142.405  0.00  0.00    +0.000 OA
ATOM     24  O   UNL     1     107.118 126.283 143.396  0.00  0.00    +0.000 OA
ATOM     25  O   UNL     1     105.593 126.808 143.744  0.00  0.00    +0.000 OA
ATOM     26  C   UNL     1     107.053 128.145 142.258  0.00  0.00    +0.000 C 
ATOM     27  C   UNL     1     107.329 127.437 142.579  0.00  0.00    +0.000 C 
ATOM     28  C   UNL     1     106.842 126.991 143.074  0.00  0.00    +0.000 C 
ATOM     29  C   UNL     1     106.079 127.254 143.249  0.00  0.00    +0.000 C 
ATOM     30  C   UNL     1     105.804 127.962 142.927  0.00  0.00    +0.000 C 
BRANCH  26  31
ATOM     31  C   UNL     1     107.541 128.590 141.763  0.00  0.00    +0.000 C 
BRANCH  31  32
ATOM     32  O   UNL     1     107.530 129.413 141.804  0.00  0.00    +0.000 OA
BRANCH  32  37
ATOM     33  O   UNL     1     108.166 129.686 140.507  0.00  0.00    +0.000 OA
ATOM     34  O   UNL     1     108.392 130.929 142.227  0.00  0.00    +0.000 OA
ATOM     35  O   UNL     1     109.277 131.490 140.770  0.00  0.00    +0.000 OA
ATOM     36  C   UNL     1     108.401 130.556 141.492  0.00  0.00    +0.000 C 
ATOM     37  C   UNL     1     108.005 129.859 141.297  0.00  0.00    +0.000 C 
ATOM     38  C   UNL     1     108.808 130.813 140.822  0.00  0.00    +0.000 C 
ATOM     39  C   UNL     1     108.663 130.276 140.214  0.00  0.00    +0.000 C 
BRANCH  39  41
ATOM     40  O   UNL     1     108.677 129.812 138.862  0.00  0.00    +0.000 OA
ATOM     41  C   UNL     1     108.962 130.321 139.446  0.00  0.00    +0.000 C 
ENDBRANCH  39  41
ENDBRANCH  32  37
ENDBRANCH  31  32
ENDBRANCH  26  31
ENDBRANCH   1  30
TORSDOF 7
ENDMDL
MODEL 5
REMARK VINA RESULT:      -9.9      1.817      3.643
REMARK  Name = 44258078
REMARK  7 active torsions:
REMARK  status: ('A' for Active; 'I' for Inactive)
REMARK    1  A    between atoms: O_3  and  C_21
REMARK    2  A    between atoms: O_3  and  C_25
REMARK    3  A    between atoms: O_6  and  C_24
REMARK    4  A    between atoms: O_6  and  C_27
REMARK    5  A    between atoms: C_16  and  C_25
REMARK    6  A    between atoms: C_23  and  C_26
REMARK    7  A    between atoms: C_34  and  C_36
REMARK                            x       y       z     vdW  Elec       q    Type
REMARK                         _______ _______ _______ _____ _____    ______ ____
ROOT
ATOM      1  O   UNL     1     109.128 128.198 136.645  0.00  0.00    +0.000 OA
ENDROOT
BRANCH   1   5
ATOM      2  O   UNL     1     111.395 126.370 136.635  0.00  0.00    +0.000 OA
ATOM      3  O   UNL     1     109.191 125.917 134.823  0.00  0.00    +0.000 OA
ATOM      4  O   UNL     1     110.330 125.032 134.845  0.00  0.00    +0.000 OA
ATOM      5  C   UNL     1     109.506 127.529 136.346  0.00  0.00    +0.000 A 
ATOM      6  C   UNL     1     110.273 127.291 136.654  0.00  0.00    +0.000 A 
ATOM      7  C   UNL     1     109.137 127.064 135.725  0.00  0.00    +0.000 A 
ATOM      8  C   UNL     1     110.659 126.593 136.336  0.00  0.00    +0.000 A 
ATOM      9  C   UNL     1     109.538 126.369 135.420  0.00  0.00    +0.000 A 
ATOM     10  C   UNL     1     110.304 126.147 135.739  0.00  0.00    +0.000 A 
ATOM     11  C   UNL     1     110.685 125.478 135.442  0.00  0.00    +0.000 A 
ATOM     12  C   UNL     1     111.776 125.701 136.337  0.00  0.00    +0.000 A 
ATOM     13  C   UNL     1     111.420 125.255 135.741  0.00  0.00    +0.000 A 
BRANCH  12  16
ATOM     14  O   UNL     1     114.602 126.091 136.501  0.00  0.00    +0.000 OA
ATOM     15  O   UNL     1     114.719 124.809 137.533  0.00  0.00    +0.000 OA
ATOM     16  C   UNL     1     112.512 125.478 136.636  0.00  0.00    +0.000 A 
ATOM     17  C   UNL     1     113.189 125.896 136.419  0.00  0.00    +0.000 A 
ATOM     18  C   UNL     1     112.570 124.837 137.153  0.00  0.00    +0.000 A 
ATOM     19  C   UNL     1     113.925 125.673 136.718  0.00  0.00    +0.000 A 
ATOM     20  C   UNL     1     113.306 124.614 137.451  0.00  0.00    +0.000 A 
ATOM     21  C   UNL     1     113.983 125.032 137.234  0.00  0.00    +0.000 A 
ENDBRANCH  12  16
ENDBRANCH   1   5
BRANCH   1  30
ATOM     22  O   UNL     1     110.059 129.208 136.251  0.00  0.00    +0.000 OA
ATOM     23  O   UNL     1     109.743 131.165 135.337  0.00  0.00    +0.000 OA
ATOM     24  O   UNL     1     108.189 130.629 135.473  0.00  0.00    +0.000 OA
ATOM     25  O   UNL     1     107.881 129.146 136.127  0.00  0.00    +0.000 OA
ATOM     26  C   UNL     1     110.213 129.949 135.924  0.00  0.00    +0.000 C 
ATOM     27  C   UNL     1     109.590 130.423 135.665  0.00  0.00    +0.000 C 
ATOM     28  C   UNL     1     108.812 130.156 135.732  0.00  0.00    +0.000 C 
ATOM     29  C   UNL     1     108.658 129.413 136.059  0.00  0.00    +0.000 C 
ATOM     30  C   UNL     1     109.282 128.939 136.319  0.00  0.00    +0.000 C 
BRANCH  26  31
ATOM     31  C   UNL     1     110.990 130.217 135.856  0.00  0.00    +0.000 C 
BRANCH  31  32
ATOM     32  O   UNL     1     111.480 130.237 136.519  0.00  0.00    +0.000 OA
BRANCH  32  37
ATOM     33  O   UNL     1     112.738 129.776 135.916  0.00  0.00    +0.000 OA
ATOM     34  O   UNL     1     112.622 131.305 137.400  0.00  0.00    +0.000 OA
ATOM     35  O   UNL     1     114.282 130.931 136.831  0.00  0.00    +0.000 OA
ATOM     36  C   UNL     1     112.825 130.741 136.833  0.00  0.00    +0.000 C 
ATOM     37  C   UNL     1     112.300 130.250 136.428  0.00  0.00    +0.000 C 
ATOM     38  C   UNL     1     113.588 130.569 136.571  0.00  0.00    +0.000 C 
ATOM     39  C   UNL     1     113.534 129.973 136.004  0.00  0.00    +0.000 C 
BRANCH  39  41
ATOM     40  O   UNL     1     114.023 129.090 134.993  0.00  0.00    +0.000 OA
ATOM     41  C   UNL     1     114.167 129.633 135.597  0.00  0.00    +0.000 C 
ENDBRANCH  39  41
ENDBRANCH  32  37
ENDBRANCH  31  32
ENDBRANCH  26  31
ENDBRANCH   1  30
TORSDOF 7
ENDMDL
MODEL 6
REMARK VINA RESULT:      -9.9      1.888      3.208
REMARK  Name = 44258078
REMARK  7 active torsions:
REMARK  status: ('A' for Active; 'I' for Inactive)
REMARK    1  A    between atoms: O_3  and  C_21
REMARK    2  A    between atoms: O_3  and  C_25
REMARK    3  A    between atoms: O_6  and  C_24
REMARK    4  A    between atoms: O_6  and  C_27
REMARK    5  A    between atoms: C_16  and  C_25
REMARK    6  A    between atoms: C_23  and  C_26
REMARK    7  A    between atoms: C_34  and  C_36
REMARK                            x       y       z     vdW  Elec       q    Type
REMARK                         _______ _______ _______ _____ _____    ______ ____
ROOT
ATOM      1  O   UNL     1     111.927 129.863 135.893  0.00  0.00    +0.000 OA
ENDROOT
BRANCH   1   5
ATOM      2  O   UNL     1     112.297 127.039 136.504  0.00  0.00    +0.000 OA
ATOM      3  O   UNL     1     114.562 128.624 135.663  0.00  0.00    +0.000 OA
ATOM      4  O   UNL     1     114.708 127.223 135.973  0.00  0.00    +0.000 OA
ATOM      5  C   UNL     1     112.417 129.203 135.954  0.00  0.00    +0.000 A 
ATOM      6  C   UNL     1     112.094 128.445 136.203  0.00  0.00    +0.000 A 
ATOM      7  C   UNL     1     113.254 129.266 135.770  0.00  0.00    +0.000 A 
ATOM      8  C   UNL     1     112.613 127.763 136.264  0.00  0.00    +0.000 A 
ATOM      9  C   UNL     1     113.757 128.572 135.837  0.00  0.00    +0.000 A 
ATOM     10  C   UNL     1     113.416 127.825 136.088  0.00  0.00    +0.000 A 
ATOM     11  C   UNL     1     113.904 127.162 136.150  0.00  0.00    +0.000 A 
ATOM     12  C   UNL     1     112.785 126.377 136.566  0.00  0.00    +0.000 A 
ATOM     13  C   UNL     1     113.588 126.438 136.389  0.00  0.00    +0.000 A 
BRANCH  12  16
ATOM     14  O   UNL     1     111.298 124.828 138.452  0.00  0.00    +0.000 OA
ATOM     15  O   UNL     1     111.522 123.482 137.524  0.00  0.00    +0.000 OA
ATOM     16  C   UNL     1     112.469 125.653 136.805  0.00  0.00    +0.000 A 
ATOM     17  C   UNL     1     112.041 125.603 137.509  0.00  0.00    +0.000 A 
ATOM     18  C   UNL     1     112.582 124.980 136.341  0.00  0.00    +0.000 A 
ATOM     19  C   UNL     1     111.726 124.879 137.749  0.00  0.00    +0.000 A 
ATOM     20  C   UNL     1     112.266 124.257 136.581  0.00  0.00    +0.000 A 
ATOM     21  C   UNL     1     111.838 124.206 137.284  0.00  0.00    +0.000 A 
ENDBRANCH  12  16
ENDBRANCH   1   5
BRANCH   1  30
ATOM     22  O   UNL     1     112.276 130.313 137.204  0.00  0.00    +0.000 OA
ATOM     23  O   UNL     1     111.248 131.669 138.570  0.00  0.00    +0.000 OA
ATOM     24  O   UNL     1     110.211 131.674 137.287  0.00  0.00    +0.000 OA
ATOM     25  O   UNL     1     110.550 130.771 135.948  0.00  0.00    +0.000 OA
ATOM     26  C   UNL     1     112.107 130.764 137.872  0.00  0.00    +0.000 C 
ATOM     27  C   UNL     1     111.418 131.217 137.900  0.00  0.00    +0.000 C 
ATOM     28  C   UNL     1     110.899 131.220 137.259  0.00  0.00    +0.000 C 
ATOM     29  C   UNL     1     111.069 130.768 136.589  0.00  0.00    +0.000 C 
ATOM     30  C   UNL     1     111.758 130.314 136.562  0.00  0.00    +0.000 C 
BRANCH  26  31
ATOM     31  C   UNL     1     112.625 130.762 138.515  0.00  0.00    +0.000 C 
BRANCH  31  32
ATOM     32  O   UNL     1     112.772 130.062 138.925  0.00  0.00    +0.000 OA
BRANCH  32  37
ATOM     33  O   UNL     1     113.840 130.655 139.742  0.00  0.00    +0.000 OA
ATOM     34  O   UNL     1     113.432 128.562 139.656  0.00  0.00    +0.000 OA
ATOM     35  O   UNL     1     114.792 129.021 140.733  0.00  0.00    +0.000 OA
ATOM     36  C   UNL     1     113.706 129.328 139.791  0.00  0.00    +0.000 C 
ATOM     37  C   UNL     1     113.403 130.018 139.455  0.00  0.00    +0.000 C 
ATOM     38  C   UNL     1     114.331 129.540 140.286  0.00  0.00    +0.000 C 
ATOM     39  C   UNL     1     114.414 130.359 140.256  0.00  0.00    +0.000 C 
BRANCH  39  41
ATOM     40  O   UNL     1     114.854 131.615 140.777  0.00  0.00    +0.000 OA
ATOM     41  C   UNL     1     114.973 130.806 140.668  0.00  0.00    +0.000 C 
ENDBRANCH  39  41
ENDBRANCH  32  37
ENDBRANCH  31  32
ENDBRANCH  26  31
ENDBRANCH   1  30
TORSDOF 7
ENDMDL
MODEL 7
REMARK VINA RESULT:      -9.8      2.170      3.238
REMARK  Name = 44258078
REMARK  7 active torsions:
REMARK  status: ('A' for Active; 'I' for Inactive)
REMARK    1  A    between atoms: O_3  and  C_21
REMARK    2  A    between atoms: O_3  and  C_25
REMARK    3  A    between atoms: O_6  and  C_24
REMARK    4  A    between atoms: O_6  and  C_27
REMARK    5  A    between atoms: C_16  and  C_25
REMARK    6  A    between atoms: C_23  and  C_26
REMARK    7  A    between atoms: C_34  and  C_36
REMARK                            x       y       z     vdW  Elec       q    Type
REMARK                         _______ _______ _______ _____ _____    ______ ____
ROOT
ATOM      1  O   UNL     1     110.395 128.729 135.201  0.00  0.00    +0.000 OA
ENDROOT
BRANCH   1   5
ATOM      2  O   UNL     1     112.162 126.640 136.201  0.00  0.00    +0.000 OA
ATOM      3  O   UNL     1     109.657 125.914 134.959  0.00  0.00    +0.000 OA
ATOM      4  O   UNL     1     110.556 124.906 135.465  0.00  0.00    +0.000 OA
ATOM      5  C   UNL     1     110.561 127.931 135.324  0.00  0.00    +0.000 A 
ATOM      6  C   UNL     1     111.293 127.695 135.708  0.00  0.00    +0.000 A 
ATOM      7  C   UNL     1     110.004 127.328 135.069  0.00  0.00    +0.000 A 
ATOM      8  C   UNL     1     111.458 126.861 135.832  0.00  0.00    +0.000 A 
ATOM      9  C   UNL     1     110.186 126.499 135.201  0.00  0.00    +0.000 A 
ATOM     10  C   UNL     1     110.922 126.283 135.586  0.00  0.00    +0.000 A 
ATOM     11  C   UNL     1     111.091 125.485 135.710  0.00  0.00    +0.000 A 
ATOM     12  C   UNL     1     112.331 125.843 136.325  0.00  0.00    +0.000 A 
ATOM     13  C   UNL     1     111.795 125.265 136.079  0.00  0.00    +0.000 A 
BRANCH  12  16
ATOM     14  O   UNL     1     115.099 125.149 136.163  0.00  0.00    +0.000 OA
ATOM     15  O   UNL     1     115.147 124.962 137.801  0.00  0.00    +0.000 OA
ATOM     16  C   UNL     1     113.035 125.622 136.694  0.00  0.00    +0.000 A 
ATOM     17  C   UNL     1     113.715 125.496 136.243  0.00  0.00    +0.000 A 
ATOM     18  C   UNL     1     113.059 125.529 137.514  0.00  0.00    +0.000 A 
ATOM     19  C   UNL     1     114.419 125.276 136.613  0.00  0.00    +0.000 A 
ATOM     20  C   UNL     1     113.763 125.309 137.882  0.00  0.00    +0.000 A 
ATOM     21  C   UNL     1     114.443 125.182 137.432  0.00  0.00    +0.000 A 
ENDBRANCH  12  16
ENDBRANCH   1   5
BRANCH   1  30
ATOM     22  O   UNL     1     110.128 129.186 136.529  0.00  0.00    +0.000 OA
ATOM     23  O   UNL     1     108.472 130.360 137.331  0.00  0.00    +0.000 OA
ATOM     24  O   UNL     1     108.043 130.262 135.740  0.00  0.00    +0.000 OA
ATOM     25  O   UNL     1     109.005 129.446 134.676  0.00  0.00    +0.000 OA
ATOM     26  C   UNL     1     109.648 129.593 137.061  0.00  0.00    +0.000 C 
ATOM     27  C   UNL     1     108.953 129.952 136.798  0.00  0.00    +0.000 C 
ATOM     28  C   UNL     1     108.738 129.903 136.003  0.00  0.00    +0.000 C 
ATOM     29  C   UNL     1     109.219 129.495 135.471  0.00  0.00    +0.000 C 
ATOM     30  C   UNL     1     109.914 129.137 135.733  0.00  0.00    +0.000 C 
BRANCH  26  31
ATOM     31  C   UNL     1     109.861 129.643 137.857  0.00  0.00    +0.000 C 
BRANCH  31  32
ATOM     32  O   UNL     1     110.619 129.892 138.066  0.00  0.00    +0.000 OA
BRANCH  32  37
ATOM     33  O   UNL     1     110.580 129.417 139.457  0.00  0.00    +0.000 OA
ATOM     34  O   UNL     1     111.742 131.083 138.801  0.00  0.00    +0.000 OA
ATOM     35  O   UNL     1     111.875 130.713 140.552  0.00  0.00    +0.000 OA
ATOM     36  C   UNL     1     111.355 130.473 139.199  0.00  0.00    +0.000 C 
ATOM     37  C   UNL     1     110.838 129.925 138.861  0.00  0.00    +0.000 C 
ATOM     38  C   UNL     1     111.415 130.302 140.003  0.00  0.00    +0.000 C 
ATOM     39  C   UNL     1     110.937 129.650 140.163  0.00  0.00    +0.000 C 
BRANCH  39  41
ATOM     40  O   UNL     1     110.489 128.546 140.951  0.00  0.00    +0.000 OA
ATOM     41  C   UNL     1     110.834 129.293 140.900  0.00  0.00    +0.000 C 
ENDBRANCH  39  41
ENDBRANCH  32  37
ENDBRANCH  31  32
ENDBRANCH  26  31
ENDBRANCH   1  30
TORSDOF 7
ENDMDL
MODEL 8
REMARK VINA RESULT:      -9.6      1.850      5.523
REMARK  Name = 44258078
REMARK  7 active torsions:
REMARK  status: ('A' for Active; 'I' for Inactive)
REMARK    1  A    between atoms: O_3  and  C_21
REMARK    2  A    between atoms: O_3  and  C_25
REMARK    3  A    between atoms: O_6  and  C_24
REMARK    4  A    between atoms: O_6  and  C_27
REMARK    5  A    between atoms: C_16  and  C_25
REMARK    6  A    between atoms: C_23  and  C_26
REMARK    7  A    between atoms: C_34  and  C_36
REMARK                            x       y       z     vdW  Elec       q    Type
REMARK                         _______ _______ _______ _____ _____    ______ ____
ROOT
ATOM      1  O   UNL     1     111.020 127.148 135.733  0.00  0.00    +0.000 OA
ENDROOT
BRANCH   1   5
ATOM      2  O   UNL     1     111.153 129.857 136.795  0.00  0.00    +0.000 OA
ATOM      3  O   UNL     1     113.542 128.621 135.742  0.00  0.00    +0.000 OA
ATOM      4  O   UNL     1     113.571 129.961 136.275  0.00  0.00    +0.000 OA
ATOM      5  C   UNL     1     111.454 127.828 135.907  0.00  0.00    +0.000 A 
ATOM      6  C   UNL     1     111.069 128.506 136.270  0.00  0.00    +0.000 A 
ATOM      7  C   UNL     1     112.293 127.865 135.727  0.00  0.00    +0.000 A 
ATOM      8  C   UNL     1     111.528 129.210 136.447  0.00  0.00    +0.000 A 
ATOM      9  C   UNL     1     112.736 128.577 135.911  0.00  0.00    +0.000 A 
ATOM     10  C   UNL     1     112.334 129.244 136.273  0.00  0.00    +0.000 A 
ATOM     11  C   UNL     1     112.765 129.926 136.448  0.00  0.00    +0.000 A 
ATOM     12  C   UNL     1     111.584 130.539 136.969  0.00  0.00    +0.000 A 
ATOM     13  C   UNL     1     112.390 130.573 136.796  0.00  0.00    +0.000 A 
BRANCH  12  16
ATOM     14  O   UNL     1     110.460 131.804 139.273  0.00  0.00    +0.000 OA
ATOM     15  O   UNL     1     110.085 133.127 138.362  0.00  0.00    +0.000 OA
ATOM     16  C   UNL     1     111.209 131.186 137.318  0.00  0.00    +0.000 A 
ATOM     17  C   UNL     1     111.022 131.171 138.121  0.00  0.00    +0.000 A 
ATOM     18  C   UNL     1     111.022 131.848 136.862  0.00  0.00    +0.000 A 
ATOM     19  C   UNL     1     110.647 131.818 138.469  0.00  0.00    +0.000 A 
ATOM     20  C   UNL     1     110.647 132.495 137.211  0.00  0.00    +0.000 A 
ATOM     21  C   UNL     1     110.460 132.480 138.014  0.00  0.00    +0.000 A 
ENDBRANCH  12  16
ENDBRANCH   1   5
BRANCH   1  30
ATOM     22  O   UNL     1     111.292 126.504 136.979  0.00  0.00    +0.000 OA
ATOM     23  O   UNL     1     111.509 124.390 137.478  0.00  0.00    +0.000 OA
ATOM     24  O   UNL     1     111.210 124.299 135.858  0.00  0.00    +0.000 OA
ATOM     25  O   UNL     1     110.966 125.678 134.985  0.00  0.00    +0.000 OA
ATOM     26  C   UNL     1     111.414 125.815 137.415  0.00  0.00    +0.000 C 
ATOM     27  C   UNL     1     111.387 125.080 137.041  0.00  0.00    +0.000 C 
ATOM     28  C   UNL     1     111.237 125.034 136.232  0.00  0.00    +0.000 C 
ATOM     29  C   UNL     1     111.115 125.724 135.795  0.00  0.00    +0.000 C 
ATOM     30  C   UNL     1     111.142 126.459 136.169  0.00  0.00    +0.000 C 
BRANCH  26  31
ATOM     31  C   UNL     1     111.564 125.860 138.226  0.00  0.00    +0.000 C 
BRANCH  31  32
ATOM     32  O   UNL     1     112.241 126.242 138.500  0.00  0.00    +0.000 OA
BRANCH  32  37
ATOM     33  O   UNL     1     111.777 126.269 139.895  0.00  0.00    +0.000 OA
ATOM     34  O   UNL     1     113.459 127.370 139.181  0.00  0.00    +0.000 OA
ATOM     35  O   UNL     1     113.107 127.580 140.927  0.00  0.00    +0.000 OA
ATOM     36  C   UNL     1     112.845 127.011 139.598  0.00  0.00    +0.000 C 
ATOM     37  C   UNL     1     112.284 126.492 139.285  0.00  0.00    +0.000 C 
ATOM     38  C   UNL     1     112.683 127.108 140.401  0.00  0.00    +0.000 C 
ATOM     39  C   UNL     1     112.023 126.649 140.584  0.00  0.00    +0.000 C 
BRANCH  39  41
ATOM     40  O   UNL     1     110.997 126.114 141.424  0.00  0.00    +0.000 OA
ATOM     41  C   UNL     1     111.670 126.582 141.328  0.00  0.00    +0.000 C 
ENDBRANCH  39  41
ENDBRANCH  32  37
ENDBRANCH  31  32
ENDBRANCH  26  31
ENDBRANCH   1  30
TORSDOF 7
ENDMDL
MODEL 9
REMARK VINA RESULT:      -9.6      2.396      3.815
REMARK  Name = 44258078
REMARK  7 active torsions:
REMARK  status: ('A' for Active; 'I' for Inactive)
REMARK    1  A    between atoms: O_3  and  C_21
REMARK    2  A    between atoms: O_3  and  C_25
REMARK    3  A    between atoms: O_6  and  C_24
REMARK    4  A    between atoms: O_6  and  C_27
REMARK    5  A    between atoms: C_16  and  C_25
REMARK    6  A    between atoms: C_23  and  C_26
REMARK    7  A    between atoms: C_34  and  C_36
REMARK                            x       y       z     vdW  Elec       q    Type
REMARK                         _______ _______ _______ _____ _____    ______ ____
ROOT
ATOM      1  O   UNL     1     109.953 129.149 138.037  0.00  0.00    +0.000 OA
ENDROOT
BRANCH   1   5
ATOM      2  O   UNL     1     111.982 127.202 137.276  0.00  0.00    +0.000 OA
ATOM      3  O   UNL     1     111.654 129.606 135.707  0.00  0.00    +0.000 OA
ATOM      4  O   UNL     1     112.649 128.621 135.360  0.00  0.00    +0.000 OA
ATOM      5  C   UNL     1     110.560 128.908 137.533  0.00  0.00    +0.000 A 
ATOM      6  C   UNL     1     110.966 128.162 137.670  0.00  0.00    +0.000 A 
ATOM      7  C   UNL     1     110.792 129.399 136.868  0.00  0.00    +0.000 A 
ATOM      8  C   UNL     1     111.597 127.919 137.140  0.00  0.00    +0.000 A 
ATOM      9  C   UNL     1     111.425 129.140 136.349  0.00  0.00    +0.000 A 
ATOM     10  C   UNL     1     111.819 128.392 136.501  0.00  0.00    +0.000 A 
ATOM     11  C   UNL     1     112.426 128.148 135.999  0.00  0.00    +0.000 A 
ATOM     12  C   UNL     1     112.590 126.959 136.774  0.00  0.00    +0.000 A 
ATOM     13  C   UNL     1     112.812 127.432 136.135  0.00  0.00    +0.000 A 
BRANCH  12  16
ATOM     14  O   UNL     1     114.635 125.461 138.093  0.00  0.00    +0.000 OA
ATOM     15  O   UNL     1     114.132 124.093 137.319  0.00  0.00    +0.000 OA
ATOM     16  C   UNL     1     112.975 126.242 136.910  0.00  0.00    +0.000 A 
ATOM     17  C   UNL     1     113.613 126.210 137.434  0.00  0.00    +0.000 A 
ATOM     18  C   UNL     1     112.724 125.558 136.523  0.00  0.00    +0.000 A 
ATOM     19  C   UNL     1     113.998 125.494 137.570  0.00  0.00    +0.000 A 
ATOM     20  C   UNL     1     113.109 124.842 136.660  0.00  0.00    +0.000 A 
ATOM     21  C   UNL     1     113.747 124.810 137.183  0.00  0.00    +0.000 A 
ENDBRANCH  12  16
ENDBRANCH   1   5
BRANCH   1  30
ATOM     22  O   UNL     1     110.831 129.806 138.953  0.00  0.00    +0.000 OA
ATOM     23  O   UNL     1     110.504 131.516 140.269  0.00  0.00    +0.000 OA
ATOM     24  O   UNL     1     109.023 131.386 139.553  0.00  0.00    +0.000 OA
ATOM     25  O   UNL     1     108.748 130.203 138.437  0.00  0.00    +0.000 OA
ATOM     26  C   UNL     1     110.969 130.397 139.511  0.00  0.00    +0.000 C 
ATOM     27  C   UNL     1     110.366 130.924 139.711  0.00  0.00    +0.000 C 
ATOM     28  C   UNL     1     109.626 130.859 139.353  0.00  0.00    +0.000 C 
ATOM     29  C   UNL     1     109.488 130.267 138.794  0.00  0.00    +0.000 C 
ATOM     30  C   UNL     1     110.091 129.740 138.594  0.00  0.00    +0.000 C 
BRANCH  26  31
ATOM     31  C   UNL     1     111.709 130.462 139.869  0.00  0.00    +0.000 C 
BRANCH  31  32
ATOM     32  O   UNL     1     112.105 129.786 140.125  0.00  0.00    +0.000 OA
BRANCH  32  37
ATOM     33  O   UNL     1     113.321 130.514 140.516  0.00  0.00    +0.000 OA
ATOM     34  O   UNL     1     113.234 128.397 140.257  0.00  0.00    +0.000 OA
ATOM     35  O   UNL     1     114.842 129.033 140.736  0.00  0.00    +0.000 OA
ATOM     36  C   UNL     1     113.422 129.189 140.393  0.00  0.00    +0.000 C 
ATOM     37  C   UNL     1     112.903 129.828 140.333  0.00  0.00    +0.000 C 
ATOM     38  C   UNL     1     114.161 129.482 140.613  0.00  0.00    +0.000 C 
ATOM     39  C   UNL     1     114.099 130.300 140.689  0.00  0.00    +0.000 C 
BRANCH  39  41
ATOM     40  O   UNL     1     114.530 131.561 141.206  0.00  0.00    +0.000 OA
ATOM     41  C   UNL     1     114.708 130.815 140.901  0.00  0.00    +0.000 C 
ENDBRANCH  39  41
ENDBRANCH  32  37
ENDBRANCH  31  32
ENDBRANCH  26  31
ENDBRANCH   1  30
TORSDOF 7
ENDMDL
MODEL 10
REMARK VINA RESULT:      -9.6      2.301      3.520
REMARK  Name = 44258078
REMARK  7 active torsions:
REMARK  status: ('A' for Active; 'I' for Inactive)
REMARK    1  A    between atoms: O_3  and  C_21
REMARK    2  A    between atoms: O_3  and  C_25
REMARK    3  A    between atoms: O_6  and  C_24
REMARK    4  A    between atoms: O_6  and  C_27
REMARK    5  A    between atoms: C_16  and  C_25
REMARK    6  A    between atoms: C_23  and  C_26
REMARK    7  A    between atoms: C_34  and  C_36
REMARK                            x       y       z     vdW  Elec       q    Type
REMARK                         _______ _______ _______ _____ _____    ______ ____
ROOT
ATOM      1  O   UNL     1     113.646 127.766 139.623  0.00  0.00    +0.000 OA
ENDROOT
BRANCH   1   5
ATOM      2  O   UNL     1     111.724 126.535 137.813  0.00  0.00    +0.000 OA
ATOM      3  O   UNL     1     111.431 126.173 140.664  0.00  0.00    +0.000 OA
ATOM      4  O   UNL     1     110.498 125.578 139.738  0.00  0.00    +0.000 OA
ATOM      5  C   UNL     1     112.973 127.306 139.499  0.00  0.00    +0.000 A 
ATOM      6  C   UNL     1     112.692 127.156 138.700  0.00  0.00    +0.000 A 
ATOM      7  C   UNL     1     112.547 126.974 140.167  0.00  0.00    +0.000 A 
ATOM      8  C   UNL     1     111.989 126.676 138.581  0.00  0.00    +0.000 A 
ATOM      9  C   UNL     1     111.846 126.496 140.028  0.00  0.00    +0.000 A 
ATOM     10  C   UNL     1     111.581 126.357 139.223  0.00  0.00    +0.000 A 
ATOM     11  C   UNL     1     110.907 125.897 139.097  0.00  0.00    +0.000 A 
ATOM     12  C   UNL     1     111.051 126.075 137.686  0.00  0.00    +0.000 A 
ATOM     13  C   UNL     1     110.642 125.757 138.328  0.00  0.00    +0.000 A 
BRANCH  12  16
ATOM     14  O   UNL     1     109.301 126.708 135.517  0.00  0.00    +0.000 OA
ATOM     15  O   UNL     1     109.991 125.513 134.612  0.00  0.00    +0.000 OA
ATOM     16  C   UNL     1     110.786 125.935 136.917  0.00  0.00    +0.000 A 
ATOM     17  C   UNL     1     110.175 126.392 136.602  0.00  0.00    +0.000 A 
ATOM     18  C   UNL     1     111.131 125.337 136.465  0.00  0.00    +0.000 A 
ATOM     19  C   UNL     1     109.911 126.251 135.833  0.00  0.00    +0.000 A 
ATOM     20  C   UNL     1     110.866 125.197 135.697  0.00  0.00    +0.000 A 
ATOM     21  C   UNL     1     110.256 125.654 135.381  0.00  0.00    +0.000 A 
ENDBRANCH  12  16
ENDBRANCH   1   5
BRANCH   1  30
ATOM     22  O   UNL     1     113.030 129.043 139.443  0.00  0.00    +0.000 OA
ATOM     23  O   UNL     1     113.343 130.939 140.478  0.00  0.00    +0.000 OA
ATOM     24  O   UNL     1     114.424 129.972 141.265  0.00  0.00    +0.000 OA
ATOM     25  O   UNL     1     114.576 128.385 140.837  0.00  0.00    +0.000 OA
ATOM     26  C   UNL     1     112.954 129.835 139.657  0.00  0.00    +0.000 C 
ATOM     27  C   UNL     1     113.419 130.145 140.264  0.00  0.00    +0.000 C 
ATOM     28  C   UNL     1     113.959 129.662 140.658  0.00  0.00    +0.000 C 
ATOM     29  C   UNL     1     114.035 128.868 140.443  0.00  0.00    +0.000 C 
ATOM     30  C   UNL     1     113.570 128.558 139.836  0.00  0.00    +0.000 C 
BRANCH  26  31
ATOM     31  C   UNL     1     112.414 130.320 139.263  0.00  0.00    +0.000 C 
BRANCH  31  32
ATOM     32  O   UNL     1     112.234 130.179 138.471  0.00  0.00    +0.000 OA
BRANCH  32  37
ATOM     33  O   UNL     1     111.299 131.312 138.400  0.00  0.00    +0.000 OA
ATOM     34  O   UNL     1     111.738 130.027 136.753  0.00  0.00    +0.000 OA
ATOM     35  O   UNL     1     110.561 131.334 136.398  0.00  0.00    +0.000 OA
ATOM     36  C   UNL     1     111.471 130.598 137.286  0.00  0.00    +0.000 C 
ATOM     37  C   UNL     1     111.699 130.668 138.076  0.00  0.00    +0.000 C 
ATOM     38  C   UNL     1     110.930 131.198 137.123  0.00  0.00    +0.000 C 
ATOM     39  C   UNL     1     110.824 131.640 137.811  0.00  0.00    +0.000 C 
BRANCH  39  41
ATOM     40  O   UNL     1     110.424 132.802 138.539  0.00  0.00    +0.000 OA
ATOM     41  C   UNL     1     110.329 132.295 137.896  0.00  0.00    +0.000 C 
ENDBRANCH  39  41
ENDBRANCH  32  37
ENDBRANCH  31  32
ENDBRANCH  26  31
ENDBRANCH   1  30
TORSDOF 7
ENDMDL
