MODEL 1
REMARK VINA RESULT:     -10.6      0.000      0.000
REMARK  Name = 74977694
REMARK  5 active torsions:
REMARK  status: ('A' for Active; 'I' for Inactive)
REMARK    1  A    between atoms: O_1  and  C_15
REMARK    2  A    between atoms: O_1  and  C_20
REMARK    3  A    between atoms: O_13  and  C_39
REMARK    4  A    between atoms: C_17  and  C_25
REMARK    5  A    between atoms: C_35  and  C_36
REMARK                            x       y       z     vdW  Elec       q    Type
REMARK                         _______ _______ _______ _____ _____    ______ ____
ROOT
ATOM      1  O   UNL     1     106.417 128.139 144.658  0.00  0.00    +0.000 OA
ATOM      2  O   UNL     1     105.421 125.789 143.373  0.00  0.00    +0.000 OA
ATOM      3  O   UNL     1     106.496 125.596 146.039  0.00  0.00    +0.000 OA
ATOM      4  O   UNL     1     106.964 128.084 145.993  0.00  0.00    +0.000 OA
ATOM      5  C   UNL     1     105.919 126.963 144.016  0.00  0.00    +0.000 A 
ATOM      6  C   UNL     1     106.264 127.328 144.670  0.00  0.00    +0.000 A 
ATOM      7  C   UNL     1     105.766 126.153 144.028  0.00  0.00    +0.000 A 
ATOM      8  C   UNL     1     106.455 126.882 145.338  0.00  0.00    +0.000 A 
ATOM      9  C   UNL     1     105.957 125.707 144.695  0.00  0.00    +0.000 A 
ATOM     10  C   UNL     1     106.302 126.071 145.351  0.00  0.00    +0.000 A 
ATOM     11  C   UNL     1     106.814 127.274 146.014  0.00  0.00    +0.000 A 
ATOM     12  C   UNL     1     107.015 126.814 146.712  0.00  0.00    +0.000 A 
ATOM     13  C   UNL     1     106.856 125.970 146.725  0.00  0.00    +0.000 A 
ENDROOT
BRANCH   5  19
ATOM     14  O   UNL     1     105.061 127.895 143.353  0.00  0.00    +0.000 OA
ATOM     15  O   UNL     1     106.490 127.777 141.336  0.00  0.00    +0.000 OA
ATOM     16  O   UNL     1     105.155 128.747 141.347  0.00  0.00    +0.000 OA
ATOM     17  C   UNL     1     106.205 127.370 142.676  0.00  0.00    +0.000 C 
ATOM     18  C   UNL     1     106.013 127.817 142.009  0.00  0.00    +0.000 C 
ATOM     19  C   UNL     1     105.728 127.410 143.348  0.00  0.00    +0.000 C 
ATOM     20  C   UNL     1     105.346 128.301 142.014  0.00  0.00    +0.000 C 
ATOM     21  C   UNL     1     104.870 128.340 142.687  0.00  0.00    +0.000 C 
ATOM     22  C   UNL     1     104.203 128.825 142.692  0.00  0.00    +0.000 C 
BRANCH  17  23
ATOM     23  O   UNL     1     106.872 126.885 142.671  0.00  0.00    +0.000 OA
BRANCH  23  28
ATOM     24  O   UNL     1     107.823 127.951 142.639  0.00  0.00    +0.000 OA
ATOM     25  O   UNL     1     107.878 125.960 141.746  0.00  0.00    +0.000 OA
ATOM     26  O   UNL     1     109.332 126.564 141.251  0.00  0.00    +0.000 OA
ATOM     27  O   UNL     1     109.780 128.092 141.682  0.00  0.00    +0.000 OA
ATOM     28  C   UNL     1     107.599 127.187 142.424  0.00  0.00    +0.000 C 
ATOM     29  C   UNL     1     108.102 126.725 141.962  0.00  0.00    +0.000 C 
ATOM     30  C   UNL     1     108.829 127.026 141.714  0.00  0.00    +0.000 C 
ATOM     31  C   UNL     1     109.053 127.790 141.930  0.00  0.00    +0.000 C 
ATOM     32  C   UNL     1     108.550 128.253 142.392  0.00  0.00    +0.000 C 
ATOM     33  C   UNL     1     108.775 129.017 142.608  0.00  0.00    +0.000 C 
ENDBRANCH  23  28
ENDBRANCH  17  23
ENDBRANCH   5  19
BRANCH  13  35
ATOM     34  O   UNL     1     107.618 124.177 149.388  0.00  0.00    +0.000 OA
ATOM     35  C   UNL     1     107.046 125.522 147.391  0.00  0.00    +0.000 A 
ATOM     36  C   UNL     1     106.448 125.251 147.891  0.00  0.00    +0.000 A 
ATOM     37  C   UNL     1     107.834 125.344 147.557  0.00  0.00    +0.000 A 
ATOM     38  C   UNL     1     106.639 124.803 148.557  0.00  0.00    +0.000 A 
ATOM     39  C   UNL     1     108.025 124.897 148.222  0.00  0.00    +0.000 A 
ATOM     40  C   UNL     1     107.428 124.626 148.722  0.00  0.00    +0.000 A 
BRANCH  38  41
ATOM     41  O   UNL     1     106.041 124.532 149.056  0.00  0.00    +0.000 OA
ATOM     42  C   UNL     1     105.348 124.970 149.144  0.00  0.00    +0.000 C 
ENDBRANCH  38  41
ENDBRANCH  13  35
TORSDOF 5
ENDMDL
MODEL 2
REMARK VINA RESULT:     -10.5      7.043      9.110
REMARK  Name = 74977694
REMARK  5 active torsions:
REMARK  status: ('A' for Active; 'I' for Inactive)
REMARK    1  A    between atoms: O_1  and  C_15
REMARK    2  A    between atoms: O_1  and  C_20
REMARK    3  A    between atoms: O_13  and  C_39
REMARK    4  A    between atoms: C_17  and  C_25
REMARK    5  A    between atoms: C_35  and  C_36
REMARK                            x       y       z     vdW  Elec       q    Type
REMARK                         _______ _______ _______ _____ _____    ______ ____
ROOT
ATOM      1  O   UNL     1     113.351 126.019 139.404  0.00  0.00    +0.000 OA
ATOM      2  O   UNL     1     112.832 127.452 136.987  0.00  0.00    +0.000 OA
ATOM      3  O   UNL     1     113.637 128.899 139.345  0.00  0.00    +0.000 OA
ATOM      4  O   UNL     1     113.756 126.707 140.607  0.00  0.00    +0.000 OA
ATOM      5  C   UNL     1     113.091 126.737 138.196  0.00  0.00    +0.000 A 
ATOM      6  C   UNL     1     113.311 126.732 138.991  0.00  0.00    +0.000 A 
ATOM      7  C   UNL     1     113.052 127.449 137.782  0.00  0.00    +0.000 A 
ATOM      8  C   UNL     1     113.492 127.442 139.373  0.00  0.00    +0.000 A 
ATOM      9  C   UNL     1     113.232 128.157 138.164  0.00  0.00    +0.000 A 
ATOM     10  C   UNL     1     113.452 128.154 138.959  0.00  0.00    +0.000 A 
ATOM     11  C   UNL     1     113.719 127.423 140.201  0.00  0.00    +0.000 A 
ATOM     12  C   UNL     1     113.908 128.160 140.604  0.00  0.00    +0.000 A 
ATOM     13  C   UNL     1     113.867 128.902 140.174  0.00  0.00    +0.000 A 
ENDROOT
BRANCH   5  19
ATOM     14  O   UNL     1     113.473 125.664 137.331  0.00  0.00    +0.000 OA
ATOM     15  O   UNL     1     111.247 124.626 137.637  0.00  0.00    +0.000 OA
ATOM     16  O   UNL     1     112.370 123.901 136.670  0.00  0.00    +0.000 OA
ATOM     17  C   UNL     1     112.169 125.681 137.917  0.00  0.00    +0.000 C 
ATOM     18  C   UNL     1     111.989 124.972 137.535  0.00  0.00    +0.000 C 
ATOM     19  C   UNL     1     112.911 126.027 137.814  0.00  0.00    +0.000 C 
ATOM     20  C   UNL     1     112.550 124.609 137.051  0.00  0.00    +0.000 C 
ATOM     21  C   UNL     1     113.292 124.956 136.950  0.00  0.00    +0.000 C 
ATOM     22  C   UNL     1     113.854 124.593 136.466  0.00  0.00    +0.000 C 
BRANCH  17  23
ATOM     23  O   UNL     1     111.608 126.044 138.400  0.00  0.00    +0.000 OA
BRANCH  23  28
ATOM     24  O   UNL     1     110.740 126.379 137.315  0.00  0.00    +0.000 OA
ATOM     25  O   UNL     1     110.309 125.968 139.415  0.00  0.00    +0.000 OA
ATOM     26  O   UNL     1     108.792 126.265 138.838  0.00  0.00    +0.000 OA
ATOM     27  O   UNL     1     108.574 126.638 137.246  0.00  0.00    +0.000 OA
ATOM     28  C   UNL     1     110.849 126.193 138.111  0.00  0.00    +0.000 C 
ATOM     29  C   UNL     1     110.200 126.155 138.619  0.00  0.00    +0.000 C 
ATOM     30  C   UNL     1     109.441 126.303 138.331  0.00  0.00    +0.000 C 
ATOM     31  C   UNL     1     109.333 126.490 137.535  0.00  0.00    +0.000 C 
ATOM     32  C   UNL     1     109.982 126.528 137.027  0.00  0.00    +0.000 C 
ATOM     33  C   UNL     1     109.872 126.715 136.231  0.00  0.00    +0.000 C 
ENDBRANCH  23  28
ENDBRANCH  17  23
ENDBRANCH   5  19
BRANCH  13  35
ATOM     34  O   UNL     1     114.587 131.743 141.689  0.00  0.00    +0.000 OA
ATOM     35  C   UNL     1     114.047 129.612 140.553  0.00  0.00    +0.000 A 
ATOM     36  C   UNL     1     113.476 129.989 141.014  0.00  0.00    +0.000 A 
ATOM     37  C   UNL     1     114.797 129.945 140.470  0.00  0.00    +0.000 A 
ATOM     38  C   UNL     1     113.657 130.700 141.393  0.00  0.00    +0.000 A 
ATOM     39  C   UNL     1     114.977 130.655 140.849  0.00  0.00    +0.000 A 
ATOM     40  C   UNL     1     114.407 131.032 141.310  0.00  0.00    +0.000 A 
BRANCH  38  41
ATOM     41  O   UNL     1     113.086 131.077 141.854  0.00  0.00    +0.000 OA
ATOM     42  C   UNL     1     112.480 130.639 142.199  0.00  0.00    +0.000 C 
ENDBRANCH  38  41
ENDBRANCH  13  35
TORSDOF 5
ENDMDL
MODEL 3
REMARK VINA RESULT:     -10.4      5.625      9.132
REMARK  Name = 74977694
REMARK  5 active torsions:
REMARK  status: ('A' for Active; 'I' for Inactive)
REMARK    1  A    between atoms: O_1  and  C_15
REMARK    2  A    between atoms: O_1  and  C_20
REMARK    3  A    between atoms: O_13  and  C_39
REMARK    4  A    between atoms: C_17  and  C_25
REMARK    5  A    between atoms: C_35  and  C_36
REMARK                            x       y       z     vdW  Elec       q    Type
REMARK                         _______ _______ _______ _____ _____    ______ ____
ROOT
ATOM      1  O   UNL     1     112.732 129.112 139.095  0.00  0.00    +0.000 OA
ATOM      2  O   UNL     1     114.252 127.712 141.069  0.00  0.00    +0.000 OA
ATOM      3  O   UNL     1     113.072 126.245 138.889  0.00  0.00    +0.000 OA
ATOM      4  O   UNL     1     112.125 128.413 137.988  0.00  0.00    +0.000 OA
ATOM      5  C   UNL     1     113.492 128.411 140.082  0.00  0.00    +0.000 A 
ATOM      6  C   UNL     1     113.042 128.407 139.391  0.00  0.00    +0.000 A 
ATOM      7  C   UNL     1     113.802 127.706 140.378  0.00  0.00    +0.000 A 
ATOM      8  C   UNL     1     112.901 127.696 138.995  0.00  0.00    +0.000 A 
ATOM      9  C   UNL     1     113.661 126.996 139.983  0.00  0.00    +0.000 A 
ATOM     10  C   UNL     1     113.211 126.991 139.291  0.00  0.00    +0.000 A 
ATOM     11  C   UNL     1     112.431 127.705 138.276  0.00  0.00    +0.000 A 
ATOM     12  C   UNL     1     112.281 126.967 137.860  0.00  0.00    +0.000 A 
ATOM     13  C   UNL     1     112.603 126.233 138.168  0.00  0.00    +0.000 A 
ENDROOT
BRANCH   5  19
ATOM     14  O   UNL     1     114.205 129.645 140.196  0.00  0.00    +0.000 OA
ATOM     15  O   UNL     1     112.908 130.207 142.228  0.00  0.00    +0.000 OA
ATOM     16  O   UNL     1     114.053 131.253 141.664  0.00  0.00    +0.000 OA
ATOM     17  C   UNL     1     113.200 129.309 141.155  0.00  0.00    +0.000 C 
ATOM     18  C   UNL     1     113.341 130.020 141.551  0.00  0.00    +0.000 C 
ATOM     19  C   UNL     1     113.633 129.122 140.478  0.00  0.00    +0.000 C 
ATOM     20  C   UNL     1     113.913 130.543 141.269  0.00  0.00    +0.000 C 
ATOM     21  C   UNL     1     114.345 130.355 140.591  0.00  0.00    +0.000 C 
ATOM     22  C   UNL     1     114.918 130.878 140.309  0.00  0.00    +0.000 C 
BRANCH  17  23
ATOM     23  O   UNL     1     112.628 128.786 141.437  0.00  0.00    +0.000 OA
BRANCH  23  28
ATOM     24  O   UNL     1     111.521 129.640 141.140  0.00  0.00    +0.000 OA
ATOM     25  O   UNL     1     111.808 128.174 142.731  0.00  0.00    +0.000 OA
ATOM     26  O   UNL     1     110.291 128.722 143.082  0.00  0.00    +0.000 OA
ATOM     27  O   UNL     1     109.595 129.882 142.138  0.00  0.00    +0.000 OA
ATOM     28  C   UNL     1     111.869 129.061 141.611  0.00  0.00    +0.000 C 
ATOM     29  C   UNL     1     111.459 128.754 142.259  0.00  0.00    +0.000 C 
ATOM     30  C   UNL     1     110.701 129.028 142.434  0.00  0.00    +0.000 C 
ATOM     31  C   UNL     1     110.354 129.608 141.962  0.00  0.00    +0.000 C 
ATOM     32  C   UNL     1     110.763 129.914 141.315  0.00  0.00    +0.000 C 
ATOM     33  C   UNL     1     110.414 130.494 140.843  0.00  0.00    +0.000 C 
ENDBRANCH  23  28
ENDBRANCH  17  23
ENDBRANCH   5  19
BRANCH  13  35
ATOM     34  O   UNL     1     112.046 123.386 136.595  0.00  0.00    +0.000 OA
ATOM     35  C   UNL     1     112.464 125.521 137.774  0.00  0.00    +0.000 A 
ATOM     36  C   UNL     1     113.044 125.202 137.281  0.00  0.00    +0.000 A 
ATOM     37  C   UNL     1     111.746 125.128 137.874  0.00  0.00    +0.000 A 
ATOM     38  C   UNL     1     112.904 124.490 136.888  0.00  0.00    +0.000 A 
ATOM     39  C   UNL     1     111.606 124.417 137.481  0.00  0.00    +0.000 A 
ATOM     40  C   UNL     1     112.185 124.098 136.988  0.00  0.00    +0.000 A 
BRANCH  38  41
ATOM     41  O   UNL     1     113.484 124.171 136.395  0.00  0.00    +0.000 OA
ATOM     42  C   UNL     1     114.197 124.570 136.286  0.00  0.00    +0.000 C 
ENDBRANCH  38  41
ENDBRANCH  13  35
TORSDOF 5
ENDMDL
MODEL 4
REMARK VINA RESULT:     -10.4      1.893      6.333
REMARK  Name = 74977694
REMARK  5 active torsions:
REMARK  status: ('A' for Active; 'I' for Inactive)
REMARK    1  A    between atoms: O_1  and  C_15
REMARK    2  A    between atoms: O_1  and  C_20
REMARK    3  A    between atoms: O_13  and  C_39
REMARK    4  A    between atoms: C_17  and  C_25
REMARK    5  A    between atoms: C_35  and  C_36
REMARK                            x       y       z     vdW  Elec       q    Type
REMARK                         _______ _______ _______ _____ _____    ______ ____
ROOT
ATOM      1  O   UNL     1     105.773 127.181 146.435  0.00  0.00    +0.000 OA
ATOM      2  O   UNL     1     106.317 124.940 144.747  0.00  0.00    +0.000 OA
ATOM      3  O   UNL     1     105.444 127.420 143.570  0.00  0.00    +0.000 OA
ATOM      4  O   UNL     1     105.334 128.440 145.884  0.00  0.00    +0.000 OA
ATOM      5  C   UNL     1     106.045 126.060 145.591  0.00  0.00    +0.000 A 
ATOM      6  C   UNL     1     105.810 126.846 145.682  0.00  0.00    +0.000 A 
ATOM      7  C   UNL     1     106.082 125.726 144.838  0.00  0.00    +0.000 A 
ATOM      8  C   UNL     1     105.611 127.297 145.020  0.00  0.00    +0.000 A 
ATOM      9  C   UNL     1     105.883 126.176 144.176  0.00  0.00    +0.000 A 
ATOM     10  C   UNL     1     105.648 126.962 144.267  0.00  0.00    +0.000 A 
ATOM     11  C   UNL     1     105.368 128.114 145.129  0.00  0.00    +0.000 A 
ATOM     12  C   UNL     1     105.160 128.588 144.442  0.00  0.00    +0.000 A 
ATOM     13  C   UNL     1     105.198 128.239 143.658  0.00  0.00    +0.000 A 
ENDROOT
BRANCH   5  19
ATOM     14  O   UNL     1     106.978 125.709 146.615  0.00  0.00    +0.000 OA
ATOM     15  O   UNL     1     105.369 124.059 147.515  0.00  0.00    +0.000 OA
ATOM     16  O   UNL     1     106.838 124.258 148.239  0.00  0.00    +0.000 OA
ATOM     17  C   UNL     1     105.707 125.060 146.553  0.00  0.00    +0.000 C 
ATOM     18  C   UNL     1     105.905 124.609 147.216  0.00  0.00    +0.000 C 
ATOM     19  C   UNL     1     106.244 125.610 146.253  0.00  0.00    +0.000 C 
ATOM     20  C   UNL     1     106.640 124.709 147.577  0.00  0.00    +0.000 C 
ATOM     21  C   UNL     1     107.176 125.259 147.276  0.00  0.00    +0.000 C 
ATOM     22  C   UNL     1     107.911 125.359 147.638  0.00  0.00    +0.000 C 
BRANCH  17  23
ATOM     23  O   UNL     1     104.972 124.960 146.191  0.00  0.00    +0.000 OA
BRANCH  23  28
ATOM     24  O   UNL     1     104.223 125.502 147.281  0.00  0.00    +0.000 OA
ATOM     25  O   UNL     1     103.713 123.958 145.825  0.00  0.00    +0.000 OA
ATOM     26  O   UNL     1     102.335 123.999 146.731  0.00  0.00    +0.000 OA
ATOM     27  O   UNL     1     102.216 125.042 148.005  0.00  0.00    +0.000 OA
ATOM     28  C   UNL     1     104.283 124.981 146.645  0.00  0.00    +0.000 C 
ATOM     29  C   UNL     1     103.654 124.480 146.462  0.00  0.00    +0.000 C 
ATOM     30  C   UNL     1     102.965 124.500 146.915  0.00  0.00    +0.000 C 
ATOM     31  C   UNL     1     102.906 125.021 147.551  0.00  0.00    +0.000 C 
ATOM     32  C   UNL     1     103.535 125.522 147.734  0.00  0.00    +0.000 C 
ATOM     33  C   UNL     1     103.475 126.043 148.371  0.00  0.00    +0.000 C 
ENDBRANCH  23  28
ENDBRANCH  17  23
ENDBRANCH   5  19
BRANCH  13  35
ATOM     34  O   UNL     1     104.405 130.032 141.004  0.00  0.00    +0.000 OA
ATOM     35  C   UNL     1     105.000 128.688 142.994  0.00  0.00    +0.000 A 
ATOM     36  C   UNL     1     105.593 128.969 142.494  0.00  0.00    +0.000 A 
ATOM     37  C   UNL     1     104.209 128.855 142.830  0.00  0.00    +0.000 A 
ATOM     38  C   UNL     1     105.394 129.417 141.830  0.00  0.00    +0.000 A 
ATOM     39  C   UNL     1     104.011 129.302 142.167  0.00  0.00    +0.000 A 
ATOM     40  C   UNL     1     104.603 129.584 141.667  0.00  0.00    +0.000 A 
BRANCH  38  41
ATOM     41  O   UNL     1     105.987 129.699 141.331  0.00  0.00    +0.000 OA
ATOM     42  C   UNL     1     106.711 129.937 141.644  0.00  0.00    +0.000 C 
ENDBRANCH  38  41
ENDBRANCH  13  35
TORSDOF 5
ENDMDL
MODEL 5
REMARK VINA RESULT:     -10.1      8.565      9.999
REMARK  Name = 74977694
REMARK  5 active torsions:
REMARK  status: ('A' for Active; 'I' for Inactive)
REMARK    1  A    between atoms: O_1  and  C_15
REMARK    2  A    between atoms: O_1  and  C_20
REMARK    3  A    between atoms: O_13  and  C_39
REMARK    4  A    between atoms: C_17  and  C_25
REMARK    5  A    between atoms: C_35  and  C_36
REMARK                            x       y       z     vdW  Elec       q    Type
REMARK                         _______ _______ _______ _____ _____    ______ ____
ROOT
ATOM      1  O   UNL     1     112.156 129.250 135.828  0.00  0.00    +0.000 OA
ATOM      2  O   UNL     1     111.714 129.374 138.649  0.00  0.00    +0.000 OA
ATOM      3  O   UNL     1     112.021 126.807 137.376  0.00  0.00    +0.000 OA
ATOM      4  O   UNL     1     112.314 127.984 135.154  0.00  0.00    +0.000 OA
ATOM      5  C   UNL     1     111.935 129.311 137.239  0.00  0.00    +0.000 A 
ATOM      6  C   UNL     1     112.060 128.869 136.554  0.00  0.00    +0.000 A 
ATOM      7  C   UNL     1     111.839 128.930 137.965  0.00  0.00    +0.000 A 
ATOM      8  C   UNL     1     112.089 128.045 136.595  0.00  0.00    +0.000 A 
ATOM      9  C   UNL     1     111.868 128.108 138.005  0.00  0.00    +0.000 A 
ATOM     10  C   UNL     1     111.993 127.664 137.321  0.00  0.00    +0.000 A 
ATOM     11  C   UNL     1     112.219 127.596 135.874  0.00  0.00    +0.000 A 
ATOM     12  C   UNL     1     112.251 126.737 135.911  0.00  0.00    +0.000 A 
ATOM     13  C   UNL     1     112.151 126.340 136.666  0.00  0.00    +0.000 A 
ENDROOT
BRANCH   5  19
ATOM     14  O   UNL     1     112.604 130.571 137.145  0.00  0.00    +0.000 OA
ATOM     15  O   UNL     1     110.421 131.734 137.181  0.00  0.00    +0.000 OA
ATOM     16  O   UNL     1     111.818 132.605 137.075  0.00  0.00    +0.000 OA
ATOM     17  C   UNL     1     111.178 130.523 137.210  0.00  0.00    +0.000 C 
ATOM     18  C   UNL     1     111.149 131.347 137.169  0.00  0.00    +0.000 C 
ATOM     19  C   UNL     1     111.906 130.135 137.198  0.00  0.00    +0.000 C 
ATOM     20  C   UNL     1     111.847 131.782 137.116  0.00  0.00    +0.000 C 
ATOM     21  C   UNL     1     112.575 131.393 137.104  0.00  0.00    +0.000 C 
ATOM     22  C   UNL     1     113.274 131.829 137.051  0.00  0.00    +0.000 C 
BRANCH  17  23
ATOM     23  O   UNL     1     110.479 130.087 137.263  0.00  0.00    +0.000 OA
BRANCH  23  28
ATOM     24  O   UNL     1     110.037 130.389 135.938  0.00  0.00    +0.000 OA
ATOM     25  O   UNL     1     108.911 130.034 137.773  0.00  0.00    +0.000 OA
ATOM     26  O   UNL     1     107.685 130.309 136.704  0.00  0.00    +0.000 OA
ATOM     27  O   UNL     1     108.027 130.637 135.123  0.00  0.00    +0.000 OA
ATOM     28  C   UNL     1     109.866 130.225 136.727  0.00  0.00    +0.000 C 
ATOM     29  C   UNL     1     109.082 130.198 136.983  0.00  0.00    +0.000 C 
ATOM     30  C   UNL     1     108.469 130.335 136.448  0.00  0.00    +0.000 C 
ATOM     31  C   UNL     1     108.641 130.499 135.658  0.00  0.00    +0.000 C 
ATOM     32  C   UNL     1     109.425 130.526 135.403  0.00  0.00    +0.000 C 
ATOM     33  C   UNL     1     109.595 130.690 134.612  0.00  0.00    +0.000 C 
ENDBRANCH  23  28
ENDBRANCH  17  23
ENDBRANCH   5  19
BRANCH  13  35
ATOM     34  O   UNL     1     112.263 123.047 136.840  0.00  0.00    +0.000 OA
ATOM     35  C   UNL     1     112.179 125.517 136.710  0.00  0.00    +0.000 A 
ATOM     36  C   UNL     1     112.873 125.140 136.949  0.00  0.00    +0.000 A 
ATOM     37  C   UNL     1     111.513 125.070 136.515  0.00  0.00    +0.000 A 
ATOM     38  C   UNL     1     112.901 124.316 136.992  0.00  0.00    +0.000 A 
ATOM     39  C   UNL     1     111.541 124.248 136.558  0.00  0.00    +0.000 A 
ATOM     40  C   UNL     1     112.235 123.871 136.797  0.00  0.00    +0.000 A 
BRANCH  38  41
ATOM     41  O   UNL     1     113.595 123.940 137.231  0.00  0.00    +0.000 OA
ATOM     42  C   UNL     1     114.304 124.359 137.254  0.00  0.00    +0.000 C 
ENDBRANCH  38  41
ENDBRANCH  13  35
TORSDOF 5
ENDMDL
MODEL 6
REMARK VINA RESULT:     -10.1      6.777      9.960
REMARK  Name = 74977694
REMARK  5 active torsions:
REMARK  status: ('A' for Active; 'I' for Inactive)
REMARK    1  A    between atoms: O_1  and  C_15
REMARK    2  A    between atoms: O_1  and  C_20
REMARK    3  A    between atoms: O_13  and  C_39
REMARK    4  A    between atoms: C_17  and  C_25
REMARK    5  A    between atoms: C_35  and  C_36
REMARK                            x       y       z     vdW  Elec       q    Type
REMARK                         _______ _______ _______ _____ _____    ______ ____
ROOT
ATOM      1  O   UNL     1     109.589 126.462 136.571  0.00  0.00    +0.000 OA
ATOM      2  O   UNL     1     112.356 127.173 136.480  0.00  0.00    +0.000 OA
ATOM      3  O   UNL     1     110.361 129.172 135.912  0.00  0.00    +0.000 OA
ATOM      4  O   UNL     1     108.560 127.434 136.293  0.00  0.00    +0.000 OA
ATOM      5  C   UNL     1     110.973 126.818 136.526  0.00  0.00    +0.000 A 
ATOM      6  C   UNL     1     110.178 127.026 136.448  0.00  0.00    +0.000 A 
ATOM      7  C   UNL     1     111.562 127.382 136.402  0.00  0.00    +0.000 A 
ATOM      8  C   UNL     1     109.973 127.800 136.246  0.00  0.00    +0.000 A 
ATOM      9  C   UNL     1     111.356 128.155 136.200  0.00  0.00    +0.000 A 
ATOM     10  C   UNL     1     110.562 128.364 136.122  0.00  0.00    +0.000 A 
ATOM     11  C   UNL     1     109.142 128.004 136.168  0.00  0.00    +0.000 A 
ATOM     12  C   UNL     1     108.922 128.809 135.958  0.00  0.00    +0.000 A 
ATOM     13  C   UNL     1     109.535 129.396 135.829  0.00  0.00    +0.000 A 
ENDROOT
BRANCH   5  19
ATOM     14  O   UNL     1     111.423 125.516 136.143  0.00  0.00    +0.000 OA
ATOM     15  O   UNL     1     111.303 124.781 138.503  0.00  0.00    +0.000 OA
ATOM     16  O   UNL     1     111.793 123.725 137.333  0.00  0.00    +0.000 OA
ATOM     17  C   UNL     1     111.138 125.799 137.514  0.00  0.00    +0.000 C 
ATOM     18  C   UNL     1     111.343 125.026 137.716  0.00  0.00    +0.000 C 
ATOM     19  C   UNL     1     111.178 126.044 136.727  0.00  0.00    +0.000 C 
ATOM     20  C   UNL     1     111.588 124.498 137.131  0.00  0.00    +0.000 C 
ATOM     21  C   UNL     1     111.628 124.744 136.345  0.00  0.00    +0.000 C 
ATOM     22  C   UNL     1     111.873 124.216 135.760  0.00  0.00    +0.000 C 
BRANCH  17  23
ATOM     23  O   UNL     1     110.893 126.327 138.099  0.00  0.00    +0.000 OA
BRANCH  23  28
ATOM     24  O   UNL     1     112.165 126.430 138.742  0.00  0.00    +0.000 OA
ATOM     25  O   UNL     1     110.142 126.490 139.559  0.00  0.00    +0.000 OA
ATOM     26  O   UNL     1     111.039 126.675 140.932  0.00  0.00    +0.000 OA
ATOM     27  O   UNL     1     112.687 126.696 140.844  0.00  0.00    +0.000 OA
ATOM     28  C   UNL     1     111.342 126.419 138.785  0.00  0.00    +0.000 C 
ATOM     29  C   UNL     1     110.967 126.501 139.515  0.00  0.00    +0.000 C 
ATOM     30  C   UNL     1     111.415 126.593 140.202  0.00  0.00    +0.000 C 
ATOM     31  C   UNL     1     112.238 126.604 140.157  0.00  0.00    +0.000 C 
ATOM     32  C   UNL     1     112.613 126.522 139.427  0.00  0.00    +0.000 C 
ATOM     33  C   UNL     1     113.437 126.533 139.384  0.00  0.00    +0.000 C 
ENDBRANCH  23  28
ENDBRANCH  17  23
ENDBRANCH   5  19
BRANCH  13  35
ATOM     34  O   UNL     1     108.725 132.491 135.020  0.00  0.00    +0.000 OA
ATOM     35  C   UNL     1     109.333 130.170 135.627  0.00  0.00    +0.000 A 
ATOM     36  C   UNL     1     109.171 130.722 136.219  0.00  0.00    +0.000 A 
ATOM     37  C   UNL     1     109.292 130.392 134.834  0.00  0.00    +0.000 A 
ATOM     38  C   UNL     1     108.968 131.496 136.016  0.00  0.00    +0.000 A 
ATOM     39  C   UNL     1     109.090 131.165 134.631  0.00  0.00    +0.000 A 
ATOM     40  C   UNL     1     108.928 131.717 135.222  0.00  0.00    +0.000 A 
BRANCH  38  41
ATOM     41  O   UNL     1     108.807 132.048 136.608  0.00  0.00    +0.000 OA
ATOM     42  C   UNL     1     108.547 131.794 137.347  0.00  0.00    +0.000 C 
ENDBRANCH  38  41
ENDBRANCH  13  35
TORSDOF 5
ENDMDL
MODEL 7
REMARK VINA RESULT:     -10.1      6.143      7.349
REMARK  Name = 74977694
REMARK  5 active torsions:
REMARK  status: ('A' for Active; 'I' for Inactive)
REMARK    1  A    between atoms: O_1  and  C_15
REMARK    2  A    between atoms: O_1  and  C_20
REMARK    3  A    between atoms: O_13  and  C_39
REMARK    4  A    between atoms: C_17  and  C_25
REMARK    5  A    between atoms: C_35  and  C_36
REMARK                            x       y       z     vdW  Elec       q    Type
REMARK                         _______ _______ _______ _____ _____    ______ ____
ROOT
ATOM      1  O   UNL     1     111.493 132.472 142.472  0.00  0.00    +0.000 OA
ATOM      2  O   UNL     1     110.881 129.744 143.061  0.00  0.00    +0.000 OA
ATOM      3  O   UNL     1     111.762 131.486 145.179  0.00  0.00    +0.000 OA
ATOM      4  O   UNL     1     111.937 133.377 143.505  0.00  0.00    +0.000 OA
ATOM      5  C   UNL     1     111.187 131.108 142.767  0.00  0.00    +0.000 A 
ATOM      6  C   UNL     1     111.435 131.854 143.015  0.00  0.00    +0.000 A 
ATOM      7  C   UNL     1     111.129 130.490 143.310  0.00  0.00    +0.000 A 
ATOM      8  C   UNL     1     111.625 131.983 143.808  0.00  0.00    +0.000 A 
ATOM      9  C   UNL     1     111.319 130.618 144.102  0.00  0.00    +0.000 A 
ATOM     10  C   UNL     1     111.567 131.365 144.352  0.00  0.00    +0.000 A 
ATOM     11  C   UNL     1     111.882 132.765 144.054  0.00  0.00    +0.000 A 
ATOM     12  C   UNL     1     112.082 132.905 144.879  0.00  0.00    +0.000 A 
ATOM     13  C   UNL     1     112.021 132.261 145.445  0.00  0.00    +0.000 A 
ENDROOT
BRANCH   5  19
ATOM     14  O   UNL     1     110.207 130.969 141.735  0.00  0.00    +0.000 OA
ATOM     15  O   UNL     1     112.007 130.616 140.074  0.00  0.00    +0.000 OA
ATOM     16  O   UNL     1     110.428 130.595 139.597  0.00  0.00    +0.000 OA
ATOM     17  C   UNL     1     111.597 130.862 141.420  0.00  0.00    +0.000 C 
ATOM     18  C   UNL     1     111.407 130.734 140.627  0.00  0.00    +0.000 C 
ATOM     19  C   UNL     1     110.997 130.979 141.974  0.00  0.00    +0.000 C 
ATOM     20  C   UNL     1     110.617 130.723 140.388  0.00  0.00    +0.000 C 
ATOM     21  C   UNL     1     110.018 130.840 140.943  0.00  0.00    +0.000 C 
ATOM     22  C   UNL     1     109.228 130.830 140.705  0.00  0.00    +0.000 C 
BRANCH  17  23
ATOM     23  O   UNL     1     112.387 130.873 141.659  0.00  0.00    +0.000 OA
BRANCH  23  28
ATOM     24  O   UNL     1     112.635 129.488 141.411  0.00  0.00    +0.000 OA
ATOM     25  O   UNL     1     113.933 131.230 141.208  0.00  0.00    +0.000 OA
ATOM     26  O   UNL     1     114.954 130.023 140.735  0.00  0.00    +0.000 OA
ATOM     27  O   UNL     1     114.429 128.460 140.712  0.00  0.00    +0.000 OA
ATOM     28  C   UNL     1     112.897 130.269 141.422  0.00  0.00    +0.000 C 
ATOM     29  C   UNL     1     113.670 130.448 141.197  0.00  0.00    +0.000 C 
ATOM     30  C   UNL     1     114.181 129.845 140.960  0.00  0.00    +0.000 C 
ATOM     31  C   UNL     1     113.918 129.063 140.949  0.00  0.00    +0.000 C 
ATOM     32  C   UNL     1     113.145 128.885 141.174  0.00  0.00    +0.000 C 
ATOM     33  C   UNL     1     112.882 128.102 141.163  0.00  0.00    +0.000 C 
ENDBRANCH  23  28
ENDBRANCH  17  23
ENDBRANCH   5  19
BRANCH  13  35
ATOM     34  O   UNL     1     112.780 132.763 148.617  0.00  0.00    +0.000 OA
ATOM     35  C   UNL     1     112.211 132.387 146.238  0.00  0.00    +0.000 A 
ATOM     36  C   UNL     1     111.709 132.834 146.716  0.00  0.00    +0.000 A 
ATOM     37  C   UNL     1     112.902 132.065 146.553  0.00  0.00    +0.000 A 
ATOM     38  C   UNL     1     111.899 132.960 147.510  0.00  0.00    +0.000 A 
ATOM     39  C   UNL     1     113.091 132.190 147.345  0.00  0.00    +0.000 A 
ATOM     40  C   UNL     1     112.590 132.637 147.824  0.00  0.00    +0.000 A 
BRANCH  38  41
ATOM     41  O   UNL     1     111.397 133.407 147.988  0.00  0.00    +0.000 OA
ATOM     42  C   UNL     1     110.583 133.385 147.864  0.00  0.00    +0.000 C 
ENDBRANCH  38  41
ENDBRANCH  13  35
TORSDOF 5
ENDMDL
MODEL 8
REMARK VINA RESULT:     -10.1      7.179     10.392
REMARK  Name = 74977694
REMARK  5 active torsions:
REMARK  status: ('A' for Active; 'I' for Inactive)
REMARK    1  A    between atoms: O_1  and  C_15
REMARK    2  A    between atoms: O_1  and  C_20
REMARK    3  A    between atoms: O_13  and  C_39
REMARK    4  A    between atoms: C_17  and  C_25
REMARK    5  A    between atoms: C_35  and  C_36
REMARK                            x       y       z     vdW  Elec       q    Type
REMARK                         _______ _______ _______ _____ _____    ______ ____
ROOT
ATOM      1  O   UNL     1     113.227 128.133 136.901  0.00  0.00    +0.000 OA
ATOM      2  O   UNL     1     111.562 125.874 136.360  0.00  0.00    +0.000 OA
ATOM      3  O   UNL     1     110.546 128.528 135.884  0.00  0.00    +0.000 OA
ATOM      4  O   UNL     1     112.755 129.478 136.676  0.00  0.00    +0.000 OA
ATOM      5  C   UNL     1     112.394 127.004 136.630  0.00  0.00    +0.000 A 
ATOM      6  C   UNL     1     112.508 127.821 136.643  0.00  0.00    +0.000 A 
ATOM      7  C   UNL     1     111.675 126.691 136.373  0.00  0.00    +0.000 A 
ATOM      8  C   UNL     1     111.902 128.325 136.398  0.00  0.00    +0.000 A 
ATOM      9  C   UNL     1     111.071 127.196 136.128  0.00  0.00    +0.000 A 
ATOM     10  C   UNL     1     111.184 128.013 136.141  0.00  0.00    +0.000 A 
ATOM     11  C   UNL     1     112.034 129.174 136.417  0.00  0.00    +0.000 A 
ATOM     12  C   UNL     1     111.407 129.705 136.163  0.00  0.00    +0.000 A 
ATOM     13  C   UNL     1     110.658 129.380 135.895  0.00  0.00    +0.000 A 
ENDROOT
BRANCH   5  19
ATOM     14  O   UNL     1     113.634 126.341 136.372  0.00  0.00    +0.000 OA
ATOM     15  O   UNL     1     113.546 125.302 138.616  0.00  0.00    +0.000 OA
ATOM     16  O   UNL     1     114.815 124.986 137.610  0.00  0.00    +0.000 OA
ATOM     17  C   UNL     1     112.970 126.153 137.623  0.00  0.00    +0.000 C 
ATOM     18  C   UNL     1     113.576 125.648 137.868  0.00  0.00    +0.000 C 
ATOM     19  C   UNL     1     113.000 126.499 136.875  0.00  0.00    +0.000 C 
ATOM     20  C   UNL     1     114.210 125.490 137.365  0.00  0.00    +0.000 C 
ATOM     21  C   UNL     1     114.238 125.837 136.616  0.00  0.00    +0.000 C 
ATOM     22  C   UNL     1     114.873 125.678 136.113  0.00  0.00    +0.000 C 
BRANCH  17  23
ATOM     23  O   UNL     1     112.336 126.311 138.127  0.00  0.00    +0.000 OA
BRANCH  23  28
ATOM     24  O   UNL     1     113.108 127.050 139.076  0.00  0.00    +0.000 OA
ATOM     25  O   UNL     1     111.353 125.780 139.340  0.00  0.00    +0.000 OA
ATOM     26  O   UNL     1     111.633 126.253 140.896  0.00  0.00    +0.000 OA
ATOM     27  O   UNL     1     112.896 127.258 141.238  0.00  0.00    +0.000 OA
ATOM     28  C   UNL     1     112.477 126.548 138.905  0.00  0.00    +0.000 C 
ATOM     29  C   UNL     1     111.985 126.283 139.511  0.00  0.00    +0.000 C 
ATOM     30  C   UNL     1     112.124 126.519 140.289  0.00  0.00    +0.000 C 
ATOM     31  C   UNL     1     112.756 127.021 140.460  0.00  0.00    +0.000 C 
ATOM     32  C   UNL     1     113.248 127.287 139.853  0.00  0.00    +0.000 C 
ATOM     33  C   UNL     1     113.880 127.789 140.024  0.00  0.00    +0.000 C 
ENDBRANCH  23  28
ENDBRANCH  17  23
ENDBRANCH   5  19
BRANCH  13  35
ATOM     34  O   UNL     1     108.232 131.389 134.913  0.00  0.00    +0.000 OA
ATOM     35  C   UNL     1     110.051 129.882 135.649  0.00  0.00    +0.000 A 
ATOM     36  C   UNL     1     109.500 130.160 136.196  0.00  0.00    +0.000 A 
ATOM     37  C   UNL     1     109.996 130.106 134.857  0.00  0.00    +0.000 A 
ATOM     38  C   UNL     1     108.893 130.663 135.950  0.00  0.00    +0.000 A 
ATOM     39  C   UNL     1     109.390 130.608 134.612  0.00  0.00    +0.000 A 
ATOM     40  C   UNL     1     108.838 130.887 135.158  0.00  0.00    +0.000 A 
BRANCH  38  41
ATOM     41  O   UNL     1     108.341 130.941 136.497  0.00  0.00    +0.000 OA
ATOM     42  C   UNL     1     108.597 131.280 137.204  0.00  0.00    +0.000 C 
ENDBRANCH  38  41
ENDBRANCH  13  35
TORSDOF 5
ENDMDL
MODEL 9
REMARK VINA RESULT:      -9.9      8.150      9.846
REMARK  Name = 74977694
REMARK  5 active torsions:
REMARK  status: ('A' for Active; 'I' for Inactive)
REMARK    1  A    between atoms: O_1  and  C_15
REMARK    2  A    between atoms: O_1  and  C_20
REMARK    3  A    between atoms: O_13  and  C_39
REMARK    4  A    between atoms: C_17  and  C_25
REMARK    5  A    between atoms: C_35  and  C_36
REMARK                            x       y       z     vdW  Elec       q    Type
REMARK                         _______ _______ _______ _____ _____    ______ ____
ROOT
ATOM      1  O   UNL     1     110.678 128.994 137.652  0.00  0.00    +0.000 OA
ATOM      2  O   UNL     1     112.499 129.618 135.539  0.00  0.00    +0.000 OA
ATOM      3  O   UNL     1     112.033 126.862 136.238  0.00  0.00    +0.000 OA
ATOM      4  O   UNL     1     110.418 127.626 138.032  0.00  0.00    +0.000 OA
ATOM      5  C   UNL     1     111.589 129.305 136.595  0.00  0.00    +0.000 A 
ATOM      6  C   UNL     1     111.205 128.748 137.066  0.00  0.00    +0.000 A 
ATOM      7  C   UNL     1     112.115 129.059 136.010  0.00  0.00    +0.000 A 
ATOM      8  C   UNL     1     111.348 127.943 136.952  0.00  0.00    +0.000 A 
ATOM      9  C   UNL     1     112.258 128.255 135.896  0.00  0.00    +0.000 A 
ATOM     10  C   UNL     1     111.875 127.696 136.367  0.00  0.00    +0.000 A 
ATOM     11  C   UNL     1     110.942 127.372 137.450  0.00  0.00    +0.000 A 
ATOM     12  C   UNL     1     111.088 126.532 137.335  0.00  0.00    +0.000 A 
ATOM     13  C   UNL     1     111.636 126.275 136.726  0.00  0.00    +0.000 A 
ENDROOT
BRANCH   5  19
ATOM     14  O   UNL     1     110.747 130.449 136.430  0.00  0.00    +0.000 OA
ATOM     15  O   UNL     1     112.413 131.846 137.611  0.00  0.00    +0.000 OA
ATOM     16  O   UNL     1     111.016 132.523 137.053  0.00  0.00    +0.000 OA
ATOM     17  C   UNL     1     112.001 130.576 137.103  0.00  0.00    +0.000 C 
ATOM     18  C   UNL     1     111.857 131.381 137.218  0.00  0.00    +0.000 C 
ATOM     19  C   UNL     1     111.445 130.110 136.709  0.00  0.00    +0.000 C 
ATOM     20  C   UNL     1     111.159 131.719 136.938  0.00  0.00    +0.000 C 
ATOM     21  C   UNL     1     110.604 131.253 136.544  0.00  0.00    +0.000 C 
ATOM     22  C   UNL     1     109.905 131.591 136.265  0.00  0.00    +0.000 C 
BRANCH  17  23
ATOM     23  O   UNL     1     112.699 130.237 137.383  0.00  0.00    +0.000 OA
BRANCH  23  28
ATOM     24  O   UNL     1     112.337 130.306 138.763  0.00  0.00    +0.000 OA
ATOM     25  O   UNL     1     114.283 130.465 137.787  0.00  0.00    +0.000 OA
ATOM     26  O   UNL     1     114.712 130.648 139.369  0.00  0.00    +0.000 OA
ATOM     27  O   UNL     1     113.558 130.603 140.548  0.00  0.00    +0.000 OA
ATOM     28  C   UNL     1     112.914 130.329 138.174  0.00  0.00    +0.000 C 
ATOM     29  C   UNL     1     113.705 130.442 138.376  0.00  0.00    +0.000 C 
ATOM     30  C   UNL     1     113.921 130.534 139.167  0.00  0.00    +0.000 C 
ATOM     31  C   UNL     1     113.343 130.511 139.756  0.00  0.00    +0.000 C 
ATOM     32  C   UNL     1     112.552 130.397 139.554  0.00  0.00    +0.000 C 
ATOM     33  C   UNL     1     111.975 130.375 140.144  0.00  0.00    +0.000 C 
ENDBRANCH  23  28
ENDBRANCH  17  23
ENDBRANCH   5  19
BRANCH  13  35
ATOM     34  O   UNL     1     112.216 123.061 136.260  0.00  0.00    +0.000 OA
ATOM     35  C   UNL     1     111.782 125.472 136.609  0.00  0.00    +0.000 A 
ATOM     36  C   UNL     1     112.467 125.128 136.914  0.00  0.00    +0.000 A 
ATOM     37  C   UNL     1     111.241 125.012 136.188  0.00  0.00    +0.000 A 
ATOM     38  C   UNL     1     112.611 124.323 136.797  0.00  0.00    +0.000 A 
ATOM     39  C   UNL     1     111.386 124.209 136.072  0.00  0.00    +0.000 A 
ATOM     40  C   UNL     1     112.071 123.864 136.376  0.00  0.00    +0.000 A 
BRANCH  38  41
ATOM     41  O   UNL     1     113.297 123.980 137.102  0.00  0.00    +0.000 OA
ATOM     42  C   UNL     1     113.994 124.416 137.140  0.00  0.00    +0.000 C 
ENDBRANCH  38  41
ENDBRANCH  13  35
TORSDOF 5
ENDMDL
MODEL 10
REMARK VINA RESULT:      -9.8      5.350      6.971
REMARK  Name = 74977694
REMARK  5 active torsions:
REMARK  status: ('A' for Active; 'I' for Inactive)
REMARK    1  A    between atoms: O_1  and  C_15
REMARK    2  A    between atoms: O_1  and  C_20
REMARK    3  A    between atoms: O_13  and  C_39
REMARK    4  A    between atoms: C_17  and  C_25
REMARK    5  A    between atoms: C_35  and  C_36
REMARK                            x       y       z     vdW  Elec       q    Type
REMARK                         _______ _______ _______ _____ _____    ______ ____
ROOT
ATOM      1  O   UNL     1     112.215 131.148 142.115  0.00  0.00    +0.000 OA
ATOM      2  O   UNL     1     111.430 128.701 143.365  0.00  0.00    +0.000 OA
ATOM      3  O   UNL     1     111.445 131.136 144.906  0.00  0.00    +0.000 OA
ATOM      4  O   UNL     1     112.236 132.389 142.852  0.00  0.00    +0.000 OA
ATOM      5  C   UNL     1     111.822 129.925 142.741  0.00  0.00    +0.000 A 
ATOM      6  C   UNL     1     111.957 130.737 142.783  0.00  0.00    +0.000 A 
ATOM      7  C   UNL     1     111.565 129.514 143.409  0.00  0.00    +0.000 A 
ATOM      8  C   UNL     1     111.834 131.140 143.493  0.00  0.00    +0.000 A 
ATOM      9  C   UNL     1     111.442 129.916 144.118  0.00  0.00    +0.000 A 
ATOM     10  C   UNL     1     111.577 130.729 144.161  0.00  0.00    +0.000 A 
ATOM     11  C   UNL     1     111.978 131.986 143.524  0.00  0.00    +0.000 A 
ATOM     12  C   UNL     1     111.852 132.410 144.261  0.00  0.00    +0.000 A 
ATOM     13  C   UNL     1     111.584 131.983 144.956  0.00  0.00    +0.000 A 
ENDROOT
BRANCH   5  19
ATOM     14  O   UNL     1     112.711 129.335 141.790  0.00  0.00    +0.000 OA
ATOM     15  O   UNL     1     110.780 128.693 140.382  0.00  0.00    +0.000 OA
ATOM     16  O   UNL     1     112.312 128.317 139.901  0.00  0.00    +0.000 OA
ATOM     17  C   UNL     1     111.301 129.309 141.562  0.00  0.00    +0.000 C 
ATOM     18  C   UNL     1     111.424 128.907 140.851  0.00  0.00    +0.000 C 
ATOM     19  C   UNL     1     111.945 129.522 142.030  0.00  0.00    +0.000 C 
ATOM     20  C   UNL     1     112.190 128.719 140.610  0.00  0.00    +0.000 C 
ATOM     21  C   UNL     1     112.834 128.933 141.080  0.00  0.00    +0.000 C 
ATOM     22  C   UNL     1     113.600 128.745 140.840  0.00  0.00    +0.000 C 
BRANCH  17  23
ATOM     23  O   UNL     1     110.534 129.497 141.802  0.00  0.00    +0.000 OA
BRANCH  23  28
ATOM     24  O   UNL     1     110.293 130.458 140.773  0.00  0.00    +0.000 OA
ATOM     25  O   UNL     1     108.946 129.054 141.761  0.00  0.00    +0.000 OA
ATOM     26  O   UNL     1     107.909 129.793 140.712  0.00  0.00    +0.000 OA
ATOM     27  O   UNL     1     108.462 130.976 139.703  0.00  0.00    +0.000 OA
ATOM     28  C   UNL     1     110.017 129.867 141.277  0.00  0.00    +0.000 C 
ATOM     29  C   UNL     1     109.222 129.645 141.257  0.00  0.00    +0.000 C 
ATOM     30  C   UNL     1     108.704 130.015 140.732  0.00  0.00    +0.000 C 
ATOM     31  C   UNL     1     108.981 130.606 140.228  0.00  0.00    +0.000 C 
ATOM     32  C   UNL     1     109.775 130.828 140.248  0.00  0.00    +0.000 C 
ATOM     33  C   UNL     1     110.051 131.419 139.744  0.00  0.00    +0.000 C 
ENDBRANCH  23  28
ENDBRANCH  17  23
ENDBRANCH   5  19
BRANCH  13  35
ATOM     34  O   UNL     1     111.091 133.580 147.801  0.00  0.00    +0.000 OA
ATOM     35  C   UNL     1     111.461 132.382 145.668  0.00  0.00    +0.000 A 
ATOM     36  C   UNL     1     110.734 132.743 145.817  0.00  0.00    +0.000 A 
ATOM     37  C   UNL     1     112.064 132.421 146.229  0.00  0.00    +0.000 A 
ATOM     38  C   UNL     1     110.611 133.143 146.529  0.00  0.00    +0.000 A 
ATOM     39  C   UNL     1     111.941 132.820 146.940  0.00  0.00    +0.000 A 
ATOM     40  C   UNL     1     111.215 133.181 147.090  0.00  0.00    +0.000 A 
BRANCH  38  41
ATOM     41  O   UNL     1     109.884 133.504 146.679  0.00  0.00    +0.000 OA
ATOM     42  C   UNL     1     109.185 133.129 146.456  0.00  0.00    +0.000 C 
ENDBRANCH  38  41
ENDBRANCH  13  35
TORSDOF 5
ENDMDL
