MODEL 1
REMARK VINA RESULT:      -7.8      0.000      0.000
REMARK  Name = 44257599
REMARK  4 active torsions:
REMARK  status: ('A' for Active; 'I' for Inactive)
REMARK    1  A    between atoms: O_2  and  C_9
REMARK    2  A    between atoms: O_3  and  C_13
REMARK    3  A    between atoms: O_5  and  C_18
REMARK    4  A    between atoms: C_8  and  C_11
REMARK                            x       y       z     vdW  Elec       q    Type
REMARK                         _______ _______ _______ _____ _____    ______ ____
ROOT
ATOM      1  O   UNL     1     104.728 123.973 146.709  0.00  0.00    +0.000 OA
ATOM      2  O   UNL     1     102.925 125.381 147.653  0.00  0.00    +0.000 OA
ATOM      3  C   UNL     1     103.340 124.290 146.830  0.00  0.00    +0.000 A 
ATOM      4  C   UNL     1     103.941 123.820 146.515  0.00  0.00    +0.000 A 
ATOM      5  C   UNL     1     104.914 124.596 147.218  0.00  0.00    +0.000 A 
ATOM      6  C   UNL     1     102.516 124.140 146.635  0.00  0.00    +0.000 A 
ATOM      7  C   UNL     1     103.526 124.912 147.338  0.00  0.00    +0.000 A 
ATOM      8  C   UNL     1     104.313 125.065 147.533  0.00  0.00    +0.000 A 
ATOM      9  C   UNL     1     102.316 123.493 146.107  0.00  0.00    +0.000 A 
ATOM     10  C   UNL     1     103.760 123.169 145.985  0.00  0.00    +0.000 A 
ATOM     11  C   UNL     1     102.942 123.005 145.779  0.00  0.00    +0.000 A 
ENDROOT
BRANCH   5  12
ATOM     12  C   UNL     1     105.701 124.749 147.411  0.00  0.00    +0.000 A 
ATOM     13  C   UNL     1     106.025 124.434 148.102  0.00  0.00    +0.000 A 
ATOM     14  C   UNL     1     106.165 125.216 146.913  0.00  0.00    +0.000 A 
ATOM     15  C   UNL     1     106.813 124.588 148.294  0.00  0.00    +0.000 A 
ATOM     16  C   UNL     1     106.952 125.369 147.107  0.00  0.00    +0.000 A 
ATOM     17  C   UNL     1     107.276 125.054 147.797  0.00  0.00    +0.000 A 
BRANCH  15  18
ATOM     18  O   UNL     1     107.137 124.273 148.985  0.00  0.00    +0.000 OA
ATOM     19  C   UNL     1     107.889 124.506 149.232  0.00  0.00    +0.000 C 
ENDBRANCH  15  18
ENDBRANCH   5  12
BRANCH   6  20
ATOM     20  O   UNL     1     101.921 124.615 146.955  0.00  0.00    +0.000 OA
ATOM     21  C   UNL     1     101.708 124.531 147.748  0.00  0.00    +0.000 C 
ENDBRANCH   6  20
BRANCH   9  22
ATOM     22  O   UNL     1     101.528 123.343 145.914  0.00  0.00    +0.000 OA
ATOM     23  C   UNL     1     101.344 122.812 145.310  0.00  0.00    +0.000 C 
ENDBRANCH   9  22
TORSDOF 4
ENDMDL
MODEL 2
REMARK VINA RESULT:      -7.6      1.121      4.517
REMARK  Name = 44257599
REMARK  4 active torsions:
REMARK  status: ('A' for Active; 'I' for Inactive)
REMARK    1  A    between atoms: O_2  and  C_9
REMARK    2  A    between atoms: O_3  and  C_13
REMARK    3  A    between atoms: O_5  and  C_18
REMARK    4  A    between atoms: C_8  and  C_11
REMARK                            x       y       z     vdW  Elec       q    Type
REMARK                         _______ _______ _______ _____ _____    ______ ____
ROOT
ATOM      1  O   UNL     1     104.582 124.285 147.238  0.00  0.00    +0.000 OA
ATOM      2  O   UNL     1     105.559 125.116 145.122  0.00  0.00    +0.000 OA
ATOM      3  C   UNL     1     105.684 124.839 146.517  0.00  0.00    +0.000 A 
ATOM      4  C   UNL     1     105.359 124.562 147.223  0.00  0.00    +0.000 A 
ATOM      5  C   UNL     1     104.131 124.285 146.547  0.00  0.00    +0.000 A 
ATOM      6  C   UNL     1     106.493 125.130 146.489  0.00  0.00    +0.000 A 
ATOM      7  C   UNL     1     105.233 124.839 145.827  0.00  0.00    +0.000 A 
ATOM      8  C   UNL     1     104.456 124.562 145.841  0.00  0.00    +0.000 A 
ATOM      9  C   UNL     1     106.967 125.133 147.205  0.00  0.00    +0.000 A 
ATOM     10  C   UNL     1     105.819 124.557 147.949  0.00  0.00    +0.000 A 
ATOM     11  C   UNL     1     106.628 124.844 147.940  0.00  0.00    +0.000 A 
ENDROOT
BRANCH   5  12
ATOM     12  C   UNL     1     103.354 124.008 146.562  0.00  0.00    +0.000 A 
ATOM     13  C   UNL     1     102.766 124.446 146.941  0.00  0.00    +0.000 A 
ATOM     14  C   UNL     1     103.165 123.291 146.199  0.00  0.00    +0.000 A 
ATOM     15  C   UNL     1     101.989 124.168 146.955  0.00  0.00    +0.000 A 
ATOM     16  C   UNL     1     102.388 123.014 146.214  0.00  0.00    +0.000 A 
ATOM     17  C   UNL     1     101.800 123.452 146.593  0.00  0.00    +0.000 A 
BRANCH  15  18
ATOM     18  O   UNL     1     101.402 124.606 147.334  0.00  0.00    +0.000 OA
ATOM     19  C   UNL     1     101.100 124.354 148.059  0.00  0.00    +0.000 C 
ENDBRANCH  15  18
ENDBRANCH   5  12
BRANCH   6  20
ATOM     20  O   UNL     1     106.810 125.406 145.779  0.00  0.00    +0.000 OA
ATOM     21  C   UNL     1     106.541 126.116 145.455  0.00  0.00    +0.000 C 
ENDBRANCH   6  20
BRANCH   9  22
ATOM     22  O   UNL     1     107.744 125.411 147.188  0.00  0.00    +0.000 OA
ATOM     23  C   UNL     1     108.260 125.233 147.805  0.00  0.00    +0.000 C 
ENDBRANCH   9  22
TORSDOF 4
ENDMDL
MODEL 3
REMARK VINA RESULT:      -7.4      8.419      9.364
REMARK  Name = 44257599
REMARK  4 active torsions:
REMARK  status: ('A' for Active; 'I' for Inactive)
REMARK    1  A    between atoms: O_2  and  C_9
REMARK    2  A    between atoms: O_3  and  C_13
REMARK    3  A    between atoms: O_5  and  C_18
REMARK    4  A    between atoms: C_8  and  C_11
REMARK                            x       y       z     vdW  Elec       q    Type
REMARK                         _______ _______ _______ _____ _____    ______ ____
ROOT
ATOM      1  O   UNL     1     102.815 130.763 142.218  0.00  0.00    +0.000 OA
ATOM      2  O   UNL     1     102.741 129.721 139.974  0.00  0.00    +0.000 OA
ATOM      3  C   UNL     1     103.232 129.737 141.315  0.00  0.00    +0.000 A 
ATOM      4  C   UNL     1     103.256 130.084 142.063  0.00  0.00    +0.000 A 
ATOM      5  C   UNL     1     102.348 131.096 141.623  0.00  0.00    +0.000 A 
ATOM      6  C   UNL     1     103.687 129.028 141.143  0.00  0.00    +0.000 A 
ATOM      7  C   UNL     1     102.766 130.069 140.722  0.00  0.00    +0.000 A 
ATOM      8  C   UNL     1     102.324 130.749 140.875  0.00  0.00    +0.000 A 
ATOM      9  C   UNL     1     104.175 128.678 141.757  0.00  0.00    +0.000 A 
ATOM     10  C   UNL     1     103.738 129.747 142.691  0.00  0.00    +0.000 A 
ATOM     11  C   UNL     1     104.200 129.039 142.536  0.00  0.00    +0.000 A 
ENDROOT
BRANCH   5  12
ATOM     12  C   UNL     1     101.907 131.775 141.778  0.00  0.00    +0.000 A 
ATOM     13  C   UNL     1     102.219 132.519 141.606  0.00  0.00    +0.000 A 
ATOM     14  C   UNL     1     101.151 131.710 142.105  0.00  0.00    +0.000 A 
ATOM     15  C   UNL     1     101.777 133.198 141.761  0.00  0.00    +0.000 A 
ATOM     16  C   UNL     1     100.710 132.390 142.260  0.00  0.00    +0.000 A 
ATOM     17  C   UNL     1     101.023 133.134 142.088  0.00  0.00    +0.000 A 
BRANCH  15  18
ATOM     18  O   UNL     1     102.090 133.942 141.589  0.00  0.00    +0.000 OA
ATOM     19  C   UNL     1     101.586 134.583 141.467  0.00  0.00    +0.000 C 
ENDBRANCH  15  18
ENDBRANCH   5  12
BRANCH   6  20
ATOM     20  O   UNL     1     103.657 128.688 140.392  0.00  0.00    +0.000 OA
ATOM     21  C   UNL     1     102.942 128.396 140.101  0.00  0.00    +0.000 C 
ENDBRANCH   6  20
BRANCH   9  22
ATOM     22  O   UNL     1     104.615 127.998 141.601  0.00  0.00    +0.000 OA
ATOM     23  C   UNL     1     105.178 127.736 142.144  0.00  0.00    +0.000 C 
ENDBRANCH   9  22
TORSDOF 4
ENDMDL
MODEL 4
REMARK VINA RESULT:      -7.3     13.120     14.429
REMARK  Name = 44257599
REMARK  4 active torsions:
REMARK  status: ('A' for Active; 'I' for Inactive)
REMARK    1  A    between atoms: O_2  and  C_9
REMARK    2  A    between atoms: O_3  and  C_13
REMARK    3  A    between atoms: O_5  and  C_18
REMARK    4  A    between atoms: C_8  and  C_11
REMARK                            x       y       z     vdW  Elec       q    Type
REMARK                         _______ _______ _______ _____ _____    ______ ____
ROOT
ATOM      1  O   UNL     1     113.134 127.096 137.418  0.00  0.00    +0.000 OA
ATOM      2  O   UNL     1     114.190 128.329 135.550  0.00  0.00    +0.000 OA
ATOM      3  C   UNL     1     113.394 128.325 136.736  0.00  0.00    +0.000 A 
ATOM      4  C   UNL     1     113.042 127.913 137.359  0.00  0.00    +0.000 A 
ATOM      5  C   UNL     1     113.579 126.689 136.853  0.00  0.00    +0.000 A 
ATOM      6  C   UNL     1     113.306 129.177 136.664  0.00  0.00    +0.000 A 
ATOM      7  C   UNL     1     113.838 127.918 136.173  0.00  0.00    +0.000 A 
ATOM      8  C   UNL     1     113.931 127.100 136.231  0.00  0.00    +0.000 A 
ATOM      9  C   UNL     1     112.844 129.605 137.248  0.00  0.00    +0.000 A 
ATOM     10  C   UNL     1     112.577 128.326 137.952  0.00  0.00    +0.000 A 
ATOM     11  C   UNL     1     112.478 129.177 137.896  0.00  0.00    +0.000 A 
ENDROOT
BRANCH   5  12
ATOM     12  C   UNL     1     113.670 125.871 136.913  0.00  0.00    +0.000 A 
ATOM     13  C   UNL     1     113.084 125.368 136.625  0.00  0.00    +0.000 A 
ATOM     14  C   UNL     1     114.350 125.557 137.261  0.00  0.00    +0.000 A 
ATOM     15  C   UNL     1     113.177 124.550 136.685  0.00  0.00    +0.000 A 
ATOM     16  C   UNL     1     114.442 124.740 137.320  0.00  0.00    +0.000 A 
ATOM     17  C   UNL     1     113.855 124.236 137.032  0.00  0.00    +0.000 A 
BRANCH  15  18
ATOM     18  O   UNL     1     112.590 124.047 136.397  0.00  0.00    +0.000 OA
ATOM     19  C   UNL     1     112.149 123.586 136.919  0.00  0.00    +0.000 C 
ENDBRANCH  15  18
ENDBRANCH   5  12
BRANCH   6  20
ATOM     20  O   UNL     1     113.662 129.579 136.038  0.00  0.00    +0.000 OA
ATOM     21  C   UNL     1     113.355 129.508 135.275  0.00  0.00    +0.000 C 
ENDBRANCH   6  20
BRANCH   9  22
ATOM     22  O   UNL     1     112.754 130.423 137.187  0.00  0.00    +0.000 OA
ATOM     23  C   UNL     1     112.421 130.850 137.809  0.00  0.00    +0.000 C 
ENDBRANCH   9  22
TORSDOF 4
ENDMDL
MODEL 5
REMARK VINA RESULT:      -7.3     12.963     14.282
REMARK  Name = 44257599
REMARK  4 active torsions:
REMARK  status: ('A' for Active; 'I' for Inactive)
REMARK    1  A    between atoms: O_2  and  C_9
REMARK    2  A    between atoms: O_3  and  C_13
REMARK    3  A    between atoms: O_5  and  C_18
REMARK    4  A    between atoms: C_8  and  C_11
REMARK                            x       y       z     vdW  Elec       q    Type
REMARK                         _______ _______ _______ _____ _____    ______ ____
ROOT
ATOM      1  O   UNL     1     113.369 126.865 136.496  0.00  0.00    +0.000 OA
ATOM      2  O   UNL     1     110.963 126.758 135.925  0.00  0.00    +0.000 OA
ATOM      3  C   UNL     1     112.166 126.109 136.341  0.00  0.00    +0.000 A 
ATOM      4  C   UNL     1     112.968 126.145 136.531  0.00  0.00    +0.000 A 
ATOM      5  C   UNL     1     112.968 127.550 136.270  0.00  0.00    +0.000 A 
ATOM      6  C   UNL     1     111.738 125.365 136.374  0.00  0.00    +0.000 A 
ATOM      7  C   UNL     1     111.765 126.793 136.115  0.00  0.00    +0.000 A 
ATOM      8  C   UNL     1     112.166 127.514 136.080  0.00  0.00    +0.000 A 
ATOM      9  C   UNL     1     112.150 124.649 136.609  0.00  0.00    +0.000 A 
ATOM     10  C   UNL     1     113.397 125.438 136.768  0.00  0.00    +0.000 A 
ATOM     11  C   UNL     1     112.985 124.686 136.807  0.00  0.00    +0.000 A 
ENDROOT
BRANCH   5  12
ATOM     12  C   UNL     1     113.369 128.270 136.235  0.00  0.00    +0.000 A 
ATOM     13  C   UNL     1     113.846 128.445 135.585  0.00  0.00    +0.000 A 
ATOM     14  C   UNL     1     113.293 128.815 136.850  0.00  0.00    +0.000 A 
ATOM     15  C   UNL     1     114.247 129.166 135.551  0.00  0.00    +0.000 A 
ATOM     16  C   UNL     1     113.694 129.534 136.815  0.00  0.00    +0.000 A 
ATOM     17  C   UNL     1     114.171 129.710 136.165  0.00  0.00    +0.000 A 
BRANCH  15  18
ATOM     18  O   UNL     1     114.724 129.341 134.901  0.00  0.00    +0.000 OA
ATOM     19  C   UNL     1     114.980 130.115 134.774  0.00  0.00    +0.000 C 
ENDBRANCH  15  18
ENDBRANCH   5  12
BRANCH   6  20
ATOM     20  O   UNL     1     110.936 125.339 136.182  0.00  0.00    +0.000 OA
ATOM     21  C   UNL     1     110.697 125.415 135.396  0.00  0.00    +0.000 C 
ENDBRANCH   6  20
BRANCH   9  22
ATOM     22  O   UNL     1     111.747 123.930 136.644  0.00  0.00    +0.000 OA
ATOM     23  C   UNL     1     112.075 123.291 137.049  0.00  0.00    +0.000 C 
ENDBRANCH   9  22
TORSDOF 4
ENDMDL
MODEL 6
REMARK VINA RESULT:      -7.3     12.645     13.877
REMARK  Name = 44257599
REMARK  4 active torsions:
REMARK  status: ('A' for Active; 'I' for Inactive)
REMARK    1  A    between atoms: O_2  and  C_9
REMARK    2  A    between atoms: O_3  and  C_13
REMARK    3  A    between atoms: O_5  and  C_18
REMARK    4  A    between atoms: C_8  and  C_11
REMARK                            x       y       z     vdW  Elec       q    Type
REMARK                         _______ _______ _______ _____ _____    ______ ____
ROOT
ATOM      1  O   UNL     1     111.877 126.835 136.130  0.00  0.00    +0.000 OA
ATOM      2  O   UNL     1     111.222 124.457 135.928  0.00  0.00    +0.000 OA
ATOM      3  C   UNL     1     112.185 125.448 136.288  0.00  0.00    +0.000 A 
ATOM      4  C   UNL     1     112.404 126.241 136.356  0.00  0.00    +0.000 A 
ATOM      5  C   UNL     1     111.132 126.636 135.837  0.00  0.00    +0.000 A 
ATOM      6  C   UNL     1     112.725 124.821 136.520  0.00  0.00    +0.000 A 
ATOM      7  C   UNL     1     111.441 125.250 135.996  0.00  0.00    +0.000 A 
ATOM      8  C   UNL     1     110.913 125.843 135.770  0.00  0.00    +0.000 A 
ATOM      9  C   UNL     1     113.502 125.022 136.826  0.00  0.00    +0.000 A 
ATOM     10  C   UNL     1     113.177 126.461 136.660  0.00  0.00    +0.000 A 
ATOM     11  C   UNL     1     113.730 125.847 136.896  0.00  0.00    +0.000 A 
ENDROOT
BRANCH   5  12
ATOM     12  C   UNL     1     110.606 127.230 135.612  0.00  0.00    +0.000 A 
ATOM     13  C   UNL     1     110.071 127.537 136.160  0.00  0.00    +0.000 A 
ATOM     14  C   UNL     1     110.615 127.516 134.837  0.00  0.00    +0.000 A 
ATOM     15  C   UNL     1     109.545 128.132 135.933  0.00  0.00    +0.000 A 
ATOM     16  C   UNL     1     110.088 128.110 134.612  0.00  0.00    +0.000 A 
ATOM     17  C   UNL     1     109.554 128.418 135.160  0.00  0.00    +0.000 A 
BRANCH  15  18
ATOM     18  O   UNL     1     109.010 128.439 136.481  0.00  0.00    +0.000 OA
ATOM     19  C   UNL     1     108.927 129.256 136.563  0.00  0.00    +0.000 C 
ENDBRANCH  15  18
ENDBRANCH   5  12
BRANCH   6  20
ATOM     20  O   UNL     1     112.498 124.031 136.449  0.00  0.00    +0.000 OA
ATOM     21  C   UNL     1     111.974 123.702 136.995  0.00  0.00    +0.000 C 
ENDBRANCH   6  20
BRANCH   9  22
ATOM     22  O   UNL     1     114.027 124.426 137.051  0.00  0.00    +0.000 OA
ATOM     23  C   UNL     1     114.806 124.614 137.247  0.00  0.00    +0.000 C 
ENDBRANCH   9  22
TORSDOF 4
ENDMDL
MODEL 7
REMARK VINA RESULT:      -7.3     13.133     14.581
REMARK  Name = 44257599
REMARK  4 active torsions:
REMARK  status: ('A' for Active; 'I' for Inactive)
REMARK    1  A    between atoms: O_2  and  C_9
REMARK    2  A    between atoms: O_3  and  C_13
REMARK    3  A    between atoms: O_5  and  C_18
REMARK    4  A    between atoms: C_8  and  C_11
REMARK                            x       y       z     vdW  Elec       q    Type
REMARK                         _______ _______ _______ _____ _____    ______ ____
ROOT
ATOM      1  O   UNL     1     113.890 127.145 136.266  0.00  0.00    +0.000 OA
ATOM      2  O   UNL     1     112.768 128.356 138.110  0.00  0.00    +0.000 OA
ATOM      3  C   UNL     1     113.483 128.373 136.874  0.00  0.00    +0.000 A 
ATOM      4  C   UNL     1     113.857 127.970 136.259  0.00  0.00    +0.000 A 
ATOM      5  C   UNL     1     113.548 126.724 136.889  0.00  0.00    +0.000 A 
ATOM      6  C   UNL     1     113.443 129.232 136.877  0.00  0.00    +0.000 A 
ATOM      7  C   UNL     1     113.142 127.953 137.495  0.00  0.00    +0.000 A 
ATOM      8  C   UNL     1     113.174 127.128 137.503  0.00  0.00    +0.000 A 
ATOM      9  C   UNL     1     113.797 129.675 136.233  0.00  0.00    +0.000 A 
ATOM     10  C   UNL     1     114.217 128.397 135.606  0.00  0.00    +0.000 A 
ATOM     11  C   UNL     1     114.187 129.255 135.593  0.00  0.00    +0.000 A 
ENDROOT
BRANCH   5  12
ATOM     12  C   UNL     1     113.581 125.900 136.896  0.00  0.00    +0.000 A 
ATOM     13  C   UNL     1     112.946 125.459 136.606  0.00  0.00    +0.000 A 
ATOM     14  C   UNL     1     114.249 125.517 137.193  0.00  0.00    +0.000 A 
ATOM     15  C   UNL     1     112.980 124.635 136.613  0.00  0.00    +0.000 A 
ATOM     16  C   UNL     1     114.281 124.693 137.199  0.00  0.00    +0.000 A 
ATOM     17  C   UNL     1     113.647 124.252 136.910  0.00  0.00    +0.000 A 
BRANCH  15  18
ATOM     18  O   UNL     1     112.346 124.194 136.324  0.00  0.00    +0.000 OA
ATOM     19  C   UNL     1     112.009 123.601 136.788  0.00  0.00    +0.000 C 
ENDBRANCH  15  18
ENDBRANCH   5  12
BRANCH   6  20
ATOM     20  O   UNL     1     113.067 129.627 137.496  0.00  0.00    +0.000 OA
ATOM     21  C   UNL     1     112.243 129.630 137.543  0.00  0.00    +0.000 C 
ENDBRANCH   6  20
BRANCH   9  22
ATOM     22  O   UNL     1     113.764 130.500 136.228  0.00  0.00    +0.000 OA
ATOM     23  C   UNL     1     114.336 130.934 135.823  0.00  0.00    +0.000 C 
ENDBRANCH   9  22
TORSDOF 4
ENDMDL
MODEL 8
REMARK VINA RESULT:      -7.3      0.946      1.575
REMARK  Name = 44257599
REMARK  4 active torsions:
REMARK  status: ('A' for Active; 'I' for Inactive)
REMARK    1  A    between atoms: O_2  and  C_9
REMARK    2  A    between atoms: O_3  and  C_13
REMARK    3  A    between atoms: O_5  and  C_18
REMARK    4  A    between atoms: C_8  and  C_11
REMARK                            x       y       z     vdW  Elec       q    Type
REMARK                         _______ _______ _______ _____ _____    ______ ____
ROOT
ATOM      1  O   UNL     1     103.910 124.472 147.658  0.00  0.00    +0.000 OA
ATOM      2  O   UNL     1     104.242 123.819 145.294  0.00  0.00    +0.000 OA
ATOM      3  C   UNL     1     103.414 123.879 146.456  0.00  0.00    +0.000 A 
ATOM      4  C   UNL     1     103.303 124.096 147.244  0.00  0.00    +0.000 A 
ATOM      5  C   UNL     1     104.628 124.630 147.283  0.00  0.00    +0.000 A 
ATOM      6  C   UNL     1     102.789 123.487 146.015  0.00  0.00    +0.000 A 
ATOM      7  C   UNL     1     104.131 124.037 146.082  0.00  0.00    +0.000 A 
ATOM      8  C   UNL     1     104.739 124.412 146.495  0.00  0.00    +0.000 A 
ATOM      9  C   UNL     1     102.039 123.319 146.400  0.00  0.00    +0.000 A 
ATOM     10  C   UNL     1     102.560 123.937 147.645  0.00  0.00    +0.000 A 
ATOM     11  C   UNL     1     101.924 123.546 147.220  0.00  0.00    +0.000 A 
ENDROOT
BRANCH   5  12
ATOM     12  C   UNL     1     105.235 125.006 147.696  0.00  0.00    +0.000 A 
ATOM     13  C   UNL     1     105.903 124.580 147.927  0.00  0.00    +0.000 A 
ATOM     14  C   UNL     1     105.173 125.808 147.880  0.00  0.00    +0.000 A 
ATOM     15  C   UNL     1     106.509 124.957 148.341  0.00  0.00    +0.000 A 
ATOM     16  C   UNL     1     105.780 126.184 148.293  0.00  0.00    +0.000 A 
ATOM     17  C   UNL     1     106.448 125.758 148.524  0.00  0.00    +0.000 A 
BRANCH  15  18
ATOM     18  O   UNL     1     107.177 124.531 148.572  0.00  0.00    +0.000 OA
ATOM     19  C   UNL     1     107.929 124.795 148.360  0.00  0.00    +0.000 C 
ENDBRANCH  15  18
ENDBRANCH   5  12
BRANCH   6  20
ATOM     20  O   UNL     1     102.909 123.273 145.227  0.00  0.00    +0.000 OA
ATOM     21  C   UNL     1     103.548 122.792 145.023  0.00  0.00    +0.000 C 
ENDBRANCH   6  20
BRANCH   9  22
ATOM     22  O   UNL     1     101.434 122.944 145.984  0.00  0.00    +0.000 OA
ATOM     23  C   UNL     1     100.734 122.739 146.369  0.00  0.00    +0.000 C 
ENDBRANCH   9  22
TORSDOF 4
ENDMDL
MODEL 9
REMARK VINA RESULT:      -7.3      9.255     10.015
REMARK  Name = 44257599
REMARK  4 active torsions:
REMARK  status: ('A' for Active; 'I' for Inactive)
REMARK    1  A    between atoms: O_2  and  C_9
REMARK    2  A    between atoms: O_3  and  C_13
REMARK    3  A    between atoms: O_5  and  C_18
REMARK    4  A    between atoms: C_8  and  C_11
REMARK                            x       y       z     vdW  Elec       q    Type
REMARK                         _______ _______ _______ _____ _____    ______ ____
ROOT
ATOM      1  O   UNL     1     102.854 131.759 141.080  0.00  0.00    +0.000 OA
ATOM      2  O   UNL     1     100.712 132.066 142.281  0.00  0.00    +0.000 OA
ATOM      3  C   UNL     1     101.884 132.619 141.681  0.00  0.00    +0.000 A 
ATOM      4  C   UNL     1     102.598 132.517 141.280  0.00  0.00    +0.000 A 
ATOM      5  C   UNL     1     102.395 131.103 141.280  0.00  0.00    +0.000 A 
ATOM      6  C   UNL     1     101.607 133.405 141.895  0.00  0.00    +0.000 A 
ATOM      7  C   UNL     1     101.426 131.964 141.881  0.00  0.00    +0.000 A 
ATOM      8  C   UNL     1     101.681 131.205 141.681  0.00  0.00    +0.000 A 
ATOM      9  C   UNL     1     102.080 134.091 141.689  0.00  0.00    +0.000 A 
ATOM     10  C   UNL     1     103.084 133.193 141.066  0.00  0.00    +0.000 A 
ATOM     11  C   UNL     1     102.823 133.985 141.272  0.00  0.00    +0.000 A 
ENDROOT
BRANCH   5  12
ATOM     12  C   UNL     1     102.651 130.345 141.079  0.00  0.00    +0.000 A 
ATOM     13  C   UNL     1     103.160 129.934 141.582  0.00  0.00    +0.000 A 
ATOM     14  C   UNL     1     102.398 129.997 140.374  0.00  0.00    +0.000 A 
ATOM     15  C   UNL     1     103.415 129.176 141.381  0.00  0.00    +0.000 A 
ATOM     16  C   UNL     1     102.654 129.239 140.174  0.00  0.00    +0.000 A 
ATOM     17  C   UNL     1     103.163 128.828 140.677  0.00  0.00    +0.000 A 
BRANCH  15  18
ATOM     18  O   UNL     1     103.924 128.765 141.884  0.00  0.00    +0.000 OA
ATOM     19  C   UNL     1     104.560 128.342 141.572  0.00  0.00    +0.000 C 
ENDBRANCH  15  18
ENDBRANCH   5  12
BRANCH   6  20
ATOM     20  O   UNL     1     100.891 133.497 142.295  0.00  0.00    +0.000 OA
ATOM     21  C   UNL     1     100.837 133.296 143.094  0.00  0.00    +0.000 C 
ENDBRANCH   6  20
BRANCH   9  22
ATOM     22  O   UNL     1     101.822 134.849 141.891  0.00  0.00    +0.000 OA
ATOM     23  C   UNL     1     102.223 135.511 141.607  0.00  0.00    +0.000 C 
ENDBRANCH   9  22
TORSDOF 4
ENDMDL
MODEL 10
REMARK VINA RESULT:      -7.2      6.626      8.538
REMARK  Name = 44257599
REMARK  4 active torsions:
REMARK  status: ('A' for Active; 'I' for Inactive)
REMARK    1  A    between atoms: O_2  and  C_9
REMARK    2  A    between atoms: O_3  and  C_13
REMARK    3  A    between atoms: O_5  and  C_18
REMARK    4  A    between atoms: C_8  and  C_11
REMARK                            x       y       z     vdW  Elec       q    Type
REMARK                         _______ _______ _______ _____ _____    ______ ____
ROOT
ATOM      1  O   UNL     1     104.762 124.834 139.927  0.00  0.00    +0.000 OA
ATOM      2  O   UNL     1     106.425 123.168 140.693  0.00  0.00    +0.000 OA
ATOM      3  C   UNL     1     105.870 124.483 140.759  0.00  0.00    +0.000 A 
ATOM      4  C   UNL     1     105.316 125.038 140.503  0.00  0.00    +0.000 A 
ATOM      5  C   UNL     1     104.763 124.074 139.606  0.00  0.00    +0.000 A 
ATOM      6  C   UNL     1     106.452 124.684 141.359  0.00  0.00    +0.000 A 
ATOM      7  C   UNL     1     105.871 123.724 140.437  0.00  0.00    +0.000 A 
ATOM      8  C   UNL     1     105.318 123.518 139.861  0.00  0.00    +0.000 A 
ATOM      9  C   UNL     1     106.456 125.474 141.697  0.00  0.00    +0.000 A 
ATOM     10  C   UNL     1     105.305 125.833 140.831  0.00  0.00    +0.000 A 
ATOM     11  C   UNL     1     105.879 126.052 141.431  0.00  0.00    +0.000 A 
ENDROOT
BRANCH   5  12
ATOM     12  C   UNL     1     104.210 123.870 139.029  0.00  0.00    +0.000 A 
ATOM     13  C   UNL     1     104.453 123.733 138.253  0.00  0.00    +0.000 A 
ATOM     14  C   UNL     1     103.412 123.802 139.230  0.00  0.00    +0.000 A 
ATOM     15  C   UNL     1     103.898 123.529 137.677  0.00  0.00    +0.000 A 
ATOM     16  C   UNL     1     102.858 123.598 138.654  0.00  0.00    +0.000 A 
ATOM     17  C   UNL     1     103.101 123.462 137.877  0.00  0.00    +0.000 A 
BRANCH  15  18
ATOM     18  O   UNL     1     104.141 123.392 136.901  0.00  0.00    +0.000 OA
ATOM     19  C   UNL     1     103.652 122.977 136.382  0.00  0.00    +0.000 C 
ENDBRANCH  15  18
ENDBRANCH   5  12
BRANCH   6  20
ATOM     20  O   UNL     1     107.003 124.122 141.608  0.00  0.00    +0.000 OA
ATOM     21  C   UNL     1     107.639 123.924 141.120  0.00  0.00    +0.000 C 
ENDBRANCH   6  20
BRANCH   9  22
ATOM     22  O   UNL     1     107.011 125.676 142.273  0.00  0.00    +0.000 OA
ATOM     23  C   UNL     1     106.963 126.404 142.656  0.00  0.00    +0.000 C 
ENDBRANCH   9  22
TORSDOF 4
ENDMDL
