MODEL 1
REMARK VINA RESULT:      -9.8      0.000      0.000
REMARK  Name = monoxerutin
REMARK  9 active torsions:
REMARK  status: ('A' for Active; 'I' for Inactive)
REMARK    1  A    between atoms: O_1  and  C_2
REMARK    2  A    between atoms: O_1  and  C_3
REMARK    3  A    between atoms: C_4  and  C_9
REMARK    4  A    between atoms: C_12  and  C_19
REMARK    5  A    between atoms: C_19  and  O_27
REMARK    6  A    between atoms: O_27  and  C_32
REMARK    7  A    between atoms: C_29  and  O_33
REMARK    8  A    between atoms: O_33  and  C_37
REMARK    9  A    between atoms: C_37  and  C_41
REMARK                            x       y       z     vdW  Elec       q    Type
REMARK                         _______ _______ _______ _____ _____    ______ ____
ROOT
ATOM      1  C   UNL     1     112.434 127.035 137.046  0.00  0.00    +0.000 A 
ATOM      2  C   UNL     1     113.181 126.815 136.758  0.00  0.00    +0.000 A 
ATOM      3  C   UNL     1     112.134 127.789 136.893  0.00  0.00    +0.000 A 
ATOM      4  O   UNL     1     113.630 127.349 136.316  0.00  0.00    +0.000 OA
ATOM      5  O   UNL     1     111.392 128.007 137.180  0.00  0.00    +0.000 OA
ATOM      6  C   UNL     1     112.583 128.322 136.452  0.00  0.00    +0.000 A 
ATOM      7  C   UNL     1     113.331 128.102 136.164  0.00  0.00    +0.000 A 
ATOM      8  C   UNL     1     112.283 129.075 136.300  0.00  0.00    +0.000 A 
ATOM      9  C   UNL     1     113.779 128.635 135.722  0.00  0.00    +0.000 A 
ATOM     10  O   UNL     1     111.541 129.293 136.586  0.00  0.00    +0.000 OA
ATOM     11  C   UNL     1     112.732 129.608 135.858  0.00  0.00    +0.000 A 
ATOM     12  C   UNL     1     113.480 129.388 135.569  0.00  0.00    +0.000 A 
ENDROOT
BRANCH   2  13
ATOM     13  C   UNL     1     113.478 126.060 136.913  0.00  0.00    +0.000 A 
ATOM     14  C   UNL     1     114.089 125.960 137.459  0.00  0.00    +0.000 A 
ATOM     15  C   UNL     1     113.163 125.404 136.522  0.00  0.00    +0.000 A 
ATOM     16  C   UNL     1     114.385 125.206 137.613  0.00  0.00    +0.000 A 
ATOM     17  C   UNL     1     113.460 124.650 136.678  0.00  0.00    +0.000 A 
ATOM     18  O   UNL     1     114.996 125.107 138.159  0.00  0.00    +0.000 OA
ATOM     19  C   UNL     1     114.071 124.551 137.223  0.00  0.00    +0.000 A 
ATOM     20  O   UNL     1     114.367 123.796 137.378  0.00  0.00    +0.000 OA
ENDBRANCH   2  13
BRANCH   1  21
ATOM     21  O   UNL     1     111.988 126.498 137.488  0.00  0.00    +0.000 OA
BRANCH  21  22
ATOM     22  C   UNL     1     111.783 126.717 138.841  0.00  0.00    +0.000 C 
ATOM     23  O   UNL     1     112.165 127.340 139.221  0.00  0.00    +0.000 OA
ATOM     24  C   UNL     1     111.279 126.223 139.266  0.00  0.00    +0.000 C 
ATOM     25  C   UNL     1     112.045 127.472 140.024  0.00  0.00    +0.000 C 
ATOM     26  O   UNL     1     110.895 125.598 138.888  0.00  0.00    +0.000 OA
ATOM     27  C   UNL     1     111.155 126.352 140.073  0.00  0.00    +0.000 C 
ATOM     28  C   UNL     1     111.538 126.976 140.452  0.00  0.00    +0.000 C 
ATOM     29  O   UNL     1     110.651 125.860 140.499  0.00  0.00    +0.000 OA
ATOM     30  O   UNL     1     111.416 127.107 141.257  0.00  0.00    +0.000 OA
BRANCH  25  31
ATOM     31  C   UNL     1     112.426 128.095 140.405  0.00  0.00    +0.000 C 
BRANCH  31  32
ATOM     32  O   UNL     1     112.923 128.595 139.976  0.00  0.00    +0.000 OA
BRANCH  32  33
ATOM     33  C   UNL     1     113.243 129.265 140.337  0.00  0.00    +0.000 C 
ATOM     34  C   UNL     1     113.900 129.639 140.004  0.00  0.00    +0.000 C 
ATOM     35  O   UNL     1     112.905 129.558 141.029  0.00  0.00    +0.000 OA
ATOM     36  O   UNL     1     114.236 129.344 139.312  0.00  0.00    +0.000 OA
ATOM     37  C   UNL     1     114.217 130.308 140.367  0.00  0.00    +0.000 C 
ATOM     38  C   UNL     1     113.225 130.227 141.390  0.00  0.00    +0.000 C 
ATOM     39  O   UNL     1     114.873 130.683 140.037  0.00  0.00    +0.000 OA
ATOM     40  C   UNL     1     113.881 130.604 141.061  0.00  0.00    +0.000 C 
ATOM     41  C   UNL     1     112.886 130.521 142.084  0.00  0.00    +0.000 C 
ATOM     42  O   UNL     1     114.198 131.271 141.422  0.00  0.00    +0.000 OA
ENDBRANCH  32  33
ENDBRANCH  31  32
ENDBRANCH  25  31
ENDBRANCH  21  22
ENDBRANCH   1  21
BRANCH  12  43
ATOM     43  O   UNL     1     113.926 129.924 135.128  0.00  0.00    +0.000 OA
BRANCH  43  44
ATOM     44  C   UNL     1     114.597 130.272 135.460  0.00  0.00    +0.000 C 
BRANCH  44  45
ATOM     45  C   UNL     1     115.101 130.725 134.989  0.00  0.00    +0.000 C 
ATOM     46  O   UNL     1     115.659 131.221 135.341  0.00  0.00    +0.000 OA
ENDBRANCH  44  45
ENDBRANCH  43  44
ENDBRANCH  12  43
TORSDOF 9
ENDMDL
MODEL 2
REMARK VINA RESULT:      -9.7      1.983      4.485
REMARK  Name = monoxerutin
REMARK  9 active torsions:
REMARK  status: ('A' for Active; 'I' for Inactive)
REMARK    1  A    between atoms: O_1  and  C_2
REMARK    2  A    between atoms: O_1  and  C_3
REMARK    3  A    between atoms: C_4  and  C_9
REMARK    4  A    between atoms: C_12  and  C_19
REMARK    5  A    between atoms: C_19  and  O_27
REMARK    6  A    between atoms: O_27  and  C_32
REMARK    7  A    between atoms: C_29  and  O_33
REMARK    8  A    between atoms: O_33  and  C_37
REMARK    9  A    between atoms: C_37  and  C_41
REMARK                            x       y       z     vdW  Elec       q    Type
REMARK                         _______ _______ _______ _____ _____    ______ ____
ROOT
ATOM      1  C   UNL     1     112.235 125.672 138.026  0.00  0.00    +0.000 A 
ATOM      2  C   UNL     1     113.026 125.892 138.155  0.00  0.00    +0.000 A 
ATOM      3  C   UNL     1     111.654 125.862 138.582  0.00  0.00    +0.000 A 
ATOM      4  O   UNL     1     113.237 126.301 138.841  0.00  0.00    +0.000 OA
ATOM      5  O   UNL     1     110.869 125.644 138.453  0.00  0.00    +0.000 OA
ATOM      6  C   UNL     1     111.866 126.270 139.266  0.00  0.00    +0.000 A 
ATOM      7  C   UNL     1     112.657 126.490 139.395  0.00  0.00    +0.000 A 
ATOM      8  C   UNL     1     111.286 126.459 139.820  0.00  0.00    +0.000 A 
ATOM      9  C   UNL     1     112.869 126.898 140.080  0.00  0.00    +0.000 A 
ATOM     10  O   UNL     1     110.501 126.241 139.692  0.00  0.00    +0.000 OA
ATOM     11  C   UNL     1     111.498 126.868 140.506  0.00  0.00    +0.000 A 
ATOM     12  C   UNL     1     112.289 127.088 140.635  0.00  0.00    +0.000 A 
ENDROOT
BRANCH   2  13
ATOM     13  C   UNL     1     113.604 125.700 137.597  0.00  0.00    +0.000 A 
ATOM     14  C   UNL     1     113.886 126.278 137.080  0.00  0.00    +0.000 A 
ATOM     15  C   UNL     1     113.900 124.930 137.556  0.00  0.00    +0.000 A 
ATOM     16  C   UNL     1     114.463 126.087 136.523  0.00  0.00    +0.000 A 
ATOM     17  C   UNL     1     114.478 124.740 136.998  0.00  0.00    +0.000 A 
ATOM     18  O   UNL     1     114.745 126.665 136.006  0.00  0.00    +0.000 OA
ATOM     19  C   UNL     1     114.759 125.319 136.482  0.00  0.00    +0.000 A 
ATOM     20  O   UNL     1     115.336 125.127 135.924  0.00  0.00    +0.000 OA
ENDBRANCH   2  13
BRANCH   1  21
ATOM     21  O   UNL     1     112.028 125.263 137.339  0.00  0.00    +0.000 OA
BRANCH  21  22
ATOM     22  C   UNL     1     111.265 125.888 136.365  0.00  0.00    +0.000 C 
ATOM     23  O   UNL     1     111.178 126.708 136.372  0.00  0.00    +0.000 OA
ATOM     24  C   UNL     1     110.898 125.440 135.780  0.00  0.00    +0.000 C 
ATOM     25  C   UNL     1     110.726 127.081 135.794  0.00  0.00    +0.000 C 
ATOM     26  O   UNL     1     110.984 124.620 135.771  0.00  0.00    +0.000 OA
ATOM     27  C   UNL     1     110.443 125.811 135.198  0.00  0.00    +0.000 C 
ATOM     28  C   UNL     1     110.357 126.631 135.205  0.00  0.00    +0.000 C 
ATOM     29  O   UNL     1     110.075 125.364 134.612  0.00  0.00    +0.000 OA
ATOM     30  O   UNL     1     109.902 127.003 134.626  0.00  0.00    +0.000 OA
BRANCH  25  31
ATOM     31  C   UNL     1     110.638 127.900 135.799  0.00  0.00    +0.000 C 
BRANCH  31  32
ATOM     32  O   UNL     1     111.069 128.355 136.338  0.00  0.00    +0.000 OA
BRANCH  32  33
ATOM     33  C   UNL     1     110.946 129.170 136.377  0.00  0.00    +0.000 C 
ATOM     34  C   UNL     1     111.401 129.631 136.888  0.00  0.00    +0.000 C 
ATOM     35  O   UNL     1     110.368 129.520 135.905  0.00  0.00    +0.000 OA
ATOM     36  O   UNL     1     111.978 129.279 137.359  0.00  0.00    +0.000 OA
ATOM     37  C   UNL     1     111.276 130.445 136.925  0.00  0.00    +0.000 C 
ATOM     38  C   UNL     1     110.245 130.335 135.944  0.00  0.00    +0.000 C 
ATOM     39  O   UNL     1     111.730 130.908 137.435  0.00  0.00    +0.000 OA
ATOM     40  C   UNL     1     110.698 130.799 136.454  0.00  0.00    +0.000 C 
ATOM     41  C   UNL     1     109.666 130.686 135.471  0.00  0.00    +0.000 C 
ATOM     42  O   UNL     1     110.574 131.612 136.491  0.00  0.00    +0.000 OA
ENDBRANCH  32  33
ENDBRANCH  31  32
ENDBRANCH  25  31
ENDBRANCH  21  22
ENDBRANCH   1  21
BRANCH  12  43
ATOM     43  O   UNL     1     112.497 127.496 141.321  0.00  0.00    +0.000 OA
BRANCH  43  44
ATOM     44  C   UNL     1     112.325 128.301 141.389  0.00  0.00    +0.000 C 
BRANCH  44  45
ATOM     45  C   UNL     1     112.463 128.692 142.102  0.00  0.00    +0.000 C 
ATOM     46  O   UNL     1     112.517 129.516 142.117  0.00  0.00    +0.000 OA
ENDBRANCH  44  45
ENDBRANCH  43  44
ENDBRANCH  12  43
TORSDOF 9
ENDMDL
MODEL 3
REMARK VINA RESULT:      -9.7      1.442      2.806
REMARK  Name = monoxerutin
REMARK  9 active torsions:
REMARK  status: ('A' for Active; 'I' for Inactive)
REMARK    1  A    between atoms: O_1  and  C_2
REMARK    2  A    between atoms: O_1  and  C_3
REMARK    3  A    between atoms: C_4  and  C_9
REMARK    4  A    between atoms: C_12  and  C_19
REMARK    5  A    between atoms: C_19  and  O_27
REMARK    6  A    between atoms: O_27  and  C_32
REMARK    7  A    between atoms: C_29  and  O_33
REMARK    8  A    between atoms: O_33  and  C_37
REMARK    9  A    between atoms: C_37  and  C_41
REMARK                            x       y       z     vdW  Elec       q    Type
REMARK                         _______ _______ _______ _____ _____    ______ ____
ROOT
ATOM      1  C   UNL     1     111.726 127.623 136.173  0.00  0.00    +0.000 A 
ATOM      2  C   UNL     1     111.393 128.311 135.848  0.00  0.00    +0.000 A 
ATOM      3  C   UNL     1     112.544 127.512 136.163  0.00  0.00    +0.000 A 
ATOM      4  O   UNL     1     111.877 128.890 135.514  0.00  0.00    +0.000 OA
ATOM      5  O   UNL     1     112.875 126.829 136.486  0.00  0.00    +0.000 OA
ATOM      6  C   UNL     1     113.027 128.091 135.829  0.00  0.00    +0.000 A 
ATOM      7  C   UNL     1     112.694 128.779 135.504  0.00  0.00    +0.000 A 
ATOM      8  C   UNL     1     113.844 127.980 135.820  0.00  0.00    +0.000 A 
ATOM      9  C   UNL     1     113.177 129.358 135.170  0.00  0.00    +0.000 A 
ATOM     10  O   UNL     1     114.175 127.296 136.142  0.00  0.00    +0.000 OA
ATOM     11  C   UNL     1     114.329 128.558 135.485  0.00  0.00    +0.000 A 
ATOM     12  C   UNL     1     113.995 129.247 135.160  0.00  0.00    +0.000 A 
ENDROOT
BRANCH   2  13
ATOM     13  C   UNL     1     110.573 128.419 135.860  0.00  0.00    +0.000 A 
ATOM     14  C   UNL     1     110.235 128.955 136.388  0.00  0.00    +0.000 A 
ATOM     15  C   UNL     1     110.093 127.989 135.344  0.00  0.00    +0.000 A 
ATOM     16  C   UNL     1     109.417 129.062 136.399  0.00  0.00    +0.000 A 
ATOM     17  C   UNL     1     109.275 128.097 135.356  0.00  0.00    +0.000 A 
ATOM     18  O   UNL     1     109.079 129.598 136.927  0.00  0.00    +0.000 OA
ATOM     19  C   UNL     1     108.937 128.633 135.884  0.00  0.00    +0.000 A 
ATOM     20  O   UNL     1     108.119 128.740 135.895  0.00  0.00    +0.000 OA
ENDBRANCH   2  13
BRANCH   1  21
ATOM     21  O   UNL     1     111.237 127.046 136.507  0.00  0.00    +0.000 OA
BRANCH  21  22
ATOM     22  C   UNL     1     111.287 126.803 137.870  0.00  0.00    +0.000 C 
ATOM     23  O   UNL     1     111.611 127.365 138.379  0.00  0.00    +0.000 OA
ATOM     24  C   UNL     1     110.993 126.095 138.173  0.00  0.00    +0.000 C 
ATOM     25  C   UNL     1     111.641 127.222 139.189  0.00  0.00    +0.000 C 
ATOM     26  O   UNL     1     110.669 125.531 137.666  0.00  0.00    +0.000 OA
ATOM     27  C   UNL     1     111.022 125.948 138.986  0.00  0.00    +0.000 C 
ATOM     28  C   UNL     1     111.346 126.511 139.493  0.00  0.00    +0.000 C 
ATOM     29  O   UNL     1     110.728 125.241 139.289  0.00  0.00    +0.000 OA
ATOM     30  O   UNL     1     111.376 126.366 140.305  0.00  0.00    +0.000 OA
BRANCH  25  31
ATOM     31  C   UNL     1     111.964 127.783 139.698  0.00  0.00    +0.000 C 
BRANCH  31  32
ATOM     32  O   UNL     1     112.318 128.463 139.388  0.00  0.00    +0.000 OA
BRANCH  32  33
ATOM     33  C   UNL     1     112.615 129.040 139.898  0.00  0.00    +0.000 C 
ATOM     34  C   UNL     1     113.129 129.618 139.611  0.00  0.00    +0.000 C 
ATOM     35  O   UNL     1     112.396 129.035 140.693  0.00  0.00    +0.000 OA
ATOM     36  O   UNL     1     113.346 129.620 138.816  0.00  0.00    +0.000 OA
ATOM     37  C   UNL     1     113.424 130.194 140.123  0.00  0.00    +0.000 C 
ATOM     38  C   UNL     1     112.693 129.612 141.203  0.00  0.00    +0.000 C 
ATOM     39  O   UNL     1     113.938 130.773 139.838  0.00  0.00    +0.000 OA
ATOM     40  C   UNL     1     113.207 130.192 140.920  0.00  0.00    +0.000 C 
ATOM     41  C   UNL     1     112.474 129.609 141.999  0.00  0.00    +0.000 C 
ATOM     42  O   UNL     1     113.502 130.767 141.430  0.00  0.00    +0.000 OA
ENDBRANCH  32  33
ENDBRANCH  31  32
ENDBRANCH  25  31
ENDBRANCH  21  22
ENDBRANCH   1  21
BRANCH  12  43
ATOM     43  O   UNL     1     114.482 129.823 134.827  0.00  0.00    +0.000 OA
BRANCH  43  44
ATOM     44  C   UNL     1     114.810 130.412 135.304  0.00  0.00    +0.000 C 
BRANCH  44  45
ATOM     45  C   UNL     1     115.375 130.927 134.993  0.00  0.00    +0.000 C 
ATOM     46  O   UNL     1     115.350 131.730 135.184  0.00  0.00    +0.000 OA
ENDBRANCH  44  45
ENDBRANCH  43  44
ENDBRANCH  12  43
TORSDOF 9
ENDMDL
MODEL 4
REMARK VINA RESULT:      -9.6      2.286      5.598
REMARK  Name = monoxerutin
REMARK  9 active torsions:
REMARK  status: ('A' for Active; 'I' for Inactive)
REMARK    1  A    between atoms: O_1  and  C_2
REMARK    2  A    between atoms: O_1  and  C_3
REMARK    3  A    between atoms: C_4  and  C_9
REMARK    4  A    between atoms: C_12  and  C_19
REMARK    5  A    between atoms: C_19  and  O_27
REMARK    6  A    between atoms: O_27  and  C_32
REMARK    7  A    between atoms: C_29  and  O_33
REMARK    8  A    between atoms: O_33  and  C_37
REMARK    9  A    between atoms: C_37  and  C_41
REMARK                            x       y       z     vdW  Elec       q    Type
REMARK                         _______ _______ _______ _____ _____    ______ ____
ROOT
ATOM      1  C   UNL     1     111.655 126.749 138.181  0.00  0.00    +0.000 A 
ATOM      2  C   UNL     1     111.127 126.116 138.079  0.00  0.00    +0.000 A 
ATOM      3  C   UNL     1     111.489 127.345 138.728  0.00  0.00    +0.000 A 
ATOM      4  O   UNL     1     110.433 126.077 138.522  0.00  0.00    +0.000 OA
ATOM      5  O   UNL     1     112.013 127.974 138.831  0.00  0.00    +0.000 OA
ATOM      6  C   UNL     1     110.795 127.305 139.172  0.00  0.00    +0.000 A 
ATOM      7  C   UNL     1     110.267 126.672 139.069  0.00  0.00    +0.000 A 
ATOM      8  C   UNL     1     110.629 127.900 139.718  0.00  0.00    +0.000 A 
ATOM      9  C   UNL     1     109.573 126.633 139.512  0.00  0.00    +0.000 A 
ATOM     10  O   UNL     1     111.153 128.529 139.820  0.00  0.00    +0.000 OA
ATOM     11  C   UNL     1     109.934 127.862 140.162  0.00  0.00    +0.000 A 
ATOM     12  C   UNL     1     109.406 127.228 140.059  0.00  0.00    +0.000 A 
ENDROOT
BRANCH   2  13
ATOM     13  C   UNL     1     111.298 125.521 137.530  0.00  0.00    +0.000 A 
ATOM     14  C   UNL     1     110.912 125.511 136.800  0.00  0.00    +0.000 A 
ATOM     15  C   UNL     1     111.853 124.938 137.712  0.00  0.00    +0.000 A 
ATOM     16  C   UNL     1     111.083 124.918 136.253  0.00  0.00    +0.000 A 
ATOM     17  C   UNL     1     112.022 124.345 137.164  0.00  0.00    +0.000 A 
ATOM     18  O   UNL     1     110.697 124.908 135.523  0.00  0.00    +0.000 OA
ATOM     19  C   UNL     1     111.637 124.335 136.434  0.00  0.00    +0.000 A 
ATOM     20  O   UNL     1     111.807 123.742 135.887  0.00  0.00    +0.000 OA
ENDBRANCH   2  13
BRANCH   1  21
ATOM     21  O   UNL     1     112.349 126.784 137.735  0.00  0.00    +0.000 OA
BRANCH  21  22
ATOM     22  C   UNL     1     112.491 127.750 136.751  0.00  0.00    +0.000 C 
ATOM     23  O   UNL     1     111.840 128.194 136.512  0.00  0.00    +0.000 OA
ATOM     24  C   UNL     1     113.227 127.879 136.405  0.00  0.00    +0.000 C 
ATOM     25  C   UNL     1     111.922 128.768 135.928  0.00  0.00    +0.000 C 
ATOM     26  O   UNL     1     113.881 127.436 136.643  0.00  0.00    +0.000 OA
ATOM     27  C   UNL     1     113.314 128.455 135.818  0.00  0.00    +0.000 C 
ATOM     28  C   UNL     1     112.661 128.899 135.579  0.00  0.00    +0.000 C 
ATOM     29  O   UNL     1     114.049 128.586 135.471  0.00  0.00    +0.000 OA
ATOM     30  O   UNL     1     112.746 129.474 134.994  0.00  0.00    +0.000 OA
BRANCH  25  31
ATOM     31  C   UNL     1     111.272 129.213 135.688  0.00  0.00    +0.000 C 
BRANCH  31  32
ATOM     32  O   UNL     1     110.521 129.036 135.986  0.00  0.00    +0.000 OA
BRANCH  32  33
ATOM     33  C   UNL     1     109.880 129.521 135.797  0.00  0.00    +0.000 C 
ATOM     34  C   UNL     1     109.127 129.334 136.076  0.00  0.00    +0.000 C 
ATOM     35  O   UNL     1     109.997 130.189 135.329  0.00  0.00    +0.000 OA
ATOM     36  O   UNL     1     109.014 128.665 136.544  0.00  0.00    +0.000 OA
ATOM     37  C   UNL     1     108.488 129.820 135.886  0.00  0.00    +0.000 C 
ATOM     38  C   UNL     1     109.356 130.674 135.140  0.00  0.00    +0.000 C 
ATOM     39  O   UNL     1     107.734 129.635 136.164  0.00  0.00    +0.000 OA
ATOM     40  C   UNL     1     108.601 130.491 135.418  0.00  0.00    +0.000 C 
ATOM     41  C   UNL     1     109.471 131.344 134.671  0.00  0.00    +0.000 C 
ATOM     42  O   UNL     1     107.963 130.975 135.228  0.00  0.00    +0.000 OA
ENDBRANCH  32  33
ENDBRANCH  31  32
ENDBRANCH  25  31
ENDBRANCH  21  22
ENDBRANCH   1  21
BRANCH  12  43
ATOM     43  O   UNL     1     108.713 127.192 140.504  0.00  0.00    +0.000 OA
BRANCH  43  44
ATOM     44  C   UNL     1     108.729 126.880 141.268  0.00  0.00    +0.000 C 
BRANCH  44  45
ATOM     45  C   UNL     1     108.033 126.833 141.709  0.00  0.00    +0.000 C 
ATOM     46  O   UNL     1     108.053 126.539 142.480  0.00  0.00    +0.000 OA
ENDBRANCH  44  45
ENDBRANCH  43  44
ENDBRANCH  12  43
TORSDOF 9
ENDMDL
MODEL 5
REMARK VINA RESULT:      -9.6      1.767      4.631
REMARK  Name = monoxerutin
REMARK  9 active torsions:
REMARK  status: ('A' for Active; 'I' for Inactive)
REMARK    1  A    between atoms: O_1  and  C_2
REMARK    2  A    between atoms: O_1  and  C_3
REMARK    3  A    between atoms: C_4  and  C_9
REMARK    4  A    between atoms: C_12  and  C_19
REMARK    5  A    between atoms: C_19  and  O_27
REMARK    6  A    between atoms: O_27  and  C_32
REMARK    7  A    between atoms: C_29  and  O_33
REMARK    8  A    between atoms: O_33  and  C_37
REMARK    9  A    between atoms: C_37  and  C_41
REMARK                            x       y       z     vdW  Elec       q    Type
REMARK                         _______ _______ _______ _____ _____    ______ ____
ROOT
ATOM      1  C   UNL     1     112.045 128.057 136.152  0.00  0.00    +0.000 A 
ATOM      2  C   UNL     1     111.304 127.715 135.999  0.00  0.00    +0.000 A 
ATOM      3  C   UNL     1     112.697 127.579 136.320  0.00  0.00    +0.000 A 
ATOM      4  O   UNL     1     111.212 126.895 136.014  0.00  0.00    +0.000 OA
ATOM      5  O   UNL     1     113.433 127.918 136.472  0.00  0.00    +0.000 OA
ATOM      6  C   UNL     1     112.605 126.759 136.335  0.00  0.00    +0.000 A 
ATOM      7  C   UNL     1     111.864 126.418 136.182  0.00  0.00    +0.000 A 
ATOM      8  C   UNL     1     113.257 126.282 136.503  0.00  0.00    +0.000 A 
ATOM      9  C   UNL     1     111.772 125.598 136.197  0.00  0.00    +0.000 A 
ATOM     10  O   UNL     1     113.993 126.622 136.655  0.00  0.00    +0.000 OA
ATOM     11  C   UNL     1     113.165 125.462 136.518  0.00  0.00    +0.000 A 
ATOM     12  C   UNL     1     112.424 125.120 136.365  0.00  0.00    +0.000 A 
ENDROOT
BRANCH   2  13
ATOM     13  C   UNL     1     110.653 128.197 135.830  0.00  0.00    +0.000 A 
ATOM     14  C   UNL     1     110.061 128.302 136.395  0.00  0.00    +0.000 A 
ATOM     15  C   UNL     1     110.597 128.573 135.098  0.00  0.00    +0.000 A 
ATOM     16  C   UNL     1     109.412 128.784 136.227  0.00  0.00    +0.000 A 
ATOM     17  C   UNL     1     109.948 129.054 134.931  0.00  0.00    +0.000 A 
ATOM     18  O   UNL     1     108.820 128.889 136.791  0.00  0.00    +0.000 OA
ATOM     19  C   UNL     1     109.356 129.159 135.495  0.00  0.00    +0.000 A 
ATOM     20  O   UNL     1     108.707 129.641 135.327  0.00  0.00    +0.000 OA
ENDBRANCH   2  13
BRANCH   1  21
ATOM     21  O   UNL     1     112.132 128.878 136.136  0.00  0.00    +0.000 OA
BRANCH  21  22
ATOM     22  C   UNL     1     112.389 129.570 137.309  0.00  0.00    +0.000 C 
ATOM     23  O   UNL     1     112.205 129.230 138.037  0.00  0.00    +0.000 OA
ATOM     24  C   UNL     1     112.727 130.321 137.278  0.00  0.00    +0.000 C 
ATOM     25  C   UNL     1     112.357 129.639 138.735  0.00  0.00    +0.000 C 
ATOM     26  O   UNL     1     112.912 130.662 136.551  0.00  0.00    +0.000 OA
ATOM     27  C   UNL     1     112.881 130.735 137.977  0.00  0.00    +0.000 C 
ATOM     28  C   UNL     1     112.696 130.394 138.705  0.00  0.00    +0.000 C 
ATOM     29  O   UNL     1     113.218 131.485 137.947  0.00  0.00    +0.000 OA
ATOM     30  O   UNL     1     112.850 130.806 139.403  0.00  0.00    +0.000 OA
BRANCH  25  31
ATOM     31  C   UNL     1     112.174 129.301 139.463  0.00  0.00    +0.000 C 
BRANCH  31  32
ATOM     32  O   UNL     1     111.923 128.515 139.499  0.00  0.00    +0.000 OA
BRANCH  32  33
ATOM     33  C   UNL     1     111.668 128.197 140.217  0.00  0.00    +0.000 C 
ATOM     34  C   UNL     1     111.744 127.388 140.359  0.00  0.00    +0.000 C 
ATOM     35  O   UNL     1     111.339 128.692 140.789  0.00  0.00    +0.000 OA
ATOM     36  O   UNL     1     112.073 126.897 139.786  0.00  0.00    +0.000 OA
ATOM     37  C   UNL     1     111.488 127.074 141.078  0.00  0.00    +0.000 C 
ATOM     38  C   UNL     1     111.084 128.374 141.507  0.00  0.00    +0.000 C 
ATOM     39  O   UNL     1     111.562 126.265 141.222  0.00  0.00    +0.000 OA
ATOM     40  C   UNL     1     111.158 127.566 141.653  0.00  0.00    +0.000 C 
ATOM     41  C   UNL     1     110.754 128.869 142.080  0.00  0.00    +0.000 C 
ATOM     42  O   UNL     1     110.903 127.251 142.369  0.00  0.00    +0.000 OA
ENDBRANCH  32  33
ENDBRANCH  31  32
ENDBRANCH  25  31
ENDBRANCH  21  22
ENDBRANCH   1  21
BRANCH  12  43
ATOM     43  O   UNL     1     112.336 124.300 136.381  0.00  0.00    +0.000 OA
BRANCH  43  44
ATOM     44  C   UNL     1     112.024 123.932 137.051  0.00  0.00    +0.000 C 
BRANCH  44  45
ATOM     45  C   UNL     1     112.039 123.110 137.114  0.00  0.00    +0.000 C 
ATOM     46  O   UNL     1     111.689 122.739 137.763  0.00  0.00    +0.000 OA
ENDBRANCH  44  45
ENDBRANCH  43  44
ENDBRANCH  12  43
TORSDOF 9
ENDMDL
MODEL 6
REMARK VINA RESULT:      -9.5      1.837      4.379
REMARK  Name = monoxerutin
REMARK  9 active torsions:
REMARK  status: ('A' for Active; 'I' for Inactive)
REMARK    1  A    between atoms: O_1  and  C_2
REMARK    2  A    between atoms: O_1  and  C_3
REMARK    3  A    between atoms: C_4  and  C_9
REMARK    4  A    between atoms: C_12  and  C_19
REMARK    5  A    between atoms: C_19  and  O_27
REMARK    6  A    between atoms: O_27  and  C_32
REMARK    7  A    between atoms: C_29  and  O_33
REMARK    8  A    between atoms: O_33  and  C_37
REMARK    9  A    between atoms: C_37  and  C_41
REMARK                            x       y       z     vdW  Elec       q    Type
REMARK                         _______ _______ _______ _____ _____    ______ ____
ROOT
ATOM      1  C   UNL     1     110.971 129.478 137.971  0.00  0.00    +0.000 A 
ATOM      2  C   UNL     1     110.874 129.677 137.170  0.00  0.00    +0.000 A 
ATOM      3  C   UNL     1     111.701 129.589 138.342  0.00  0.00    +0.000 A 
ATOM      4  O   UNL     1     111.506 129.986 136.738  0.00  0.00    +0.000 OA
ATOM      5  O   UNL     1     111.797 129.391 139.137  0.00  0.00    +0.000 OA
ATOM      6  C   UNL     1     112.332 129.897 137.910  0.00  0.00    +0.000 A 
ATOM      7  C   UNL     1     112.235 130.096 137.109  0.00  0.00    +0.000 A 
ATOM      8  C   UNL     1     113.060 130.007 138.281  0.00  0.00    +0.000 A 
ATOM      9  C   UNL     1     112.866 130.404 136.678  0.00  0.00    +0.000 A 
ATOM     10  O   UNL     1     113.156 129.810 139.076  0.00  0.00    +0.000 OA
ATOM     11  C   UNL     1     113.692 130.316 137.849  0.00  0.00    +0.000 A 
ATOM     12  C   UNL     1     113.595 130.515 137.048  0.00  0.00    +0.000 A 
ENDROOT
BRANCH   2  13
ATOM     13  C   UNL     1     110.142 129.565 136.802  0.00  0.00    +0.000 A 
ATOM     14  C   UNL     1     110.037 128.938 136.276  0.00  0.00    +0.000 A 
ATOM     15  C   UNL     1     109.517 130.080 136.962  0.00  0.00    +0.000 A 
ATOM     16  C   UNL     1     109.306 128.826 135.910  0.00  0.00    +0.000 A 
ATOM     17  C   UNL     1     108.787 129.967 136.594  0.00  0.00    +0.000 A 
ATOM     18  O   UNL     1     109.201 128.200 135.384  0.00  0.00    +0.000 OA
ATOM     19  C   UNL     1     108.682 129.341 136.068  0.00  0.00    +0.000 A 
ATOM     20  O   UNL     1     107.951 129.229 135.702  0.00  0.00    +0.000 OA
ENDBRANCH   2  13
BRANCH   1  21
ATOM     21  O   UNL     1     110.336 129.169 138.399  0.00  0.00    +0.000 OA
BRANCH  21  22
ATOM     22  C   UNL     1     110.357 127.846 138.809  0.00  0.00    +0.000 C 
ATOM     23  O   UNL     1     110.929 127.331 138.514  0.00  0.00    +0.000 OA
ATOM     24  C   UNL     1     109.797 127.574 139.349  0.00  0.00    +0.000 C 
ATOM     25  C   UNL     1     110.943 126.544 138.757  0.00  0.00    +0.000 C 
ATOM     26  O   UNL     1     109.224 128.087 139.646  0.00  0.00    +0.000 OA
ATOM     27  C   UNL     1     109.808 126.784 139.596  0.00  0.00    +0.000 C 
ATOM     28  C   UNL     1     110.381 126.270 139.299  0.00  0.00    +0.000 C 
ATOM     29  O   UNL     1     109.250 126.511 140.135  0.00  0.00    +0.000 OA
ATOM     30  O   UNL     1     110.394 125.482 139.544  0.00  0.00    +0.000 OA
BRANCH  25  31
ATOM     31  C   UNL     1     111.514 126.029 138.463  0.00  0.00    +0.000 C 
BRANCH  31  32
ATOM     32  O   UNL     1     112.291 126.291 138.364  0.00  0.00    +0.000 OA
BRANCH  32  33
ATOM     33  C   UNL     1     112.853 125.791 138.025  0.00  0.00    +0.000 C 
ATOM     34  C   UNL     1     113.650 125.869 138.225  0.00  0.00    +0.000 C 
ATOM     35  O   UNL     1     112.615 125.214 137.486  0.00  0.00    +0.000 OA
ATOM     36  O   UNL     1     113.885 126.446 138.764  0.00  0.00    +0.000 OA
ATOM     37  C   UNL     1     114.209 125.368 137.884  0.00  0.00    +0.000 C 
ATOM     38  C   UNL     1     113.177 124.714 137.146  0.00  0.00    +0.000 C 
ATOM     39  O   UNL     1     115.006 125.445 138.083  0.00  0.00    +0.000 OA
ATOM     40  C   UNL     1     113.974 124.789 137.344  0.00  0.00    +0.000 C 
ATOM     41  C   UNL     1     112.939 124.135 136.606  0.00  0.00    +0.000 C 
ATOM     42  O   UNL     1     114.533 124.289 137.004  0.00  0.00    +0.000 OA
ENDBRANCH  32  33
ENDBRANCH  31  32
ENDBRANCH  25  31
ENDBRANCH  21  22
ENDBRANCH   1  21
BRANCH  12  43
ATOM     43  O   UNL     1     114.229 130.823 136.619  0.00  0.00    +0.000 OA
BRANCH  43  44
ATOM     44  C   UNL     1     114.623 130.351 136.068  0.00  0.00    +0.000 C 
BRANCH  44  45
ATOM     45  C   UNL     1     115.275 130.650 135.661  0.00  0.00    +0.000 C 
ATOM     46  O   UNL     1     115.520 130.294 134.958  0.00  0.00    +0.000 OA
ENDBRANCH  44  45
ENDBRANCH  43  44
ENDBRANCH  12  43
TORSDOF 9
ENDMDL
MODEL 7
REMARK VINA RESULT:      -9.4      1.869      3.812
REMARK  Name = monoxerutin
REMARK  9 active torsions:
REMARK  status: ('A' for Active; 'I' for Inactive)
REMARK    1  A    between atoms: O_1  and  C_2
REMARK    2  A    between atoms: O_1  and  C_3
REMARK    3  A    between atoms: C_4  and  C_9
REMARK    4  A    between atoms: C_12  and  C_19
REMARK    5  A    between atoms: C_19  and  O_27
REMARK    6  A    between atoms: O_27  and  C_32
REMARK    7  A    between atoms: C_29  and  O_33
REMARK    8  A    between atoms: O_33  and  C_37
REMARK    9  A    between atoms: C_37  and  C_41
REMARK                            x       y       z     vdW  Elec       q    Type
REMARK                         _______ _______ _______ _____ _____    ______ ____
ROOT
ATOM      1  C   UNL     1     112.109 128.339 136.021  0.00  0.00    +0.000 A 
ATOM      2  C   UNL     1     111.283 128.363 135.930  0.00  0.00    +0.000 A 
ATOM      3  C   UNL     1     112.518 129.006 136.283  0.00  0.00    +0.000 A 
ATOM      4  O   UNL     1     110.866 129.055 136.101  0.00  0.00    +0.000 OA
ATOM      5  O   UNL     1     113.338 128.982 136.374  0.00  0.00    +0.000 OA
ATOM      6  C   UNL     1     112.101 129.697 136.454  0.00  0.00    +0.000 A 
ATOM      7  C   UNL     1     111.275 129.721 136.363  0.00  0.00    +0.000 A 
ATOM      8  C   UNL     1     112.510 130.363 136.716  0.00  0.00    +0.000 A 
ATOM      9  C   UNL     1     110.858 130.411 136.533  0.00  0.00    +0.000 A 
ATOM     10  O   UNL     1     113.330 130.339 136.806  0.00  0.00    +0.000 OA
ATOM     11  C   UNL     1     112.093 131.054 136.886  0.00  0.00    +0.000 A 
ATOM     12  C   UNL     1     111.267 131.079 136.795  0.00  0.00    +0.000 A 
ENDROOT
BRANCH   2  13
ATOM     13  C   UNL     1     110.877 127.693 135.668  0.00  0.00    +0.000 A 
ATOM     14  C   UNL     1     110.431 127.246 136.199  0.00  0.00    +0.000 A 
ATOM     15  C   UNL     1     110.916 127.471 134.873  0.00  0.00    +0.000 A 
ATOM     16  C   UNL     1     110.026 126.577 135.937  0.00  0.00    +0.000 A 
ATOM     17  C   UNL     1     110.510 126.802 134.612  0.00  0.00    +0.000 A 
ATOM     18  O   UNL     1     109.581 126.130 136.469  0.00  0.00    +0.000 OA
ATOM     19  C   UNL     1     110.065 126.355 135.144  0.00  0.00    +0.000 A 
ATOM     20  O   UNL     1     109.660 125.686 134.882  0.00  0.00    +0.000 OA
ENDBRANCH   2  13
BRANCH   1  21
ATOM     21  O   UNL     1     112.522 127.645 135.849  0.00  0.00    +0.000 OA
BRANCH  21  22
ATOM     22  C   UNL     1     113.121 126.926 136.871  0.00  0.00    +0.000 C 
ATOM     23  O   UNL     1     112.866 127.022 137.649  0.00  0.00    +0.000 OA
ATOM     24  C   UNL     1     113.733 126.401 136.701  0.00  0.00    +0.000 C 
ATOM     25  C   UNL     1     113.220 126.596 138.257  0.00  0.00    +0.000 C 
ATOM     26  O   UNL     1     113.991 126.303 135.924  0.00  0.00    +0.000 OA
ATOM     27  C   UNL     1     114.092 125.971 137.310  0.00  0.00    +0.000 C 
ATOM     28  C   UNL     1     113.836 126.069 138.087  0.00  0.00    +0.000 C 
ATOM     29  O   UNL     1     114.704 125.447 137.141  0.00  0.00    +0.000 OA
ATOM     30  O   UNL     1     114.193 125.641 138.695  0.00  0.00    +0.000 OA
BRANCH  25  31
ATOM     31  C   UNL     1     112.966 126.691 139.035  0.00  0.00    +0.000 C 
BRANCH  31  32
ATOM     32  O   UNL     1     112.158 126.736 139.199  0.00  0.00    +0.000 OA
BRANCH  32  33
ATOM     33  C   UNL     1     111.903 126.872 139.972  0.00  0.00    +0.000 C 
ATOM     34  C   UNL     1     111.282 126.428 140.286  0.00  0.00    +0.000 C 
ATOM     35  O   UNL     1     112.271 127.452 140.428  0.00  0.00    +0.000 OA
ATOM     36  O   UNL     1     110.917 125.849 139.828  0.00  0.00    +0.000 OA
ATOM     37  C   UNL     1     111.030 126.565 141.059  0.00  0.00    +0.000 C 
ATOM     38  C   UNL     1     112.016 127.588 141.202  0.00  0.00    +0.000 C 
ATOM     39  O   UNL     1     110.410 126.122 141.374  0.00  0.00    +0.000 OA
ATOM     40  C   UNL     1     111.396 127.145 141.519  0.00  0.00    +0.000 C 
ATOM     41  C   UNL     1     112.384 128.169 141.659  0.00  0.00    +0.000 C 
ATOM     42  O   UNL     1     111.143 127.282 142.290  0.00  0.00    +0.000 OA
ENDBRANCH  32  33
ENDBRANCH  31  32
ENDBRANCH  25  31
ENDBRANCH  21  22
ENDBRANCH   1  21
BRANCH  12  43
ATOM     43  O   UNL     1     110.853 131.771 136.966  0.00  0.00    +0.000 OA
BRANCH  43  44
ATOM     44  C   UNL     1     110.665 131.956 137.749  0.00  0.00    +0.000 C 
BRANCH  44  45
ATOM     45  C   UNL     1     110.203 132.619 137.916  0.00  0.00    +0.000 C 
ATOM     46  O   UNL     1     110.165 132.910 138.687  0.00  0.00    +0.000 OA
ENDBRANCH  44  45
ENDBRANCH  43  44
ENDBRANCH  12  43
TORSDOF 9
ENDMDL
MODEL 8
REMARK VINA RESULT:      -9.4      1.205      4.038
REMARK  Name = monoxerutin
REMARK  9 active torsions:
REMARK  status: ('A' for Active; 'I' for Inactive)
REMARK    1  A    between atoms: O_1  and  C_2
REMARK    2  A    between atoms: O_1  and  C_3
REMARK    3  A    between atoms: C_4  and  C_9
REMARK    4  A    between atoms: C_12  and  C_19
REMARK    5  A    between atoms: C_19  and  O_27
REMARK    6  A    between atoms: O_27  and  C_32
REMARK    7  A    between atoms: C_29  and  O_33
REMARK    8  A    between atoms: O_33  and  C_37
REMARK    9  A    between atoms: C_37  and  C_41
REMARK                            x       y       z     vdW  Elec       q    Type
REMARK                         _______ _______ _______ _____ _____    ______ ____
ROOT
ATOM      1  C   UNL     1     111.971 126.657 137.089  0.00  0.00    +0.000 A 
ATOM      2  C   UNL     1     112.218 126.017 137.560  0.00  0.00    +0.000 A 
ATOM      3  C   UNL     1     111.240 127.015 137.225  0.00  0.00    +0.000 A 
ATOM      4  O   UNL     1     111.734 125.735 138.166  0.00  0.00    +0.000 OA
ATOM      5  O   UNL     1     110.995 127.649 136.758  0.00  0.00    +0.000 OA
ATOM      6  C   UNL     1     110.756 126.733 137.831  0.00  0.00    +0.000 A 
ATOM      7  C   UNL     1     111.003 126.093 138.301  0.00  0.00    +0.000 A 
ATOM      8  C   UNL     1     110.026 127.091 137.965  0.00  0.00    +0.000 A 
ATOM      9  C   UNL     1     110.520 125.812 138.906  0.00  0.00    +0.000 A 
ATOM     10  O   UNL     1     109.781 127.725 137.499  0.00  0.00    +0.000 OA
ATOM     11  C   UNL     1     109.542 126.809 138.572  0.00  0.00    +0.000 A 
ATOM     12  C   UNL     1     109.788 126.170 139.042  0.00  0.00    +0.000 A 
ENDROOT
BRANCH   2  13
ATOM     13  C   UNL     1     112.951 125.661 137.421  0.00  0.00    +0.000 A 
ATOM     14  C   UNL     1     113.572 125.778 137.951  0.00  0.00    +0.000 A 
ATOM     15  C   UNL     1     113.061 125.190 136.752  0.00  0.00    +0.000 A 
ATOM     16  C   UNL     1     114.304 125.422 137.812  0.00  0.00    +0.000 A 
ATOM     17  C   UNL     1     113.793 124.835 136.615  0.00  0.00    +0.000 A 
ATOM     18  O   UNL     1     114.926 125.538 138.342  0.00  0.00    +0.000 OA
ATOM     19  C   UNL     1     114.414 124.951 137.144  0.00  0.00    +0.000 A 
ATOM     20  O   UNL     1     115.146 124.596 137.006  0.00  0.00    +0.000 OA
ENDBRANCH   2  13
BRANCH   1  21
ATOM     21  O   UNL     1     112.459 126.935 136.484  0.00  0.00    +0.000 OA
BRANCH  21  22
ATOM     22  C   UNL     1     113.038 128.190 136.585  0.00  0.00    +0.000 C 
ATOM     23  O   UNL     1     113.105 128.556 137.320  0.00  0.00    +0.000 OA
ATOM     24  C   UNL     1     113.316 128.571 135.909  0.00  0.00    +0.000 C 
ATOM     25  C   UNL     1     113.448 129.302 137.383  0.00  0.00    +0.000 C 
ATOM     26  O   UNL     1     113.250 128.207 135.172  0.00  0.00    +0.000 OA
ATOM     27  C   UNL     1     113.661 129.320 135.968  0.00  0.00    +0.000 C 
ATOM     28  C   UNL     1     113.728 129.685 136.704  0.00  0.00    +0.000 C 
ATOM     29  O   UNL     1     113.939 129.701 135.293  0.00  0.00    +0.000 OA
ATOM     30  O   UNL     1     114.072 130.432 136.764  0.00  0.00    +0.000 OA
BRANCH  25  31
ATOM     31  C   UNL     1     113.516 129.668 138.117  0.00  0.00    +0.000 C 
BRANCH  31  32
ATOM     32  O   UNL     1     113.211 129.298 138.790  0.00  0.00    +0.000 OA
BRANCH  32  33
ATOM     33  C   UNL     1     113.323 129.640 139.533  0.00  0.00    +0.000 C 
ATOM     34  C   UNL     1     112.721 129.610 140.095  0.00  0.00    +0.000 C 
ATOM     35  O   UNL     1     114.039 130.010 139.709  0.00  0.00    +0.000 OA
ATOM     36  O   UNL     1     112.007 129.239 139.916  0.00  0.00    +0.000 OA
ATOM     37  C   UNL     1     112.836 129.952 140.837  0.00  0.00    +0.000 C 
ATOM     38  C   UNL     1     114.151 130.352 140.452  0.00  0.00    +0.000 C 
ATOM     39  O   UNL     1     112.234 129.923 141.401  0.00  0.00    +0.000 OA
ATOM     40  C   UNL     1     113.551 130.324 141.017  0.00  0.00    +0.000 C 
ATOM     41  C   UNL     1     114.867 130.723 140.629  0.00  0.00    +0.000 C 
ATOM     42  O   UNL     1     113.664 130.665 141.757  0.00  0.00    +0.000 OA
ENDBRANCH  32  33
ENDBRANCH  31  32
ENDBRANCH  25  31
ENDBRANCH  21  22
ENDBRANCH   1  21
BRANCH  12  43
ATOM     43  O   UNL     1     109.302 125.890 139.647  0.00  0.00    +0.000 OA
BRANCH  43  44
ATOM     44  C   UNL     1     109.371 126.202 140.408  0.00  0.00    +0.000 C 
BRANCH  44  45
ATOM     45  C   UNL     1     108.878 125.931 141.011  0.00  0.00    +0.000 C 
ATOM     46  O   UNL     1     108.941 126.248 141.770  0.00  0.00    +0.000 OA
ENDBRANCH  44  45
ENDBRANCH  43  44
ENDBRANCH  12  43
TORSDOF 9
ENDMDL
MODEL 9
REMARK VINA RESULT:      -9.4      2.190      5.095
REMARK  Name = monoxerutin
REMARK  9 active torsions:
REMARK  status: ('A' for Active; 'I' for Inactive)
REMARK    1  A    between atoms: O_1  and  C_2
REMARK    2  A    between atoms: O_1  and  C_3
REMARK    3  A    between atoms: C_4  and  C_9
REMARK    4  A    between atoms: C_12  and  C_19
REMARK    5  A    between atoms: C_19  and  O_27
REMARK    6  A    between atoms: O_27  and  C_32
REMARK    7  A    between atoms: C_29  and  O_33
REMARK    8  A    between atoms: O_33  and  C_37
REMARK    9  A    between atoms: C_37  and  C_41
REMARK                            x       y       z     vdW  Elec       q    Type
REMARK                         _______ _______ _______ _____ _____    ______ ____
ROOT
ATOM      1  C   UNL     1     112.043 130.029 137.934  0.00  0.00    +0.000 A 
ATOM      2  C   UNL     1     112.162 130.240 137.139  0.00  0.00    +0.000 A 
ATOM      3  C   UNL     1     111.278 129.924 138.226  0.00  0.00    +0.000 A 
ATOM      4  O   UNL     1     111.517 130.347 136.636  0.00  0.00    +0.000 OA
ATOM      5  O   UNL     1     111.159 129.714 139.015  0.00  0.00    +0.000 OA
ATOM      6  C   UNL     1     110.634 130.031 137.723  0.00  0.00    +0.000 A 
ATOM      7  C   UNL     1     110.753 130.243 136.928  0.00  0.00    +0.000 A 
ATOM      8  C   UNL     1     109.870 129.927 138.015  0.00  0.00    +0.000 A 
ATOM      9  C   UNL     1     110.109 130.350 136.425  0.00  0.00    +0.000 A 
ATOM     10  O   UNL     1     109.751 129.717 138.804  0.00  0.00    +0.000 OA
ATOM     11  C   UNL     1     109.224 130.034 137.511  0.00  0.00    +0.000 A 
ATOM     12  C   UNL     1     109.344 130.245 136.717  0.00  0.00    +0.000 A 
ENDROOT
BRANCH   2  13
ATOM     13  C   UNL     1     112.930 130.344 136.851  0.00  0.00    +0.000 A 
ATOM     14  C   UNL     1     113.262 129.778 136.350  0.00  0.00    +0.000 A 
ATOM     15  C   UNL     1     113.364 131.013 137.063  0.00  0.00    +0.000 A 
ATOM     16  C   UNL     1     114.028 129.882 136.062  0.00  0.00    +0.000 A 
ATOM     17  C   UNL     1     114.130 131.116 136.774  0.00  0.00    +0.000 A 
ATOM     18  O   UNL     1     114.360 129.316 135.562  0.00  0.00    +0.000 OA
ATOM     19  C   UNL     1     114.462 130.550 136.274  0.00  0.00    +0.000 A 
ATOM     20  O   UNL     1     115.228 130.654 135.986  0.00  0.00    +0.000 OA
ENDBRANCH   2  13
BRANCH   1  21
ATOM     21  O   UNL     1     112.692 129.922 138.434  0.00  0.00    +0.000 OA
BRANCH  21  22
ATOM     22  C   UNL     1     112.997 128.657 138.911  0.00  0.00    +0.000 C 
ATOM     23  O   UNL     1     112.747 127.989 138.499  0.00  0.00    +0.000 OA
ATOM     24  C   UNL     1     113.429 128.574 139.608  0.00  0.00    +0.000 C 
ATOM     25  C   UNL     1     112.927 127.237 138.781  0.00  0.00    +0.000 C 
ATOM     26  O   UNL     1     113.680 129.241 140.022  0.00  0.00    +0.000 OA
ATOM     27  C   UNL     1     113.612 127.820 139.894  0.00  0.00    +0.000 C 
ATOM     28  C   UNL     1     113.361 127.152 139.481  0.00  0.00    +0.000 C 
ATOM     29  O   UNL     1     114.044 127.735 140.590  0.00  0.00    +0.000 OA
ATOM     30  O   UNL     1     113.543 126.399 139.765  0.00  0.00    +0.000 OA
BRANCH  25  31
ATOM     31  C   UNL     1     112.678 126.568 138.370  0.00  0.00    +0.000 C 
BRANCH  31  32
ATOM     32  O   UNL     1     112.200 126.653 137.702  0.00  0.00    +0.000 OA
BRANCH  32  33
ATOM     33  C   UNL     1     112.002 125.989 137.252  0.00  0.00    +0.000 C 
ATOM     34  C   UNL     1     111.329 126.000 136.776  0.00  0.00    +0.000 C 
ATOM     35  O   UNL     1     112.478 125.317 137.283  0.00  0.00    +0.000 OA
ATOM     36  O   UNL     1     110.854 126.673 136.747  0.00  0.00    +0.000 OA
ATOM     37  C   UNL     1     111.133 125.336 136.328  0.00  0.00    +0.000 C 
ATOM     38  C   UNL     1     112.280 124.654 136.834  0.00  0.00    +0.000 C 
ATOM     39  O   UNL     1     110.460 125.345 135.850  0.00  0.00    +0.000 OA
ATOM     40  C   UNL     1     111.608 124.661 136.356  0.00  0.00    +0.000 C 
ATOM     41  C   UNL     1     112.757 123.980 136.864  0.00  0.00    +0.000 C 
ATOM     42  O   UNL     1     111.412 123.998 135.909  0.00  0.00    +0.000 OA
ENDBRANCH  32  33
ENDBRANCH  31  32
ENDBRANCH  25  31
ENDBRANCH  21  22
ENDBRANCH   1  21
BRANCH  12  43
ATOM     43  O   UNL     1     108.697 130.352 136.216  0.00  0.00    +0.000 OA
BRANCH  43  44
ATOM     44  C   UNL     1     108.232 131.031 136.282  0.00  0.00    +0.000 C 
BRANCH  44  45
ATOM     45  C   UNL     1     107.701 131.226 135.682  0.00  0.00    +0.000 C 
ATOM     46  O   UNL     1     106.924 131.433 135.870  0.00  0.00    +0.000 OA
ENDBRANCH  44  45
ENDBRANCH  43  44
ENDBRANCH  12  43
TORSDOF 9
ENDMDL
MODEL 10
REMARK VINA RESULT:      -9.4      1.604      6.064
REMARK  Name = monoxerutin
REMARK  9 active torsions:
REMARK  status: ('A' for Active; 'I' for Inactive)
REMARK    1  A    between atoms: O_1  and  C_2
REMARK    2  A    between atoms: O_1  and  C_3
REMARK    3  A    between atoms: C_4  and  C_9
REMARK    4  A    between atoms: C_12  and  C_19
REMARK    5  A    between atoms: C_19  and  O_27
REMARK    6  A    between atoms: O_27  and  C_32
REMARK    7  A    between atoms: C_29  and  O_33
REMARK    8  A    between atoms: O_33  and  C_37
REMARK    9  A    between atoms: C_37  and  C_41
REMARK                            x       y       z     vdW  Elec       q    Type
REMARK                         _______ _______ _______ _____ _____    ______ ____
ROOT
ATOM      1  C   UNL     1     112.930 130.736 138.092  0.00  0.00    +0.000 A 
ATOM      2  C   UNL     1     112.115 130.670 138.238  0.00  0.00    +0.000 A 
ATOM      3  C   UNL     1     113.476 130.499 138.664  0.00  0.00    +0.000 A 
ATOM      4  O   UNL     1     111.844 130.368 138.957  0.00  0.00    +0.000 OA
ATOM      5  O   UNL     1     114.285 130.564 138.518  0.00  0.00    +0.000 OA
ATOM      6  C   UNL     1     113.205 130.197 139.382  0.00  0.00    +0.000 A 
ATOM      7  C   UNL     1     112.390 130.132 139.529  0.00  0.00    +0.000 A 
ATOM      8  C   UNL     1     113.751 129.961 139.953  0.00  0.00    +0.000 A 
ATOM      9  C   UNL     1     112.119 129.830 140.247  0.00  0.00    +0.000 A 
ATOM     10  O   UNL     1     114.560 130.026 139.808  0.00  0.00    +0.000 OA
ATOM     11  C   UNL     1     113.481 129.659 140.672  0.00  0.00    +0.000 A 
ATOM     12  C   UNL     1     112.665 129.594 140.819  0.00  0.00    +0.000 A 
ENDROOT
BRANCH   2  13
ATOM     13  C   UNL     1     111.571 130.908 137.663  0.00  0.00    +0.000 A 
ATOM     14  C   UNL     1     111.148 130.342 137.237  0.00  0.00    +0.000 A 
ATOM     15  C   UNL     1     111.451 131.711 137.515  0.00  0.00    +0.000 A 
ATOM     16  C   UNL     1     110.605 130.580 136.662  0.00  0.00    +0.000 A 
ATOM     17  C   UNL     1     110.909 131.948 136.940  0.00  0.00    +0.000 A 
ATOM     18  O   UNL     1     110.182 130.014 136.236  0.00  0.00    +0.000 OA
ATOM     19  C   UNL     1     110.486 131.382 136.514  0.00  0.00    +0.000 A 
ATOM     20  O   UNL     1     109.943 131.620 135.939  0.00  0.00    +0.000 OA
ENDBRANCH   2  13
BRANCH   1  21
ATOM     21  O   UNL     1     113.196 131.039 137.371  0.00  0.00    +0.000 OA
BRANCH  21  22
ATOM     22  C   UNL     1     113.830 130.205 136.462  0.00  0.00    +0.000 C 
ATOM     23  O   UNL     1     113.723 129.389 136.506  0.00  0.00    +0.000 OA
ATOM     24  C   UNL     1     114.314 130.527 135.878  0.00  0.00    +0.000 C 
ATOM     25  C   UNL     1     114.099 128.893 135.968  0.00  0.00    +0.000 C 
ATOM     26  O   UNL     1     114.422 131.343 135.832  0.00  0.00    +0.000 OA
ATOM     27  C   UNL     1     114.693 130.031 135.335  0.00  0.00    +0.000 C 
ATOM     28  C   UNL     1     114.586 129.215 135.380  0.00  0.00    +0.000 C 
ATOM     29  O   UNL     1     115.177 130.351 134.751  0.00  0.00    +0.000 OA
ATOM     30  O   UNL     1     114.963 128.719 134.840  0.00  0.00    +0.000 OA
BRANCH  25  31
ATOM     31  C   UNL     1     113.994 128.077 136.011  0.00  0.00    +0.000 C 
BRANCH  31  32
ATOM     32  O   UNL     1     113.322 127.770 136.381  0.00  0.00    +0.000 OA
BRANCH  32  33
ATOM     33  C   UNL     1     113.243 126.954 136.476  0.00  0.00    +0.000 C 
ATOM     34  C   UNL     1     112.510 126.594 136.359  0.00  0.00    +0.000 C 
ATOM     35  O   UNL     1     113.899 126.501 136.687  0.00  0.00    +0.000 OA
ATOM     36  O   UNL     1     111.856 127.049 136.148  0.00  0.00    +0.000 OA
ATOM     37  C   UNL     1     112.434 125.779 136.455  0.00  0.00    +0.000 C 
ATOM     38  C   UNL     1     113.820 125.685 136.782  0.00  0.00    +0.000 C 
ATOM     39  O   UNL     1     111.702 125.417 136.339  0.00  0.00    +0.000 OA
ATOM     40  C   UNL     1     113.089 125.322 136.666  0.00  0.00    +0.000 C 
ATOM     41  C   UNL     1     114.477 125.231 136.993  0.00  0.00    +0.000 C 
ATOM     42  O   UNL     1     113.012 124.508 136.761  0.00  0.00    +0.000 OA
ENDBRANCH  32  33
ENDBRANCH  31  32
ENDBRANCH  25  31
ENDBRANCH  21  22
ENDBRANCH   1  21
BRANCH  12  43
ATOM     43  O   UNL     1     112.398 129.291 141.539  0.00  0.00    +0.000 OA
BRANCH  43  44
ATOM     44  C   UNL     1     112.069 128.535 141.571  0.00  0.00    +0.000 C 
BRANCH  44  45
ATOM     45  C   UNL     1     111.845 128.214 142.297  0.00  0.00    +0.000 C 
ATOM     46  O   UNL     1     111.274 127.618 142.326  0.00  0.00    +0.000 OA
ENDBRANCH  44  45
ENDBRANCH  43  44
ENDBRANCH  12  43
TORSDOF 9
ENDMDL
