MODEL 1
REMARK VINA RESULT:     -10.4      0.000      0.000
REMARK  Name = 44257192
REMARK  7 active torsions:
REMARK  status: ('A' for Active; 'I' for Inactive)
REMARK    1  A    between atoms: O_2  and  C_15
REMARK    2  A    between atoms: O_2  and  C_22
REMARK    3  A    between atoms: O_3  and  C_13
REMARK    4  A    between atoms: O_3  and  C_30
REMARK    5  A    between atoms: C_21  and  C_24
REMARK    6  A    between atoms: C_30  and  C_34
REMARK    7  A    between atoms: C_35  and  C_36
REMARK                            x       y       z     vdW  Elec       q    Type
REMARK                         _______ _______ _______ _____ _____    ______ ____
ROOT
ATOM      1  O   UNL     1     107.102 125.872 141.180  0.00  0.00    +0.000 OA
ATOM      2  O   UNL     1     107.211 127.766 142.770  0.00  0.00    +0.000 OA
ATOM      3  O   UNL     1     108.593 126.987 142.319  0.00  0.00    +0.000 OA
ATOM      4  C   UNL     1     106.447 126.894 141.936  0.00  0.00    +0.000 C 
ATOM      5  C   UNL     1     107.174 127.135 142.240  0.00  0.00    +0.000 C 
ATOM      6  C   UNL     1     106.411 126.262 141.406  0.00  0.00    +0.000 C 
ATOM      7  C   UNL     1     107.865 126.746 142.015  0.00  0.00    +0.000 C 
ATOM      8  C   UNL     1     107.829 126.115 141.485  0.00  0.00    +0.000 C 
ENDROOT
BRANCH   6   9
ATOM      9  O   UNL     1     105.683 126.020 141.101  0.00  0.00    +0.000 OA
BRANCH   9  16
ATOM     10  O   UNL     1     104.396 123.765 139.821  0.00  0.00    +0.000 OA
ATOM     11  O   UNL     1     105.745 123.449 142.347  0.00  0.00    +0.000 OA
ATOM     12  C   UNL     1     104.812 125.422 139.826  0.00  0.00    +0.000 C 
ATOM     13  C   UNL     1     104.361 125.100 139.170  0.00  0.00    +0.000 C 
ATOM     14  C   UNL     1     105.049 124.906 140.472  0.00  0.00    +0.000 A 
ATOM     15  C   UNL     1     104.151 124.266 139.168  0.00  0.00    +0.000 C 
ATOM     16  C   UNL     1     105.482 125.220 141.099  0.00  0.00    +0.000 A 
ATOM     17  C   UNL     1     104.848 124.106 140.470  0.00  0.00    +0.000 A 
ATOM     18  C   UNL     1     105.714 124.735 141.725  0.00  0.00    +0.000 A 
ATOM     19  C   UNL     1     105.080 123.620 141.094  0.00  0.00    +0.000 A 
ATOM     20  C   UNL     1     105.513 123.935 141.722  0.00  0.00    +0.000 A 
BRANCH  15  23
ATOM     21  O   UNL     1     101.636 123.641 137.965  0.00  0.00    +0.000 OA
ATOM     22  O   UNL     1     102.417 122.997 136.663  0.00  0.00    +0.000 OA
ATOM     23  C   UNL     1     103.718 123.949 138.541  0.00  0.00    +0.000 A 
ATOM     24  C   UNL     1     102.893 123.953 138.566  0.00  0.00    +0.000 A 
ATOM     25  C   UNL     1     104.109 123.626 137.890  0.00  0.00    +0.000 A 
ATOM     26  C   UNL     1     102.460 123.636 137.940  0.00  0.00    +0.000 A 
ATOM     27  C   UNL     1     103.676 123.309 137.264  0.00  0.00    +0.000 A 
ATOM     28  C   UNL     1     102.852 123.314 137.289  0.00  0.00    +0.000 A 
ENDBRANCH  15  23
ENDBRANCH   9  16
ENDBRANCH   6   9
BRANCH   4  29
ATOM     29  O   UNL     1     105.755 127.283 142.161  0.00  0.00    +0.000 OA
BRANCH  29  31
ATOM     30  O   UNL     1     105.931 128.295 141.167  0.00  0.00    +0.000 OA
ATOM     31  C   UNL     1     105.600 128.043 141.880  0.00  0.00    +0.000 C 
BRANCH  31  32
ATOM     32  C   UNL     1     105.114 128.551 142.310  0.00  0.00    +0.000 C 
ATOM     33  C   UNL     1     104.542 129.003 141.923  0.00  0.00    +0.000 C 
BRANCH  33  36
ATOM     34  O   UNL     1     102.279 130.743 142.061  0.00  0.00    +0.000 OA
ATOM     35  O   UNL     1     102.601 131.036 143.653  0.00  0.00    +0.000 OA
ATOM     36  C   UNL     1     104.057 129.512 142.355  0.00  0.00    +0.000 A 
ATOM     37  C   UNL     1     103.411 129.873 141.992  0.00  0.00    +0.000 A 
ATOM     38  C   UNL     1     104.218 129.658 143.151  0.00  0.00    +0.000 A 
ATOM     39  C   UNL     1     102.925 130.381 142.424  0.00  0.00    +0.000 A 
ATOM     40  C   UNL     1     103.733 130.166 143.583  0.00  0.00    +0.000 A 
ATOM     41  C   UNL     1     103.086 130.528 143.220  0.00  0.00    +0.000 A 
ENDBRANCH  33  36
ENDBRANCH  31  32
ENDBRANCH  29  31
ENDBRANCH   4  29
TORSDOF 7
ENDMDL
MODEL 2
REMARK VINA RESULT:     -10.3      7.561      9.945
REMARK  Name = 44257192
REMARK  7 active torsions:
REMARK  status: ('A' for Active; 'I' for Inactive)
REMARK    1  A    between atoms: O_2  and  C_15
REMARK    2  A    between atoms: O_2  and  C_22
REMARK    3  A    between atoms: O_3  and  C_13
REMARK    4  A    between atoms: O_3  and  C_30
REMARK    5  A    between atoms: C_21  and  C_24
REMARK    6  A    between atoms: C_30  and  C_34
REMARK    7  A    between atoms: C_35  and  C_36
REMARK                            x       y       z     vdW  Elec       q    Type
REMARK                         _______ _______ _______ _____ _____    ______ ____
ROOT
ATOM      1  O   UNL     1     112.879 130.264 136.147  0.00  0.00    +0.000 OA
ATOM      2  O   UNL     1     114.296 128.243 136.333  0.00  0.00    +0.000 OA
ATOM      3  O   UNL     1     114.952 129.665 135.815  0.00  0.00    +0.000 OA
ATOM      4  C   UNL     1     113.024 128.878 136.468  0.00  0.00    +0.000 C 
ATOM      5  C   UNL     1     113.824 128.916 136.271  0.00  0.00    +0.000 C 
ATOM      6  C   UNL     1     112.552 129.552 136.406  0.00  0.00    +0.000 C 
ATOM      7  C   UNL     1     114.152 129.627 136.012  0.00  0.00    +0.000 C 
ATOM      8  C   UNL     1     113.680 130.301 135.950  0.00  0.00    +0.000 C 
ENDROOT
BRANCH   6   9
ATOM      9  O   UNL     1     111.751 129.515 136.603  0.00  0.00    +0.000 OA
BRANCH   9  16
ATOM     10  O   UNL     1     109.624 131.477 136.656  0.00  0.00    +0.000 OA
ATOM     11  O   UNL     1     111.647 131.446 138.707  0.00  0.00    +0.000 OA
ATOM     12  C   UNL     1     110.384 130.141 135.911  0.00  0.00    +0.000 C 
ATOM     13  C   UNL     1     109.674 130.475 135.561  0.00  0.00    +0.000 C 
ATOM     14  C   UNL     1     110.703 130.484 136.632  0.00  0.00    +0.000 A 
ATOM     15  C   UNL     1     109.291 131.147 135.936  0.00  0.00    +0.000 C 
ATOM     16  C   UNL     1     111.384 130.160 136.963  0.00  0.00    +0.000 A 
ATOM     17  C   UNL     1     110.336 131.129 136.992  0.00  0.00    +0.000 A 
ATOM     18  C   UNL     1     111.700 130.480 137.655  0.00  0.00    +0.000 A 
ATOM     19  C   UNL     1     110.650 131.450 137.684  0.00  0.00    +0.000 A 
ATOM     20  C   UNL     1     111.333 131.125 138.015  0.00  0.00    +0.000 A 
BRANCH  15  23
ATOM     21  O   UNL     1     106.453 131.483 135.948  0.00  0.00    +0.000 OA
ATOM     22  O   UNL     1     106.561 132.453 134.619  0.00  0.00    +0.000 OA
ATOM     23  C   UNL     1     108.609 131.474 135.607  0.00  0.00    +0.000 A 
ATOM     24  C   UNL     1     107.872 131.315 135.942  0.00  0.00    +0.000 A 
ATOM     25  C   UNL     1     108.664 131.959 134.942  0.00  0.00    +0.000 A 
ATOM     26  C   UNL     1     107.190 131.642 135.613  0.00  0.00    +0.000 A 
ATOM     27  C   UNL     1     107.981 132.286 134.612  0.00  0.00    +0.000 A 
ATOM     28  C   UNL     1     107.245 132.127 134.948  0.00  0.00    +0.000 A 
ENDBRANCH  15  23
ENDBRANCH   9  16
ENDBRANCH   6   9
BRANCH   4  29
ATOM     29  O   UNL     1     112.696 128.167 136.727  0.00  0.00    +0.000 OA
BRANCH  29  31
ATOM     30  O   UNL     1     112.451 127.703 135.397  0.00  0.00    +0.000 OA
ATOM     31  C   UNL     1     112.589 127.545 136.196  0.00  0.00    +0.000 C 
BRANCH  31  32
ATOM     32  C   UNL     1     112.620 126.765 136.462  0.00  0.00    +0.000 C 
ATOM     33  C   UNL     1     112.010 126.241 136.276  0.00  0.00    +0.000 C 
BRANCH  33  36
ATOM     34  O   UNL     1     111.179 124.215 138.113  0.00  0.00    +0.000 OA
ATOM     35  O   UNL     1     112.141 123.120 137.341  0.00  0.00    +0.000 OA
ATOM     36  C   UNL     1     112.043 125.460 136.543  0.00  0.00    +0.000 A 
ATOM     37  C   UNL     1     111.595 125.228 137.195  0.00  0.00    +0.000 A 
ATOM     38  C   UNL     1     112.524 124.913 136.157  0.00  0.00    +0.000 A 
ATOM     39  C   UNL     1     111.627 124.448 137.462  0.00  0.00    +0.000 A 
ATOM     40  C   UNL     1     112.557 124.133 136.423  0.00  0.00    +0.000 A 
ATOM     41  C   UNL     1     112.108 123.900 137.075  0.00  0.00    +0.000 A 
ENDBRANCH  33  36
ENDBRANCH  31  32
ENDBRANCH  29  31
ENDBRANCH   4  29
TORSDOF 7
ENDMDL
MODEL 3
REMARK VINA RESULT:     -10.1      1.049      5.760
REMARK  Name = 44257192
REMARK  7 active torsions:
REMARK  status: ('A' for Active; 'I' for Inactive)
REMARK    1  A    between atoms: O_2  and  C_15
REMARK    2  A    between atoms: O_2  and  C_22
REMARK    3  A    between atoms: O_3  and  C_13
REMARK    4  A    between atoms: O_3  and  C_30
REMARK    5  A    between atoms: C_21  and  C_24
REMARK    6  A    between atoms: C_30  and  C_34
REMARK    7  A    between atoms: C_35  and  C_36
REMARK                            x       y       z     vdW  Elec       q    Type
REMARK                         _______ _______ _______ _____ _____    ______ ____
ROOT
ATOM      1  O   UNL     1     107.190 126.454 141.641  0.00  0.00    +0.000 OA
ATOM      2  O   UNL     1     107.323 124.200 140.628  0.00  0.00    +0.000 OA
ATOM      3  O   UNL     1     108.693 124.942 141.173  0.00  0.00    +0.000 OA
ATOM      4  C   UNL     1     106.550 125.331 141.031  0.00  0.00    +0.000 C 
ATOM      5  C   UNL     1     107.279 124.951 140.966  0.00  0.00    +0.000 C 
ATOM      6  C   UNL     1     106.505 126.083 141.368  0.00  0.00    +0.000 C 
ATOM      7  C   UNL     1     107.963 125.322 141.238  0.00  0.00    +0.000 C 
ATOM      8  C   UNL     1     107.918 126.074 141.575  0.00  0.00    +0.000 C 
ENDROOT
BRANCH   6   9
ATOM      9  O   UNL     1     105.776 126.464 141.434  0.00  0.00    +0.000 OA
BRANCH   9  16
ATOM     10  O   UNL     1     104.371 128.657 142.697  0.00  0.00    +0.000 OA
ATOM     11  O   UNL     1     106.101 126.940 144.233  0.00  0.00    +0.000 OA
ATOM     12  C   UNL     1     104.736 127.746 141.299  0.00  0.00    +0.000 C 
ATOM     13  C   UNL     1     104.199 128.413 141.241  0.00  0.00    +0.000 C 
ATOM     14  C   UNL     1     105.084 127.545 142.059  0.00  0.00    +0.000 A 
ATOM     15  C   UNL     1     104.014 128.871 141.945  0.00  0.00    +0.000 C 
ATOM     16  C   UNL     1     105.599 126.904 142.109  0.00  0.00    +0.000 A 
ATOM     17  C   UNL     1     104.907 127.985 142.735  0.00  0.00    +0.000 A 
ATOM     18  C   UNL     1     105.939 126.701 142.833  0.00  0.00    +0.000 A 
ATOM     19  C   UNL     1     105.246 127.784 143.459  0.00  0.00    +0.000 A 
ATOM     20  C   UNL     1     105.762 127.141 143.508  0.00  0.00    +0.000 A 
BRANCH  15  23
ATOM     21  O   UNL     1     102.687 131.075 143.190  0.00  0.00    +0.000 OA
ATOM     22  O   UNL     1     101.952 131.442 141.760  0.00  0.00    +0.000 OA
ATOM     23  C   UNL     1     103.499 129.514 141.899  0.00  0.00    +0.000 A 
ATOM     24  C   UNL     1     103.351 129.973 142.568  0.00  0.00    +0.000 A 
ATOM     25  C   UNL     1     103.132 129.697 141.183  0.00  0.00    +0.000 A 
ATOM     26  C   UNL     1     102.835 130.615 142.521  0.00  0.00    +0.000 A 
ATOM     27  C   UNL     1     102.616 130.339 141.136  0.00  0.00    +0.000 A 
ATOM     28  C   UNL     1     102.468 130.799 141.806  0.00  0.00    +0.000 A 
ENDBRANCH  15  23
ENDBRANCH   9  16
ENDBRANCH   6   9
BRANCH   4  29
ATOM     29  O   UNL     1     105.865 124.961 140.759  0.00  0.00    +0.000 OA
BRANCH  29  31
ATOM     30  O   UNL     1     106.263 125.217 139.410  0.00  0.00    +0.000 OA
ATOM     31  C   UNL     1     105.719 124.908 139.949  0.00  0.00    +0.000 C 
BRANCH  31  32
ATOM     32  C   UNL     1     105.029 124.546 139.676  0.00  0.00    +0.000 C 
ATOM     33  C   UNL     1     104.773 124.677 138.903  0.00  0.00    +0.000 C 
BRANCH  33  36
ATOM     34  O   UNL     1     103.447 122.950 137.051  0.00  0.00    +0.000 OA
ATOM     35  O   UNL     1     102.013 123.229 137.818  0.00  0.00    +0.000 OA
ATOM     36  C   UNL     1     104.083 124.315 138.631  0.00  0.00    +0.000 A 
ATOM     37  C   UNL     1     104.110 123.814 137.977  0.00  0.00    +0.000 A 
ATOM     38  C   UNL     1     103.366 124.454 139.014  0.00  0.00    +0.000 A 
ATOM     39  C   UNL     1     103.420 123.451 137.705  0.00  0.00    +0.000 A 
ATOM     40  C   UNL     1     102.676 124.093 138.744  0.00  0.00    +0.000 A 
ATOM     41  C   UNL     1     102.703 123.591 138.088  0.00  0.00    +0.000 A 
ENDBRANCH  33  36
ENDBRANCH  31  32
ENDBRANCH  29  31
ENDBRANCH   4  29
TORSDOF 7
ENDMDL
MODEL 4
REMARK VINA RESULT:     -10.1      3.469      5.831
REMARK  Name = 44257192
REMARK  7 active torsions:
REMARK  status: ('A' for Active; 'I' for Inactive)
REMARK    1  A    between atoms: O_2  and  C_15
REMARK    2  A    between atoms: O_2  and  C_22
REMARK    3  A    between atoms: O_3  and  C_13
REMARK    4  A    between atoms: O_3  and  C_30
REMARK    5  A    between atoms: C_21  and  C_24
REMARK    6  A    between atoms: C_30  and  C_34
REMARK    7  A    between atoms: C_35  and  C_36
REMARK                            x       y       z     vdW  Elec       q    Type
REMARK                         _______ _______ _______ _____ _____    ______ ____
ROOT
ATOM      1  O   UNL     1     107.263 126.815 143.162  0.00  0.00    +0.000 OA
ATOM      2  O   UNL     1     106.326 128.380 141.491  0.00  0.00    +0.000 OA
ATOM      3  O   UNL     1     107.841 127.762 141.283  0.00  0.00    +0.000 OA
ATOM      4  C   UNL     1     106.193 127.646 142.709  0.00  0.00    +0.000 C 
ATOM      5  C   UNL     1     106.638 127.858 142.048  0.00  0.00    +0.000 C 
ATOM      6  C   UNL     1     106.506 127.124 143.266  0.00  0.00    +0.000 C 
ATOM      7  C   UNL     1     107.395 127.549 141.944  0.00  0.00    +0.000 C 
ATOM      8  C   UNL     1     107.708 127.027 142.501  0.00  0.00    +0.000 C 
ENDROOT
BRANCH   6   9
ATOM      9  O   UNL     1     106.061 126.911 143.928  0.00  0.00    +0.000 OA
BRANCH   9  16
ATOM     10  O   UNL     1     106.196 124.810 145.914  0.00  0.00    +0.000 OA
ATOM     11  O   UNL     1     105.441 124.219 143.197  0.00  0.00    +0.000 OA
ATOM     12  C   UNL     1     106.364 126.456 145.491  0.00  0.00    +0.000 C 
ATOM     13  C   UNL     1     106.519 126.208 146.298  0.00  0.00    +0.000 C 
ATOM     14  C   UNL     1     106.127 125.872 144.906  0.00  0.00    +0.000 A 
ATOM     15  C   UNL     1     106.435 125.379 146.511  0.00  0.00    +0.000 C 
ATOM     16  C   UNL     1     105.979 126.116 144.132  0.00  0.00    +0.000 A 
ATOM     17  C   UNL     1     106.045 125.077 145.110  0.00  0.00    +0.000 A 
ATOM     18  C   UNL     1     105.751 125.566 143.562  0.00  0.00    +0.000 A 
ATOM     19  C   UNL     1     105.817 124.526 144.541  0.00  0.00    +0.000 A 
ATOM     20  C   UNL     1     105.669 124.770 143.766  0.00  0.00    +0.000 A 
BRANCH  15  23
ATOM     21  O   UNL     1     108.280 124.660 148.571  0.00  0.00    +0.000 OA
ATOM     22  O   UNL     1     107.023 124.391 149.605  0.00  0.00    +0.000 OA
ATOM     23  C   UNL     1     106.581 125.132 147.285  0.00  0.00    +0.000 A 
ATOM     24  C   UNL     1     107.357 125.019 147.541  0.00  0.00    +0.000 A 
ATOM     25  C   UNL     1     105.952 124.998 147.801  0.00  0.00    +0.000 A 
ATOM     26  C   UNL     1     107.504 124.772 148.315  0.00  0.00    +0.000 A 
ATOM     27  C   UNL     1     106.099 124.751 148.575  0.00  0.00    +0.000 A 
ATOM     28  C   UNL     1     106.875 124.638 148.831  0.00  0.00    +0.000 A 
ENDBRANCH  15  23
ENDBRANCH   9  16
ENDBRANCH   6   9
BRANCH   4  29
ATOM     29  O   UNL     1     105.436 127.955 142.814  0.00  0.00    +0.000 OA
BRANCH  29  31
ATOM     30  O   UNL     1     105.825 129.136 143.519  0.00  0.00    +0.000 OA
ATOM     31  C   UNL     1     105.337 128.759 142.970  0.00  0.00    +0.000 C 
BRANCH  31  32
ATOM     32  C   UNL     1     104.750 129.187 142.579  0.00  0.00    +0.000 C 
ATOM     33  C   UNL     1     104.088 129.453 142.992  0.00  0.00    +0.000 C 
BRANCH  33  36
ATOM     34  O   UNL     1     102.216 131.612 142.935  0.00  0.00    +0.000 OA
ATOM     35  O   UNL     1     101.744 131.163 141.419  0.00  0.00    +0.000 OA
ATOM     36  C   UNL     1     103.501 129.881 142.599  0.00  0.00    +0.000 A 
ATOM     37  C   UNL     1     103.152 130.533 142.963  0.00  0.00    +0.000 A 
ATOM     38  C   UNL     1     103.266 129.657 141.841  0.00  0.00    +0.000 A 
ATOM     39  C   UNL     1     102.565 130.961 142.571  0.00  0.00    +0.000 A 
ATOM     40  C   UNL     1     102.680 130.084 141.447  0.00  0.00    +0.000 A 
ATOM     41  C   UNL     1     102.330 130.736 141.813  0.00  0.00    +0.000 A 
ENDBRANCH  33  36
ENDBRANCH  31  32
ENDBRANCH  29  31
ENDBRANCH   4  29
TORSDOF 7
ENDMDL
MODEL 5
REMARK VINA RESULT:     -10.0      5.963      8.166
REMARK  Name = 44257192
REMARK  7 active torsions:
REMARK  status: ('A' for Active; 'I' for Inactive)
REMARK    1  A    between atoms: O_2  and  C_15
REMARK    2  A    between atoms: O_2  and  C_22
REMARK    3  A    between atoms: O_3  and  C_13
REMARK    4  A    between atoms: O_3  and  C_30
REMARK    5  A    between atoms: C_21  and  C_24
REMARK    6  A    between atoms: C_30  and  C_34
REMARK    7  A    between atoms: C_35  and  C_36
REMARK                            x       y       z     vdW  Elec       q    Type
REMARK                         _______ _______ _______ _____ _____    ______ ____
ROOT
ATOM      1  O   UNL     1     114.496 129.600 140.233  0.00  0.00    +0.000 OA
ATOM      2  O   UNL     1     113.463 131.283 141.725  0.00  0.00    +0.000 OA
ATOM      3  O   UNL     1     115.029 131.464 141.236  0.00  0.00    +0.000 OA
ATOM      4  C   UNL     1     113.369 130.071 140.975  0.00  0.00    +0.000 C 
ATOM      5  C   UNL     1     113.807 130.722 141.227  0.00  0.00    +0.000 C 
ATOM      6  C   UNL     1     113.713 129.510 140.478  0.00  0.00    +0.000 C 
ATOM      7  C   UNL     1     114.589 130.813 140.983  0.00  0.00    +0.000 C 
ATOM      8  C   UNL     1     114.934 130.252 140.486  0.00  0.00    +0.000 C 
ENDROOT
BRANCH   6   9
ATOM      9  O   UNL     1     113.275 128.858 140.224  0.00  0.00    +0.000 OA
BRANCH   9  16
ATOM     10  O   UNL     1     113.557 126.237 139.029  0.00  0.00    +0.000 OA
ATOM     11  O   UNL     1     115.034 126.938 141.401  0.00  0.00    +0.000 OA
ATOM     12  C   UNL     1     112.853 127.793 139.029  0.00  0.00    +0.000 C 
ATOM     13  C   UNL     1     112.642 127.232 138.414  0.00  0.00    +0.000 C 
ATOM     14  C   UNL     1     113.416 127.564 139.637  0.00  0.00    +0.000 A 
ATOM     15  C   UNL     1     112.996 126.448 138.414  0.00  0.00    +0.000 C 
ATOM     16  C   UNL     1     113.615 128.106 140.224  0.00  0.00    +0.000 A 
ATOM     17  C   UNL     1     113.756 126.812 139.637  0.00  0.00    +0.000 A 
ATOM     18  C   UNL     1     114.155 127.899 140.813  0.00  0.00    +0.000 A 
ATOM     19  C   UNL     1     114.296 126.603 140.225  0.00  0.00    +0.000 A 
ATOM     20  C   UNL     1     114.495 127.147 140.813  0.00  0.00    +0.000 A 
BRANCH  15  23
ATOM     21  O   UNL     1     111.370 124.289 137.487  0.00  0.00    +0.000 OA
ATOM     22  O   UNL     1     112.207 124.267 136.066  0.00  0.00    +0.000 OA
ATOM     23  C   UNL     1     112.799 125.903 137.827  0.00  0.00    +0.000 A 
ATOM     24  C   UNL     1     112.183 125.369 137.951  0.00  0.00    +0.000 A 
ATOM     25  C   UNL     1     113.218 125.893 137.116  0.00  0.00    +0.000 A 
ATOM     26  C   UNL     1     111.986 124.824 137.363  0.00  0.00    +0.000 A 
ATOM     27  C   UNL     1     113.021 125.348 136.529  0.00  0.00    +0.000 A 
ATOM     28  C   UNL     1     112.405 124.813 136.653  0.00  0.00    +0.000 A 
ENDBRANCH  15  23
ENDBRANCH   9  16
ENDBRANCH   6   9
BRANCH   4  29
ATOM     29  O   UNL     1     112.586 129.980 141.219  0.00  0.00    +0.000 OA
BRANCH  29  31
ATOM     30  O   UNL     1     112.167 131.001 140.310  0.00  0.00    +0.000 OA
ATOM     31  C   UNL     1     111.983 130.384 140.828  0.00  0.00    +0.000 C 
BRANCH  31  32
ATOM     32  C   UNL     1     111.195 130.173 140.953  0.00  0.00    +0.000 C 
ATOM     33  C   UNL     1     110.601 130.500 140.483  0.00  0.00    +0.000 C 
BRANCH  33  36
ATOM     34  O   UNL     1     107.961 131.177 141.346  0.00  0.00    +0.000 OA
ATOM     35  O   UNL     1     107.452 129.650 140.987  0.00  0.00    +0.000 OA
ATOM     36  C   UNL     1     109.813 130.288 140.610  0.00  0.00    +0.000 A 
ATOM     37  C   UNL     1     109.281 130.839 140.915  0.00  0.00    +0.000 A 
ATOM     38  C   UNL     1     109.558 129.524 140.430  0.00  0.00    +0.000 A 
ATOM     39  C   UNL     1     108.494 130.627 141.041  0.00  0.00    +0.000 A 
ATOM     40  C   UNL     1     108.772 129.311 140.556  0.00  0.00    +0.000 A 
ATOM     41  C   UNL     1     108.239 129.863 140.861  0.00  0.00    +0.000 A 
ENDBRANCH  33  36
ENDBRANCH  31  32
ENDBRANCH  29  31
ENDBRANCH   4  29
TORSDOF 7
ENDMDL
MODEL 6
REMARK VINA RESULT:      -9.9      4.041      6.327
REMARK  Name = 44257192
REMARK  7 active torsions:
REMARK  status: ('A' for Active; 'I' for Inactive)
REMARK    1  A    between atoms: O_2  and  C_15
REMARK    2  A    between atoms: O_2  and  C_22
REMARK    3  A    between atoms: O_3  and  C_13
REMARK    4  A    between atoms: O_3  and  C_30
REMARK    5  A    between atoms: C_21  and  C_24
REMARK    6  A    between atoms: C_30  and  C_34
REMARK    7  A    between atoms: C_35  and  C_36
REMARK                            x       y       z     vdW  Elec       q    Type
REMARK                         _______ _______ _______ _____ _____    ______ ____
ROOT
ATOM      1  O   UNL     1     107.530 127.588 143.233  0.00  0.00    +0.000 OA
ATOM      2  O   UNL     1     106.494 128.924 141.426  0.00  0.00    +0.000 OA
ATOM      3  O   UNL     1     107.906 128.116 141.149  0.00  0.00    +0.000 OA
ATOM      4  C   UNL     1     106.479 128.438 142.768  0.00  0.00    +0.000 C 
ATOM      5  C   UNL     1     106.839 128.479 142.028  0.00  0.00    +0.000 C 
ATOM      6  C   UNL     1     106.825 127.992 143.371  0.00  0.00    +0.000 C 
ATOM      7  C   UNL     1     107.545 128.075 141.889  0.00  0.00    +0.000 C 
ATOM      8  C   UNL     1     107.890 127.630 142.492  0.00  0.00    +0.000 C 
ENDROOT
BRANCH   6   9
ATOM      9  O   UNL     1     106.464 127.951 144.112  0.00  0.00    +0.000 OA
BRANCH   9  16
ATOM     10  O   UNL     1     107.336 127.153 146.755  0.00  0.00    +0.000 OA
ATOM     11  O   UNL     1     108.241 129.629 145.593  0.00  0.00    +0.000 OA
ATOM     12  C   UNL     1     106.425 126.844 145.343  0.00  0.00    +0.000 C 
ATOM     13  C   UNL     1     106.412 126.277 145.989  0.00  0.00    +0.000 C 
ATOM     14  C   UNL     1     106.896 127.560 145.416  0.00  0.00    +0.000 A 
ATOM     15  C   UNL     1     106.871 126.433 146.699  0.00  0.00    +0.000 C 
ATOM     16  C   UNL     1     106.904 128.100 144.794  0.00  0.00    +0.000 A 
ATOM     17  C   UNL     1     107.336 127.709 146.098  0.00  0.00    +0.000 A 
ATOM     18  C   UNL     1     107.352 128.790 144.852  0.00  0.00    +0.000 A 
ATOM     19  C   UNL     1     107.784 128.398 146.158  0.00  0.00    +0.000 A 
ATOM     20  C   UNL     1     107.792 128.940 145.534  0.00  0.00    +0.000 A 
BRANCH  15  23
ATOM     21  O   UNL     1     108.257 124.615 148.414  0.00  0.00    +0.000 OA
ATOM     22  O   UNL     1     106.846 124.276 149.197  0.00  0.00    +0.000 OA
ATOM     23  C   UNL     1     106.864 125.894 147.324  0.00  0.00    +0.000 A 
ATOM     24  C   UNL     1     107.564 125.524 147.557  0.00  0.00    +0.000 A 
ATOM     25  C   UNL     1     106.158 125.724 147.715  0.00  0.00    +0.000 A 
ATOM     26  C   UNL     1     107.558 124.985 148.181  0.00  0.00    +0.000 A 
ATOM     27  C   UNL     1     106.151 125.185 148.340  0.00  0.00    +0.000 A 
ATOM     28  C   UNL     1     106.851 124.815 148.573  0.00  0.00    +0.000 A 
ENDBRANCH  15  23
ENDBRANCH   9  16
ENDBRANCH   6   9
BRANCH   4  29
ATOM     29  O   UNL     1     105.773 128.841 142.907  0.00  0.00    +0.000 OA
BRANCH  29  31
ATOM     30  O   UNL     1     104.907 127.809 142.430  0.00  0.00    +0.000 OA
ATOM     31  C   UNL     1     105.083 128.611 142.519  0.00  0.00    +0.000 C 
BRANCH  31  32
ATOM     32  C   UNL     1     104.568 129.181 142.218  0.00  0.00    +0.000 C 
ATOM     33  C   UNL     1     103.788 129.214 142.484  0.00  0.00    +0.000 C 
BRANCH  33  36
ATOM     34  O   UNL     1     102.259 131.603 142.835  0.00  0.00    +0.000 OA
ATOM     35  O   UNL     1     101.732 131.495 141.276  0.00  0.00    +0.000 OA
ATOM     36  C   UNL     1     103.274 129.785 142.183  0.00  0.00    +0.000 A 
ATOM     37  C   UNL     1     103.024 130.409 142.660  0.00  0.00    +0.000 A 
ATOM     38  C   UNL     1     103.010 129.731 141.403  0.00  0.00    +0.000 A 
ATOM     39  C   UNL     1     102.509 130.979 142.358  0.00  0.00    +0.000 A 
ATOM     40  C   UNL     1     102.496 130.301 141.100  0.00  0.00    +0.000 A 
ATOM     41  C   UNL     1     102.246 130.925 141.578  0.00  0.00    +0.000 A 
ENDBRANCH  33  36
ENDBRANCH  31  32
ENDBRANCH  29  31
ENDBRANCH   4  29
TORSDOF 7
ENDMDL
MODEL 7
REMARK VINA RESULT:      -9.9      7.222      8.465
REMARK  Name = 44257192
REMARK  7 active torsions:
REMARK  status: ('A' for Active; 'I' for Inactive)
REMARK    1  A    between atoms: O_2  and  C_15
REMARK    2  A    between atoms: O_2  and  C_22
REMARK    3  A    between atoms: O_3  and  C_13
REMARK    4  A    between atoms: O_3  and  C_30
REMARK    5  A    between atoms: C_21  and  C_24
REMARK    6  A    between atoms: C_30  and  C_34
REMARK    7  A    between atoms: C_35  and  C_36
REMARK                            x       y       z     vdW  Elec       q    Type
REMARK                         _______ _______ _______ _____ _____    ______ ____
ROOT
ATOM      1  O   UNL     1     114.302 129.763 139.999  0.00  0.00    +0.000 OA
ATOM      2  O   UNL     1     114.137 131.387 141.859  0.00  0.00    +0.000 OA
ATOM      3  O   UNL     1     115.248 131.615 140.661  0.00  0.00    +0.000 OA
ATOM      4  C   UNL     1     113.692 130.190 141.218  0.00  0.00    +0.000 C 
ATOM      5  C   UNL     1     114.192 130.845 141.239  0.00  0.00    +0.000 C 
ATOM      6  C   UNL     1     113.747 129.649 140.598  0.00  0.00    +0.000 C 
ATOM      7  C   UNL     1     114.747 130.960 140.641  0.00  0.00    +0.000 C 
ATOM      8  C   UNL     1     114.802 130.419 140.020  0.00  0.00    +0.000 C 
ENDROOT
BRANCH   6   9
ATOM      9  O   UNL     1     113.246 128.993 140.577  0.00  0.00    +0.000 OA
BRANCH   9  16
ATOM     10  O   UNL     1     113.152 126.469 139.164  0.00  0.00    +0.000 OA
ATOM     11  O   UNL     1     115.196 126.978 141.130  0.00  0.00    +0.000 OA
ATOM     12  C   UNL     1     112.510 128.025 139.454  0.00  0.00    +0.000 C 
ATOM     13  C   UNL     1     112.137 127.513 138.873  0.00  0.00    +0.000 C 
ATOM     14  C   UNL     1     113.202 127.747 139.881  0.00  0.00    +0.000 A 
ATOM     15  C   UNL     1     112.460 126.730 138.727  0.00  0.00    +0.000 C 
ATOM     16  C   UNL     1     113.557 128.242 140.437  0.00  0.00    +0.000 A 
ATOM     17  C   UNL     1     113.513 126.995 139.741  0.00  0.00    +0.000 A 
ATOM     18  C   UNL     1     114.221 127.986 140.854  0.00  0.00    +0.000 A 
ATOM     19  C   UNL     1     114.177 126.739 140.157  0.00  0.00    +0.000 A 
ATOM     20  C   UNL     1     114.532 127.235 140.714  0.00  0.00    +0.000 A 
BRANCH  15  23
ATOM     21  O   UNL     1     112.235 125.791 136.038  0.00  0.00    +0.000 OA
ATOM     22  O   UNL     1     111.051 124.740 136.503  0.00  0.00    +0.000 OA
ATOM     23  C   UNL     1     112.108 126.233 138.171  0.00  0.00    +0.000 A 
ATOM     24  C   UNL     1     112.347 126.260 137.382  0.00  0.00    +0.000 A 
ATOM     25  C   UNL     1     111.516 125.707 138.404  0.00  0.00    +0.000 A 
ATOM     26  C   UNL     1     111.995 125.763 136.826  0.00  0.00    +0.000 A 
ATOM     27  C   UNL     1     111.164 125.210 137.849  0.00  0.00    +0.000 A 
ATOM     28  C   UNL     1     111.403 125.238 137.060  0.00  0.00    +0.000 A 
ENDBRANCH  15  23
ENDBRANCH   9  16
ENDBRANCH   6   9
BRANCH   4  29
ATOM     29  O   UNL     1     113.136 130.076 141.818  0.00  0.00    +0.000 OA
BRANCH  29  31
ATOM     30  O   UNL     1     112.101 130.869 141.233  0.00  0.00    +0.000 OA
ATOM     31  C   UNL     1     112.506 130.601 141.901  0.00  0.00    +0.000 C 
BRANCH  31  32
ATOM     32  C   UNL     1     112.280 130.859 142.651  0.00  0.00    +0.000 C 
ATOM     33  C   UNL     1     111.527 130.684 142.939  0.00  0.00    +0.000 C 
BRANCH  33  36
ATOM     34  O   UNL     1     110.298 132.644 144.617  0.00  0.00    +0.000 OA
ATOM     35  O   UNL     1     110.629 131.717 145.942  0.00  0.00    +0.000 OA
ATOM     36  C   UNL     1     111.302 130.943 143.689  0.00  0.00    +0.000 A 
ATOM     37  C   UNL     1     110.912 131.664 143.778  0.00  0.00    +0.000 A 
ATOM     38  C   UNL     1     111.468 130.479 144.352  0.00  0.00    +0.000 A 
ATOM     39  C   UNL     1     110.688 131.923 144.529  0.00  0.00    +0.000 A 
ATOM     40  C   UNL     1     111.243 130.737 145.102  0.00  0.00    +0.000 A 
ATOM     41  C   UNL     1     110.853 131.459 145.191  0.00  0.00    +0.000 A 
ENDBRANCH  33  36
ENDBRANCH  31  32
ENDBRANCH  29  31
ENDBRANCH   4  29
TORSDOF 7
ENDMDL
MODEL 8
REMARK VINA RESULT:      -9.8      2.156      4.489
REMARK  Name = 44257192
REMARK  7 active torsions:
REMARK  status: ('A' for Active; 'I' for Inactive)
REMARK    1  A    between atoms: O_2  and  C_15
REMARK    2  A    between atoms: O_2  and  C_22
REMARK    3  A    between atoms: O_3  and  C_13
REMARK    4  A    between atoms: O_3  and  C_30
REMARK    5  A    between atoms: C_21  and  C_24
REMARK    6  A    between atoms: C_30  and  C_34
REMARK    7  A    between atoms: C_35  and  C_36
REMARK                            x       y       z     vdW  Elec       q    Type
REMARK                         _______ _______ _______ _____ _____    ______ ____
ROOT
ATOM      1  O   UNL     1     105.608 126.105 142.168  0.00  0.00    +0.000 OA
ATOM      2  O   UNL     1     107.841 126.881 142.903  0.00  0.00    +0.000 OA
ATOM      3  O   UNL     1     106.487 127.399 143.691  0.00  0.00    +0.000 OA
ATOM      4  C   UNL     1     107.029 126.105 142.020  0.00  0.00    +0.000 C 
ATOM      5  C   UNL     1     107.096 126.622 142.658  0.00  0.00    +0.000 C 
ATOM      6  C   UNL     1     106.285 125.846 141.775  0.00  0.00    +0.000 C 
ATOM      7  C   UNL     1     106.420 126.881 143.052  0.00  0.00    +0.000 C 
ATOM      8  C   UNL     1     105.676 126.623 142.807  0.00  0.00    +0.000 C 
ENDROOT
BRANCH   6   9
ATOM      9  O   UNL     1     106.218 125.328 141.136  0.00  0.00    +0.000 OA
BRANCH   9  16
ATOM     10  O   UNL     1     104.264 123.574 139.917  0.00  0.00    +0.000 OA
ATOM     11  O   UNL     1     105.134 123.146 142.630  0.00  0.00    +0.000 OA
ATOM     12  C   UNL     1     105.304 124.926 139.815  0.00  0.00    +0.000 C 
ATOM     13  C   UNL     1     104.824 124.707 139.136  0.00  0.00    +0.000 C 
ATOM     14  C   UNL     1     105.254 124.461 140.537  0.00  0.00    +0.000 A 
ATOM     15  C   UNL     1     104.301 124.026 139.188  0.00  0.00    +0.000 C 
ATOM     16  C   UNL     1     105.716 124.675 141.185  0.00  0.00    +0.000 A 
ATOM     17  C   UNL     1     104.752 123.808 140.586  0.00  0.00    +0.000 A 
ATOM     18  C   UNL     1     105.676 124.237 141.883  0.00  0.00    +0.000 A 
ATOM     19  C   UNL     1     104.712 123.370 141.283  0.00  0.00    +0.000 A 
ATOM     20  C   UNL     1     105.174 123.585 141.932  0.00  0.00    +0.000 A 
BRANCH  15  23
ATOM     21  O   UNL     1     101.736 123.785 137.951  0.00  0.00    +0.000 OA
ATOM     22  O   UNL     1     102.446 123.159 136.599  0.00  0.00    +0.000 OA
ATOM     23  C   UNL     1     103.838 123.810 138.540  0.00  0.00    +0.000 A 
ATOM     24  C   UNL     1     103.019 123.906 138.569  0.00  0.00    +0.000 A 
ATOM     25  C   UNL     1     104.193 123.497 137.865  0.00  0.00    +0.000 A 
ATOM     26  C   UNL     1     102.555 123.689 137.922  0.00  0.00    +0.000 A 
ATOM     27  C   UNL     1     103.729 123.280 137.218  0.00  0.00    +0.000 A 
ATOM     28  C   UNL     1     102.910 123.376 137.246  0.00  0.00    +0.000 A 
ENDBRANCH  15  23
ENDBRANCH   9  16
ENDBRANCH   6   9
BRANCH   4  29
ATOM     29  O   UNL     1     107.706 125.845 141.625  0.00  0.00    +0.000 OA
BRANCH  29  31
ATOM     30  O   UNL     1     107.779 127.093 140.931  0.00  0.00    +0.000 OA
ATOM     31  C   UNL     1     108.088 126.344 141.091  0.00  0.00    +0.000 C 
BRANCH  31  32
ATOM     32  C   UNL     1     108.780 126.096 140.716  0.00  0.00    +0.000 C 
ATOM     33  C   UNL     1     109.182 126.607 140.209  0.00  0.00    +0.000 C 
BRANCH  33  36
ATOM     34  O   UNL     1     112.023 126.303 140.204  0.00  0.00    +0.000 OA
ATOM     35  O   UNL     1     111.946 125.608 138.710  0.00  0.00    +0.000 OA
ATOM     36  C   UNL     1     109.873 126.358 139.835  0.00  0.00    +0.000 A 
ATOM     37  C   UNL     1     110.603 126.455 140.207  0.00  0.00    +0.000 A 
ATOM     38  C   UNL     1     109.835 126.010 139.088  0.00  0.00    +0.000 A 
ATOM     39  C   UNL     1     111.294 126.206 139.832  0.00  0.00    +0.000 A 
ATOM     40  C   UNL     1     110.526 125.760 138.712  0.00  0.00    +0.000 A 
ATOM     41  C   UNL     1     111.256 125.858 139.085  0.00  0.00    +0.000 A 
ENDBRANCH  33  36
ENDBRANCH  31  32
ENDBRANCH  29  31
ENDBRANCH   4  29
TORSDOF 7
ENDMDL
MODEL 9
REMARK VINA RESULT:      -9.8      6.211      9.947
REMARK  Name = 44257192
REMARK  7 active torsions:
REMARK  status: ('A' for Active; 'I' for Inactive)
REMARK    1  A    between atoms: O_2  and  C_15
REMARK    2  A    between atoms: O_2  and  C_22
REMARK    3  A    between atoms: O_3  and  C_13
REMARK    4  A    between atoms: O_3  and  C_30
REMARK    5  A    between atoms: C_21  and  C_24
REMARK    6  A    between atoms: C_30  and  C_34
REMARK    7  A    between atoms: C_35  and  C_36
REMARK                            x       y       z     vdW  Elec       q    Type
REMARK                         _______ _______ _______ _____ _____    ______ ____
ROOT
ATOM      1  O   UNL     1     109.631 129.149 137.040  0.00  0.00    +0.000 OA
ATOM      2  O   UNL     1     108.503 127.445 135.644  0.00  0.00    +0.000 OA
ATOM      3  O   UNL     1     108.108 129.039 135.480  0.00  0.00    +0.000 OA
ATOM      4  C   UNL     1     109.452 127.784 136.656  0.00  0.00    +0.000 C 
ATOM      5  C   UNL     1     108.879 128.013 136.109  0.00  0.00    +0.000 C 
ATOM      6  C   UNL     1     109.828 128.352 137.122  0.00  0.00    +0.000 C 
ATOM      7  C   UNL     1     108.682 128.809 136.028  0.00  0.00    +0.000 C 
ATOM      8  C   UNL     1     109.058 129.377 136.493  0.00  0.00    +0.000 C 
ENDROOT
BRANCH   6   9
ATOM      9  O   UNL     1     110.402 128.123 137.670  0.00  0.00    +0.000 OA
BRANCH   9  16
ATOM     10  O   UNL     1     111.863 129.302 139.873  0.00  0.00    +0.000 OA
ATOM     11  O   UNL     1     109.005 128.963 140.017  0.00  0.00    +0.000 OA
ATOM     12  C   UNL     1     111.849 128.610 138.311  0.00  0.00    +0.000 C 
ATOM     13  C   UNL     1     112.593 128.867 138.655  0.00  0.00    +0.000 C 
ATOM     14  C   UNL     1     111.120 128.705 138.758  0.00  0.00    +0.000 A 
ATOM     15  C   UNL     1     112.600 129.215 139.441  0.00  0.00    +0.000 C 
ATOM     16  C   UNL     1     110.409 128.457 138.424  0.00  0.00    +0.000 A 
ATOM     17  C   UNL     1     111.127 129.039 139.513  0.00  0.00    +0.000 A 
ATOM     18  C   UNL     1     109.703 128.543 138.843  0.00  0.00    +0.000 A 
ATOM     19  C   UNL     1     110.423 129.125 139.933  0.00  0.00    +0.000 A 
ATOM     20  C   UNL     1     109.710 128.877 139.597  0.00  0.00    +0.000 A 
BRANCH  15  23
ATOM     21  O   UNL     1     114.633 131.200 139.746  0.00  0.00    +0.000 OA
ATOM     22  O   UNL     1     115.443 130.211 140.789  0.00  0.00    +0.000 OA
ATOM     23  C   UNL     1     113.311 129.464 139.778  0.00  0.00    +0.000 A 
ATOM     24  C   UNL     1     113.617 130.207 139.594  0.00  0.00    +0.000 A 
ATOM     25  C   UNL     1     113.716 128.969 140.300  0.00  0.00    +0.000 A 
ATOM     26  C   UNL     1     114.327 130.456 139.931  0.00  0.00    +0.000 A 
ATOM     27  C   UNL     1     114.426 129.218 140.637  0.00  0.00    +0.000 A 
ATOM     28  C   UNL     1     114.732 129.962 140.452  0.00  0.00    +0.000 A 
ENDBRANCH  15  23
ENDBRANCH   9  16
ENDBRANCH   6   9
BRANCH   4  29
ATOM     29  O   UNL     1     109.650 126.987 136.739  0.00  0.00    +0.000 OA
BRANCH  29  31
ATOM     30  O   UNL     1     110.060 126.752 135.390  0.00  0.00    +0.000 OA
ATOM     31  C   UNL     1     110.164 126.633 136.200  0.00  0.00    +0.000 C 
BRANCH  31  32
ATOM     32  C   UNL     1     110.784 126.160 136.470  0.00  0.00    +0.000 C 
ATOM     33  C   UNL     1     111.066 125.542 136.002  0.00  0.00    +0.000 C 
BRANCH  33  36
ATOM     34  O   UNL     1     112.001 123.072 137.095  0.00  0.00    +0.000 OA
ATOM     35  O   UNL     1     113.545 123.653 137.088  0.00  0.00    +0.000 OA
ATOM     36  C   UNL     1     111.686 125.069 136.274  0.00  0.00    +0.000 A 
ATOM     37  C   UNL     1     111.534 124.307 136.548  0.00  0.00    +0.000 A 
ATOM     38  C   UNL     1     112.458 125.360 136.271  0.00  0.00    +0.000 A 
ATOM     39  C   UNL     1     112.153 123.834 136.820  0.00  0.00    +0.000 A 
ATOM     40  C   UNL     1     113.078 124.888 136.542  0.00  0.00    +0.000 A 
ATOM     41  C   UNL     1     112.925 124.125 136.817  0.00  0.00    +0.000 A 
ENDBRANCH  33  36
ENDBRANCH  31  32
ENDBRANCH  29  31
ENDBRANCH   4  29
TORSDOF 7
ENDMDL
MODEL 10
REMARK VINA RESULT:      -9.8      3.468      5.144
REMARK  Name = 44257192
REMARK  7 active torsions:
REMARK  status: ('A' for Active; 'I' for Inactive)
REMARK    1  A    between atoms: O_2  and  C_15
REMARK    2  A    between atoms: O_2  and  C_22
REMARK    3  A    between atoms: O_3  and  C_13
REMARK    4  A    between atoms: O_3  and  C_30
REMARK    5  A    between atoms: C_21  and  C_24
REMARK    6  A    between atoms: C_30  and  C_34
REMARK    7  A    between atoms: C_35  and  C_36
REMARK                            x       y       z     vdW  Elec       q    Type
REMARK                         _______ _______ _______ _____ _____    ______ ____
ROOT
ATOM      1  O   UNL     1     106.318 128.242 143.581  0.00  0.00    +0.000 OA
ATOM      2  O   UNL     1     106.859 128.518 145.980  0.00  0.00    +0.000 OA
ATOM      3  O   UNL     1     106.333 129.810 145.100  0.00  0.00    +0.000 OA
ATOM      4  C   UNL     1     106.761 127.688 144.822  0.00  0.00    +0.000 C 
ATOM      5  C   UNL     1     106.679 128.426 145.181  0.00  0.00    +0.000 C 
ATOM      6  C   UNL     1     106.581 127.596 144.022  0.00  0.00    +0.000 C 
ATOM      7  C   UNL     1     106.416 129.071 144.741  0.00  0.00    +0.000 C 
ATOM      8  C   UNL     1     106.235 128.979 143.941  0.00  0.00    +0.000 C 
ENDROOT
BRANCH   6   9
ATOM      9  O   UNL     1     106.664 126.858 143.662  0.00  0.00    +0.000 OA
BRANCH   9  16
ATOM     10  O   UNL     1     106.826 125.668 141.028  0.00  0.00    +0.000 OA
ATOM     11  O   UNL     1     108.737 127.655 141.865  0.00  0.00    +0.000 OA
ATOM     12  C   UNL     1     106.054 125.797 142.546  0.00  0.00    +0.000 C 
ATOM     13  C   UNL     1     105.746 125.251 141.959  0.00  0.00    +0.000 C 
ATOM     14  C   UNL     1     106.746 126.272 142.362  0.00  0.00    +0.000 A 
ATOM     15  C   UNL     1     106.135 125.186 141.195  0.00  0.00    +0.000 C 
ATOM     16  C   UNL     1     107.037 126.795 142.929  0.00  0.00    +0.000 A 
ATOM     17  C   UNL     1     107.119 126.210 141.629  0.00  0.00    +0.000 A 
ATOM     18  C   UNL     1     107.701 127.257 142.764  0.00  0.00    +0.000 A 
ATOM     19  C   UNL     1     107.783 126.671 141.463  0.00  0.00    +0.000 A 
ATOM     20  C   UNL     1     108.074 127.195 142.031  0.00  0.00    +0.000 A 
BRANCH  15  23
ATOM     21  O   UNL     1     104.627 124.705 138.816  0.00  0.00    +0.000 OA
ATOM     22  O   UNL     1     104.980 123.096 138.916  0.00  0.00    +0.000 OA
ATOM     23  C   UNL     1     105.846 124.663 140.625  0.00  0.00    +0.000 A 
ATOM     24  C   UNL     1     105.381 124.945 140.005  0.00  0.00    +0.000 A 
ATOM     25  C   UNL     1     106.023 123.859 140.676  0.00  0.00    +0.000 A 
ATOM     26  C   UNL     1     105.092 124.423 139.436  0.00  0.00    +0.000 A 
ATOM     27  C   UNL     1     105.735 123.337 140.107  0.00  0.00    +0.000 A 
ATOM     28  C   UNL     1     105.269 123.618 139.487  0.00  0.00    +0.000 A 
ENDBRANCH  15  23
ENDBRANCH   9  16
ENDBRANCH   6   9
BRANCH   4  29
ATOM     29  O   UNL     1     107.025 127.042 145.262  0.00  0.00    +0.000 OA
BRANCH  29  31
ATOM     30  O   UNL     1     105.714 126.689 145.710  0.00  0.00    +0.000 OA
ATOM     31  C   UNL     1     106.531 126.700 145.828  0.00  0.00    +0.000 C 
BRANCH  31  32
ATOM     32  C   UNL     1     106.854 126.369 146.511  0.00  0.00    +0.000 C 
ATOM     33  C   UNL     1     106.633 125.609 146.746  0.00  0.00    +0.000 C 
BRANCH  33  36
ATOM     34  O   UNL     1     106.291 124.328 149.277  0.00  0.00    +0.000 OA
ATOM     35  O   UNL     1     107.928 124.291 149.480  0.00  0.00    +0.000 OA
ATOM     36  C   UNL     1     106.957 125.280 147.430  0.00  0.00    +0.000 A 
ATOM     37  C   UNL     1     106.462 124.969 148.011  0.00  0.00    +0.000 A 
ATOM     38  C   UNL     1     107.775 125.261 147.531  0.00  0.00    +0.000 A 
ATOM     39  C   UNL     1     106.785 124.639 148.695  0.00  0.00    +0.000 A 
ATOM     40  C   UNL     1     108.099 124.932 148.214  0.00  0.00    +0.000 A 
ATOM     41  C   UNL     1     107.604 124.621 148.797  0.00  0.00    +0.000 A 
ENDBRANCH  33  36
ENDBRANCH  31  32
ENDBRANCH  29  31
ENDBRANCH   4  29
TORSDOF 7
ENDMDL
