MODEL 1
REMARK VINA RESULT:      -9.7      0.000      0.000
REMARK  Name = 25203835
REMARK  4 active torsions:
REMARK  status: ('A' for Active; 'I' for Inactive)
REMARK    1  A    between atoms: O_2  and  C_16
REMARK    2  A    between atoms: O_2  and  C_18
REMARK    3  A    between atoms: C_15  and  C_17
REMARK    4  A    between atoms: C_25  and  C_27
REMARK                            x       y       z     vdW  Elec       q    Type
REMARK                         _______ _______ _______ _____ _____    ______ ____
ROOT
ATOM      1  O   UNL     1     112.094 126.674 136.258  0.00  0.00    +0.000 OA
ATOM      2  O   UNL     1     109.622 125.991 134.929  0.00  0.00    +0.000 OA
ATOM      3  O   UNL     1     111.873 124.503 136.227  0.00  0.00    +0.000 OA
ATOM      4  O   UNL     1     110.494 124.967 135.450  0.00  0.00    +0.000 OA
ATOM      5  C   UNL     1     110.536 127.993 135.347  0.00  0.00    +0.000 A 
ATOM      6  C   UNL     1     111.253 127.744 135.752  0.00  0.00    +0.000 A 
ATOM      7  C   UNL     1     109.981 127.400 135.067  0.00  0.00    +0.000 A 
ATOM      8  C   UNL     1     111.405 126.907 135.869  0.00  0.00    +0.000 A 
ATOM      9  C   UNL     1     110.871 126.338 135.600  0.00  0.00    +0.000 A 
ATOM     10  C   UNL     1     110.149 126.567 135.194  0.00  0.00    +0.000 A 
ATOM     11  C   UNL     1     111.027 125.537 135.719  0.00  0.00    +0.000 A 
ATOM     12  C   UNL     1     112.251 125.873 136.377  0.00  0.00    +0.000 A 
ATOM     13  C   UNL     1     111.717 125.304 136.108  0.00  0.00    +0.000 A 
ENDROOT
BRANCH  12  15
ATOM     14  O   UNL     1     115.010 124.942 137.929  0.00  0.00    +0.000 OA
ATOM     15  C   UNL     1     112.940 125.640 136.765  0.00  0.00    +0.000 A 
ATOM     16  C   UNL     1     112.965 125.625 137.590  0.00  0.00    +0.000 A 
ATOM     17  C   UNL     1     113.606 125.422 136.328  0.00  0.00    +0.000 A 
ATOM     18  C   UNL     1     113.654 125.393 137.977  0.00  0.00    +0.000 A 
ATOM     19  C   UNL     1     114.296 125.190 136.717  0.00  0.00    +0.000 A 
ATOM     20  C   UNL     1     114.320 125.175 137.541  0.00  0.00    +0.000 A 
ENDBRANCH  12  15
BRANCH   5  21
ATOM     21  O   UNL     1     110.382 128.795 135.230  0.00  0.00    +0.000 OA
BRANCH  21  30
ATOM     22  O   UNL     1     109.945 129.106 136.554  0.00  0.00    +0.000 OA
ATOM     23  O   UNL     1     108.185 130.578 135.628  0.00  0.00    +0.000 OA
ATOM     24  O   UNL     1     108.335 130.398 137.260  0.00  0.00    +0.000 OA
ATOM     25  O   UNL     1     109.209 129.776 134.612  0.00  0.00    +0.000 OA
ATOM     26  C   UNL     1     108.771 130.087 135.937  0.00  0.00    +0.000 C 
ATOM     27  C   UNL     1     108.847 129.997 136.753  0.00  0.00    +0.000 C 
ATOM     28  C   UNL     1     109.284 129.686 135.428  0.00  0.00    +0.000 C 
ATOM     29  C   UNL     1     109.434 129.506 137.062  0.00  0.00    +0.000 C 
ATOM     30  C   UNL     1     109.871 129.195 135.737  0.00  0.00    +0.000 C 
BRANCH  29  32
ATOM     31  O   UNL     1     109.298 128.703 138.236  0.00  0.00    +0.000 OA
ATOM     32  C   UNL     1     109.508 129.416 137.878  0.00  0.00    +0.000 C 
ENDBRANCH  29  32
ENDBRANCH  21  30
ENDBRANCH   5  21
TORSDOF 4
ENDMDL
MODEL 2
REMARK VINA RESULT:      -9.5      7.055      8.441
REMARK  Name = 25203835
REMARK  4 active torsions:
REMARK  status: ('A' for Active; 'I' for Inactive)
REMARK    1  A    between atoms: O_2  and  C_16
REMARK    2  A    between atoms: O_2  and  C_18
REMARK    3  A    between atoms: C_15  and  C_17
REMARK    4  A    between atoms: C_25  and  C_27
REMARK                            x       y       z     vdW  Elec       q    Type
REMARK                         _______ _______ _______ _____ _____    ______ ____
ROOT
ATOM      1  O   UNL     1     104.898 124.457 139.505  0.00  0.00    +0.000 OA
ATOM      2  O   UNL     1     105.591 123.578 142.169  0.00  0.00    +0.000 OA
ATOM      3  O   UNL     1     103.659 122.740 140.039  0.00  0.00    +0.000 OA
ATOM      4  O   UNL     1     104.567 122.906 141.406  0.00  0.00    +0.000 OA
ATOM      5  C   UNL     1     106.412 125.260 140.939  0.00  0.00    +0.000 A 
ATOM      6  C   UNL     1     105.936 125.169 140.229  0.00  0.00    +0.000 A 
ATOM      7  C   UNL     1     106.297 124.722 141.599  0.00  0.00    +0.000 A 
ATOM      8  C   UNL     1     105.352 124.540 140.189  0.00  0.00    +0.000 A 
ATOM      9  C   UNL     1     105.242 124.023 140.823  0.00  0.00    +0.000 A 
ATOM     10  C   UNL     1     105.708 124.099 141.540  0.00  0.00    +0.000 A 
ATOM     11  C   UNL     1     104.678 123.423 140.773  0.00  0.00    +0.000 A 
ATOM     12  C   UNL     1     104.333 123.857 139.455  0.00  0.00    +0.000 A 
ATOM     13  C   UNL     1     104.223 123.340 140.089  0.00  0.00    +0.000 A 
ENDROOT
BRANCH  12  15
ATOM     14  O   UNL     1     102.518 123.523 136.720  0.00  0.00    +0.000 OA
ATOM     15  C   UNL     1     103.879 123.774 138.771  0.00  0.00    +0.000 A 
ATOM     16  C   UNL     1     103.096 124.034 138.762  0.00  0.00    +0.000 A 
ATOM     17  C   UNL     1     104.209 123.430 138.097  0.00  0.00    +0.000 A 
ATOM     18  C   UNL     1     102.643 123.950 138.078  0.00  0.00    +0.000 A 
ATOM     19  C   UNL     1     103.755 123.347 137.413  0.00  0.00    +0.000 A 
ATOM     20  C   UNL     1     102.972 123.607 137.404  0.00  0.00    +0.000 A 
ENDBRANCH  12  15
BRANCH   5  21
ATOM     21  O   UNL     1     106.976 125.861 140.986  0.00  0.00    +0.000 OA
BRANCH  21  30
ATOM     22  O   UNL     1     106.148 126.919 141.474  0.00  0.00    +0.000 OA
ATOM     23  O   UNL     1     107.920 127.569 143.074  0.00  0.00    +0.000 OA
ATOM     24  O   UNL     1     106.502 128.410 143.028  0.00  0.00    +0.000 OA
ATOM     25  O   UNL     1     108.157 126.295 142.054  0.00  0.00    +0.000 OA
ATOM     26  C   UNL     1     107.329 127.353 142.541  0.00  0.00    +0.000 C 
ATOM     27  C   UNL     1     106.620 127.773 142.517  0.00  0.00    +0.000 C 
ATOM     28  C   UNL     1     107.448 126.715 142.030  0.00  0.00    +0.000 C 
ATOM     29  C   UNL     1     106.029 127.556 141.984  0.00  0.00    +0.000 C 
ATOM     30  C   UNL     1     106.857 126.498 141.496  0.00  0.00    +0.000 C 
BRANCH  29  32
ATOM     31  O   UNL     1     105.059 128.308 141.251  0.00  0.00    +0.000 OA
ATOM     32  C   UNL     1     105.320 127.976 141.961  0.00  0.00    +0.000 C 
ENDBRANCH  29  32
ENDBRANCH  21  30
ENDBRANCH   5  21
TORSDOF 4
ENDMDL
MODEL 3
REMARK VINA RESULT:      -9.4      1.944      3.301
REMARK  Name = 25203835
REMARK  4 active torsions:
REMARK  status: ('A' for Active; 'I' for Inactive)
REMARK    1  A    between atoms: O_2  and  C_16
REMARK    2  A    between atoms: O_2  and  C_18
REMARK    3  A    between atoms: C_15  and  C_17
REMARK    4  A    between atoms: C_25  and  C_27
REMARK                            x       y       z     vdW  Elec       q    Type
REMARK                         _______ _______ _______ _____ _____    ______ ____
ROOT
ATOM      1  O   UNL     1     110.290 128.195 135.989  0.00  0.00    +0.000 OA
ATOM      2  O   UNL     1     107.904 129.812 135.791  0.00  0.00    +0.000 OA
ATOM      3  O   UNL     1     108.559 126.891 135.727  0.00  0.00    +0.000 OA
ATOM      4  O   UNL     1     107.836 128.374 135.715  0.00  0.00    +0.000 OA
ATOM      5  C   UNL     1     110.044 130.415 136.067  0.00  0.00    +0.000 A 
ATOM      6  C   UNL     1     110.415 129.639 136.072  0.00  0.00    +0.000 A 
ATOM      7  C   UNL     1     109.193 130.477 135.972  0.00  0.00    +0.000 A 
ATOM      8  C   UNL     1     109.929 128.937 135.983  0.00  0.00    +0.000 A 
ATOM      9  C   UNL     1     109.111 128.997 135.891  0.00  0.00    +0.000 A 
ATOM     10  C   UNL     1     108.723 129.763 135.883  0.00  0.00    +0.000 A 
ATOM     11  C   UNL     1     108.654 128.315 135.806  0.00  0.00    +0.000 A 
ATOM     12  C   UNL     1     109.833 127.513 135.903  0.00  0.00    +0.000 A 
ATOM     13  C   UNL     1     109.016 127.573 135.812  0.00  0.00    +0.000 A 
ENDROOT
BRANCH  12  15
ATOM     14  O   UNL     1     111.278 124.546 135.927  0.00  0.00    +0.000 OA
ATOM     15  C   UNL     1     110.195 126.771 135.909  0.00  0.00    +0.000 A 
ATOM     16  C   UNL     1     110.345 126.391 136.626  0.00  0.00    +0.000 A 
ATOM     17  C   UNL     1     110.406 126.410 135.198  0.00  0.00    +0.000 A 
ATOM     18  C   UNL     1     110.706 125.650 136.631  0.00  0.00    +0.000 A 
ATOM     19  C   UNL     1     110.767 125.668 135.204  0.00  0.00    +0.000 A 
ATOM     20  C   UNL     1     110.917 125.288 135.921  0.00  0.00    +0.000 A 
ENDBRANCH  12  15
BRANCH   5  21
ATOM     21  O   UNL     1     110.503 131.095 136.152  0.00  0.00    +0.000 OA
BRANCH  21  30
ATOM     22  O   UNL     1     110.519 131.172 137.579  0.00  0.00    +0.000 OA
ATOM     23  O   UNL     1     110.179 133.620 137.452  0.00  0.00    +0.000 OA
ATOM     24  O   UNL     1     110.308 132.880 138.920  0.00  0.00    +0.000 OA
ATOM     25  O   UNL     1     110.276 132.728 136.067  0.00  0.00    +0.000 OA
ATOM     26  C   UNL     1     110.292 132.804 137.494  0.00  0.00    +0.000 C 
ATOM     27  C   UNL     1     110.357 132.434 138.228  0.00  0.00    +0.000 C 
ATOM     28  C   UNL     1     110.341 132.357 136.802  0.00  0.00    +0.000 C 
ATOM     29  C   UNL     1     110.470 131.617 138.271  0.00  0.00    +0.000 C 
ATOM     30  C   UNL     1     110.454 131.541 136.844  0.00  0.00    +0.000 C 
BRANCH  29  32
ATOM     31  O   UNL     1     111.240 130.876 139.220  0.00  0.00    +0.000 OA
ATOM     32  C   UNL     1     110.535 131.248 139.005  0.00  0.00    +0.000 C 
ENDBRANCH  29  32
ENDBRANCH  21  30
ENDBRANCH   5  21
TORSDOF 4
ENDMDL
MODEL 4
REMARK VINA RESULT:      -9.2      7.101     10.326
REMARK  Name = 25203835
REMARK  4 active torsions:
REMARK  status: ('A' for Active; 'I' for Inactive)
REMARK    1  A    between atoms: O_2  and  C_16
REMARK    2  A    between atoms: O_2  and  C_18
REMARK    3  A    between atoms: C_15  and  C_17
REMARK    4  A    between atoms: C_25  and  C_27
REMARK                            x       y       z     vdW  Elec       q    Type
REMARK                         _______ _______ _______ _____ _____    ______ ____
ROOT
ATOM      1  O   UNL     1     103.290 130.173 142.013  0.00  0.00    +0.000 OA
ATOM      2  O   UNL     1     103.837 127.855 140.378  0.00  0.00    +0.000 OA
ATOM      3  O   UNL     1     102.072 130.268 140.204  0.00  0.00    +0.000 OA
ATOM      4  O   UNL     1     102.885 128.854 139.958  0.00  0.00    +0.000 OA
ATOM      5  C   UNL     1     104.684 128.461 142.361  0.00  0.00    +0.000 A 
ATOM      6  C   UNL     1     104.257 129.198 142.483  0.00  0.00    +0.000 A 
ATOM      7  C   UNL     1     104.543 128.004 141.648  0.00  0.00    +0.000 A 
ATOM      8  C   UNL     1     103.696 129.466 141.890  0.00  0.00    +0.000 A 
ATOM      9  C   UNL     1     103.561 129.026 141.206  0.00  0.00    +0.000 A 
ATOM     10  C   UNL     1     103.978 128.288 141.066  0.00  0.00    +0.000 A 
ATOM     11  C   UNL     1     103.020 129.293 140.643  0.00  0.00    +0.000 A 
ATOM     12  C   UNL     1     102.748 130.441 141.451  0.00  0.00    +0.000 A 
ATOM     13  C   UNL     1     102.614 130.001 140.766  0.00  0.00    +0.000 A 
ENDROOT
BRANCH  12  15
ATOM     14  O   UNL     1     101.123 133.270 141.941  0.00  0.00    +0.000 OA
ATOM     15  C   UNL     1     102.342 131.148 141.574  0.00  0.00    +0.000 A 
ATOM     16  C   UNL     1     101.594 131.139 141.921  0.00  0.00    +0.000 A 
ATOM     17  C   UNL     1     102.684 131.865 141.348  0.00  0.00    +0.000 A 
ATOM     18  C   UNL     1     101.188 131.846 142.043  0.00  0.00    +0.000 A 
ATOM     19  C   UNL     1     102.278 132.572 141.471  0.00  0.00    +0.000 A 
ATOM     20  C   UNL     1     101.530 132.563 141.818  0.00  0.00    +0.000 A 
ENDBRANCH  12  15
BRANCH   5  21
ATOM     21  O   UNL     1     105.225 128.196 142.925  0.00  0.00    +0.000 OA
BRANCH  21  30
ATOM     22  O   UNL     1     106.383 128.802 142.348  0.00  0.00    +0.000 OA
ATOM     23  O   UNL     1     107.737 126.835 143.000  0.00  0.00    +0.000 OA
ATOM     24  O   UNL     1     108.443 128.096 142.206  0.00  0.00    +0.000 OA
ATOM     25  O   UNL     1     106.127 126.885 143.360  0.00  0.00    +0.000 OA
ATOM     26  C   UNL     1     107.285 127.490 142.783  0.00  0.00    +0.000 C 
ATOM     27  C   UNL     1     107.638 128.121 142.385  0.00  0.00    +0.000 C 
ATOM     28  C   UNL     1     106.480 127.516 142.962  0.00  0.00    +0.000 C 
ATOM     29  C   UNL     1     107.187 128.777 142.168  0.00  0.00    +0.000 C 
ATOM     30  C   UNL     1     106.029 128.171 142.745  0.00  0.00    +0.000 C 
BRANCH  29  32
ATOM     31  O   UNL     1     107.311 129.591 141.000  0.00  0.00    +0.000 OA
ATOM     32  C   UNL     1     107.541 129.407 141.771  0.00  0.00    +0.000 C 
ENDBRANCH  29  32
ENDBRANCH  21  30
ENDBRANCH   5  21
TORSDOF 4
ENDMDL
MODEL 5
REMARK VINA RESULT:      -9.2      7.408     10.184
REMARK  Name = 25203835
REMARK  4 active torsions:
REMARK  status: ('A' for Active; 'I' for Inactive)
REMARK    1  A    between atoms: O_2  and  C_16
REMARK    2  A    between atoms: O_2  and  C_18
REMARK    3  A    between atoms: C_15  and  C_17
REMARK    4  A    between atoms: C_25  and  C_27
REMARK                            x       y       z     vdW  Elec       q    Type
REMARK                         _______ _______ _______ _____ _____    ______ ____
ROOT
ATOM      1  O   UNL     1     104.951 127.691 142.366  0.00  0.00    +0.000 OA
ATOM      2  O   UNL     1     107.806 127.349 142.089  0.00  0.00    +0.000 OA
ATOM      3  O   UNL     1     105.804 129.488 141.468  0.00  0.00    +0.000 OA
ATOM      4  O   UNL     1     107.157 128.565 141.663  0.00  0.00    +0.000 OA
ATOM      5  C   UNL     1     106.255 125.961 142.916  0.00  0.00    +0.000 A 
ATOM      6  C   UNL     1     105.553 126.447 142.811  0.00  0.00    +0.000 A 
ATOM      7  C   UNL     1     107.020 126.265 142.672  0.00  0.00    +0.000 A 
ATOM      8  C   UNL     1     105.627 127.229 142.464  0.00  0.00    +0.000 A 
ATOM      9  C   UNL     1     106.363 127.520 142.230  0.00  0.00    +0.000 A 
ATOM     10  C   UNL     1     107.075 127.049 142.327  0.00  0.00    +0.000 A 
ATOM     11  C   UNL     1     106.422 128.273 141.898  0.00  0.00    +0.000 A 
ATOM     12  C   UNL     1     105.009 128.444 142.034  0.00  0.00    +0.000 A 
ATOM     13  C   UNL     1     105.745 128.735 141.800  0.00  0.00    +0.000 A 
ENDROOT
BRANCH  12  15
ATOM     14  O   UNL     1     102.303 130.291 141.643  0.00  0.00    +0.000 OA
ATOM     15  C   UNL     1     104.333 128.905 141.936  0.00  0.00    +0.000 A 
ATOM     16  C   UNL     1     103.886 128.842 141.245  0.00  0.00    +0.000 A 
ATOM     17  C   UNL     1     104.103 129.431 142.530  0.00  0.00    +0.000 A 
ATOM     18  C   UNL     1     103.210 129.304 141.148  0.00  0.00    +0.000 A 
ATOM     19  C   UNL     1     103.426 129.893 142.432  0.00  0.00    +0.000 A 
ATOM     20  C   UNL     1     102.980 129.829 141.741  0.00  0.00    +0.000 A 
ENDBRANCH  12  15
BRANCH   5  21
ATOM     21  O   UNL     1     106.193 125.208 143.249  0.00  0.00    +0.000 OA
BRANCH  21  30
ATOM     22  O   UNL     1     106.366 125.596 144.613  0.00  0.00    +0.000 OA
ATOM     23  O   UNL     1     104.673 123.928 145.302  0.00  0.00    +0.000 OA
ATOM     24  O   UNL     1     105.410 124.872 146.436  0.00  0.00    +0.000 OA
ATOM     25  O   UNL     1     105.064 124.096 143.708  0.00  0.00    +0.000 OA
ATOM     26  C   UNL     1     105.237 124.484 145.073  0.00  0.00    +0.000 C 
ATOM     27  C   UNL     1     105.606 124.956 145.639  0.00  0.00    +0.000 C 
ATOM     28  C   UNL     1     105.433 124.568 144.275  0.00  0.00    +0.000 C 
ATOM     29  C   UNL     1     106.171 125.512 145.409  0.00  0.00    +0.000 C 
ATOM     30  C   UNL     1     105.998 125.124 144.045  0.00  0.00    +0.000 C 
BRANCH  29  32
ATOM     31  O   UNL     1     107.361 125.980 146.046  0.00  0.00    +0.000 OA
ATOM     32  C   UNL     1     106.539 125.984 145.976  0.00  0.00    +0.000 C 
ENDBRANCH  29  32
ENDBRANCH  21  30
ENDBRANCH   5  21
TORSDOF 4
ENDMDL
MODEL 6
REMARK VINA RESULT:      -9.1      1.696      5.336
REMARK  Name = 25203835
REMARK  4 active torsions:
REMARK  status: ('A' for Active; 'I' for Inactive)
REMARK    1  A    between atoms: O_2  and  C_16
REMARK    2  A    between atoms: O_2  and  C_18
REMARK    3  A    between atoms: C_15  and  C_17
REMARK    4  A    between atoms: C_25  and  C_27
REMARK                            x       y       z     vdW  Elec       q    Type
REMARK                         _______ _______ _______ _____ _____    ______ ____
ROOT
ATOM      1  O   UNL     1     110.092 130.137 136.613  0.00  0.00    +0.000 OA
ATOM      2  O   UNL     1     108.043 128.372 135.598  0.00  0.00    +0.000 OA
ATOM      3  O   UNL     1     108.148 131.113 136.800  0.00  0.00    +0.000 OA
ATOM      4  O   UNL     1     107.710 129.674 136.122  0.00  0.00    +0.000 OA
ATOM      5  C   UNL     1     110.259 128.085 135.743  0.00  0.00    +0.000 A 
ATOM      6  C   UNL     1     110.481 128.837 136.096  0.00  0.00    +0.000 A 
ATOM      7  C   UNL     1     109.433 127.925 135.573  0.00  0.00    +0.000 A 
ATOM      8  C   UNL     1     109.873 129.418 136.274  0.00  0.00    +0.000 A 
ATOM      9  C   UNL     1     109.080 129.263 136.111  0.00  0.00    +0.000 A 
ATOM     10  C   UNL     1     108.839 128.517 135.758  0.00  0.00    +0.000 A 
ATOM     11  C   UNL     1     108.505 129.828 136.286  0.00  0.00    +0.000 A 
ATOM     12  C   UNL     1     109.517 130.702 136.788  0.00  0.00    +0.000 A 
ATOM     13  C   UNL     1     108.723 130.548 136.625  0.00  0.00    +0.000 A 
ENDROOT
BRANCH  12  15
ATOM     14  O   UNL     1     110.392 133.581 138.144  0.00  0.00    +0.000 OA
ATOM     15  C   UNL     1     109.736 131.422 137.127  0.00  0.00    +0.000 A 
ATOM     16  C   UNL     1     109.924 132.065 136.645  0.00  0.00    +0.000 A 
ATOM     17  C   UNL     1     109.766 131.499 137.948  0.00  0.00    +0.000 A 
ATOM     18  C   UNL     1     110.142 132.784 136.984  0.00  0.00    +0.000 A 
ATOM     19  C   UNL     1     109.985 132.219 138.287  0.00  0.00    +0.000 A 
ATOM     20  C   UNL     1     110.173 132.861 137.805  0.00  0.00    +0.000 A 
ENDBRANCH  12  15
BRANCH   5  21
ATOM     21  O   UNL     1     110.837 127.522 135.569  0.00  0.00    +0.000 OA
BRANCH  21  30
ATOM     22  O   UNL     1     110.950 126.921 136.861  0.00  0.00    +0.000 OA
ATOM     23  O   UNL     1     111.056 124.683 135.811  0.00  0.00    +0.000 OA
ATOM     24  O   UNL     1     111.135 124.829 137.452  0.00  0.00    +0.000 OA
ATOM     25  O   UNL     1     110.907 126.029 134.869  0.00  0.00    +0.000 OA
ATOM     26  C   UNL     1     111.021 125.429 136.161  0.00  0.00    +0.000 C 
ATOM     27  C   UNL     1     111.060 125.502 136.981  0.00  0.00    +0.000 C 
ATOM     28  C   UNL     1     110.946 126.103 135.690  0.00  0.00    +0.000 C 
ATOM     29  C   UNL     1     111.025 126.249 137.331  0.00  0.00    +0.000 C 
ATOM     30  C   UNL     1     110.911 126.849 136.040  0.00  0.00    +0.000 C 
BRANCH  29  32
ATOM     31  O   UNL     1     111.604 126.842 138.495  0.00  0.00    +0.000 OA
ATOM     32  C   UNL     1     111.064 126.321 138.152  0.00  0.00    +0.000 C 
ENDBRANCH  29  32
ENDBRANCH  21  30
ENDBRANCH   5  21
TORSDOF 4
ENDMDL
MODEL 7
REMARK VINA RESULT:      -9.1      3.647      4.853
REMARK  Name = 25203835
REMARK  4 active torsions:
REMARK  status: ('A' for Active; 'I' for Inactive)
REMARK    1  A    between atoms: O_2  and  C_16
REMARK    2  A    between atoms: O_2  and  C_18
REMARK    3  A    between atoms: C_15  and  C_17
REMARK    4  A    between atoms: C_25  and  C_27
REMARK                            x       y       z     vdW  Elec       q    Type
REMARK                         _______ _______ _______ _____ _____    ______ ____
ROOT
ATOM      1  O   UNL     1     113.426 126.317 138.883  0.00  0.00    +0.000 OA
ATOM      2  O   UNL     1     110.703 126.390 139.848  0.00  0.00    +0.000 OA
ATOM      3  O   UNL     1     112.122 125.349 137.425  0.00  0.00    +0.000 OA
ATOM      4  O   UNL     1     111.028 125.780 138.582  0.00  0.00    +0.000 OA
ATOM      5  C   UNL     1     112.589 127.171 140.772  0.00  0.00    +0.000 A 
ATOM      6  C   UNL     1     113.154 126.943 140.165  0.00  0.00    +0.000 A 
ATOM      7  C   UNL     1     111.757 126.984 140.667  0.00  0.00    +0.000 A 
ATOM      8  C   UNL     1     112.879 126.533 139.462  0.00  0.00    +0.000 A 
ATOM      9  C   UNL     1     112.080 126.354 139.362  0.00  0.00    +0.000 A 
ATOM     10  C   UNL     1     111.501 126.573 139.957  0.00  0.00    +0.000 A 
ATOM     11  C   UNL     1     111.827 125.960 138.683  0.00  0.00    +0.000 A 
ATOM     12  C   UNL     1     113.173 125.922 138.204  0.00  0.00    +0.000 A 
ATOM     13  C   UNL     1     112.374 125.744 138.104  0.00  0.00    +0.000 A 
ENDROOT
BRANCH  12  15
ATOM     14  O   UNL     1     115.361 125.059 135.889  0.00  0.00    +0.000 OA
ATOM     15  C   UNL     1     113.720 125.707 137.625  0.00  0.00    +0.000 A 
ATOM     16  C   UNL     1     113.865 126.209 136.987  0.00  0.00    +0.000 A 
ATOM     17  C   UNL     1     114.122 124.988 137.685  0.00  0.00    +0.000 A 
ATOM     18  C   UNL     1     114.412 125.993 136.409  0.00  0.00    +0.000 A 
ATOM     19  C   UNL     1     114.669 124.772 137.106  0.00  0.00    +0.000 A 
ATOM     20  C   UNL     1     114.814 125.275 136.468  0.00  0.00    +0.000 A 
ENDBRANCH  12  15
BRANCH   5  21
ATOM     21  O   UNL     1     112.844 127.565 141.450  0.00  0.00    +0.000 OA
BRANCH  21  30
ATOM     22  O   UNL     1     113.179 128.839 140.896  0.00  0.00    +0.000 OA
ATOM     23  O   UNL     1     112.001 129.961 142.760  0.00  0.00    +0.000 OA
ATOM     24  O   UNL     1     112.729 130.859 141.585  0.00  0.00    +0.000 OA
ATOM     25  O   UNL     1     112.058 128.313 142.694  0.00  0.00    +0.000 OA
ATOM     26  C   UNL     1     112.394 129.587 142.139  0.00  0.00    +0.000 C 
ATOM     27  C   UNL     1     112.758 130.036 141.551  0.00  0.00    +0.000 C 
ATOM     28  C   UNL     1     112.422 128.762 142.105  0.00  0.00    +0.000 C 
ATOM     29  C   UNL     1     113.151 129.662 140.929  0.00  0.00    +0.000 C 
ATOM     30  C   UNL     1     112.815 128.388 141.484  0.00  0.00    +0.000 C 
BRANCH  29  32
ATOM     31  O   UNL     1     114.319 130.015 140.186  0.00  0.00    +0.000 OA
ATOM     32  C   UNL     1     113.514 130.111 140.341  0.00  0.00    +0.000 C 
ENDBRANCH  29  32
ENDBRANCH  21  30
ENDBRANCH   5  21
TORSDOF 4
ENDMDL
MODEL 8
REMARK VINA RESULT:      -9.1      9.432     11.696
REMARK  Name = 25203835
REMARK  4 active torsions:
REMARK  status: ('A' for Active; 'I' for Inactive)
REMARK    1  A    between atoms: O_2  and  C_16
REMARK    2  A    between atoms: O_2  and  C_18
REMARK    3  A    between atoms: C_15  and  C_17
REMARK    4  A    between atoms: C_25  and  C_27
REMARK                            x       y       z     vdW  Elec       q    Type
REMARK                         _______ _______ _______ _____ _____    ______ ____
ROOT
ATOM      1  O   UNL     1     105.447 126.319 144.179  0.00  0.00    +0.000 OA
ATOM      2  O   UNL     1     107.216 126.239 146.462  0.00  0.00    +0.000 OA
ATOM      3  O   UNL     1     106.753 128.067 144.136  0.00  0.00    +0.000 OA
ATOM      4  O   UNL     1     107.280 127.319 145.509  0.00  0.00    +0.000 OA
ATOM      5  C   UNL     1     105.610 124.813 145.823  0.00  0.00    +0.000 A 
ATOM      6  C   UNL     1     105.340 125.208 145.108  0.00  0.00    +0.000 A 
ATOM      7  C   UNL     1     106.246 125.161 146.284  0.00  0.00    +0.000 A 
ATOM      8  C   UNL     1     105.710 125.944 144.865  0.00  0.00    +0.000 A 
ATOM      9  C   UNL     1     106.321 126.277 145.309  0.00  0.00    +0.000 A 
ATOM     10  C   UNL     1     106.604 125.898 146.025  0.00  0.00    +0.000 A 
ATOM     11  C   UNL     1     106.669 126.985 145.065  0.00  0.00    +0.000 A 
ATOM     12  C   UNL     1     105.795 127.026 143.936  0.00  0.00    +0.000 A 
ATOM     13  C   UNL     1     106.405 127.359 144.379  0.00  0.00    +0.000 A 
ENDROOT
BRANCH  12  15
ATOM     14  O   UNL     1     104.741 128.524 141.190  0.00  0.00    +0.000 OA
ATOM     15  C   UNL     1     105.531 127.401 143.249  0.00  0.00    +0.000 A 
ATOM     16  C   UNL     1     105.776 127.127 142.510  0.00  0.00    +0.000 A 
ATOM     17  C   UNL     1     105.024 128.049 143.302  0.00  0.00    +0.000 A 
ATOM     18  C   UNL     1     105.512 127.501 141.825  0.00  0.00    +0.000 A 
ATOM     19  C   UNL     1     104.760 128.424 142.616  0.00  0.00    +0.000 A 
ATOM     20  C   UNL     1     105.005 128.150 141.877  0.00  0.00    +0.000 A 
ENDBRANCH  12  15
BRANCH   5  21
ATOM     21  O   UNL     1     105.261 124.105 146.064  0.00  0.00    +0.000 OA
BRANCH  21  30
ATOM     22  O   UNL     1     104.237 124.680 146.878  0.00  0.00    +0.000 OA
ATOM     23  O   UNL     1     102.651 122.942 146.110  0.00  0.00    +0.000 OA
ATOM     24  O   UNL     1     102.156 124.095 147.180  0.00  0.00    +0.000 OA
ATOM     25  O   UNL     1     104.204 122.947 145.552  0.00  0.00    +0.000 OA
ATOM     26  C   UNL     1     103.180 123.521 146.366  0.00  0.00    +0.000 C 
ATOM     27  C   UNL     1     102.932 124.098 146.901  0.00  0.00    +0.000 C 
ATOM     28  C   UNL     1     103.957 123.524 146.087  0.00  0.00    +0.000 C 
ATOM     29  C   UNL     1     103.461 124.677 147.157  0.00  0.00    +0.000 C 
ATOM     30  C   UNL     1     104.485 124.103 146.343  0.00  0.00    +0.000 C 
BRANCH  29  32
ATOM     31  O   UNL     1     103.652 125.399 148.375  0.00  0.00    +0.000 OA
ATOM     32  C   UNL     1     103.213 125.254 147.692  0.00  0.00    +0.000 C 
ENDBRANCH  29  32
ENDBRANCH  21  30
ENDBRANCH   5  21
TORSDOF 4
ENDMDL
MODEL 9
REMARK VINA RESULT:      -9.1      2.200      2.945
REMARK  Name = 25203835
REMARK  4 active torsions:
REMARK  status: ('A' for Active; 'I' for Inactive)
REMARK    1  A    between atoms: O_2  and  C_16
REMARK    2  A    between atoms: O_2  and  C_18
REMARK    3  A    between atoms: C_15  and  C_17
REMARK    4  A    between atoms: C_25  and  C_27
REMARK                            x       y       z     vdW  Elec       q    Type
REMARK                         _______ _______ _______ _____ _____    ______ ____
ROOT
ATOM      1  O   UNL     1     112.064 126.554 136.264  0.00  0.00    +0.000 OA
ATOM      2  O   UNL     1     110.445 128.284 134.613  0.00  0.00    +0.000 OA
ATOM      3  O   UNL     1     110.350 125.430 135.515  0.00  0.00    +0.000 OA
ATOM      4  O   UNL     1     110.075 126.908 134.835  0.00  0.00    +0.000 OA
ATOM      5  C   UNL     1     112.345 128.704 135.722  0.00  0.00    +0.000 A 
ATOM      6  C   UNL     1     112.482 127.931 136.074  0.00  0.00    +0.000 A 
ATOM      7  C   UNL     1     111.654 128.826 135.226  0.00  0.00    +0.000 A 
ATOM      8  C   UNL     1     111.927 127.293 135.924  0.00  0.00    +0.000 A 
ATOM      9  C   UNL     1     111.264 127.411 135.448  0.00  0.00    +0.000 A 
ATOM     10  C   UNL     1     111.111 128.176 135.088  0.00  0.00    +0.000 A 
ATOM     11  C   UNL     1     110.739 126.790 135.311  0.00  0.00    +0.000 A 
ATOM     12  C   UNL     1     111.539 125.933 136.128  0.00  0.00    +0.000 A 
ATOM     13  C   UNL     1     110.876 126.051 135.651  0.00  0.00    +0.000 A 
ENDROOT
BRANCH  12  15
ATOM     14  O   UNL     1     112.087 122.976 137.487  0.00  0.00    +0.000 OA
ATOM     15  C   UNL     1     111.676 125.194 136.468  0.00  0.00    +0.000 A 
ATOM     16  C   UNL     1     111.359 125.015 137.208  0.00  0.00    +0.000 A 
ATOM     17  C   UNL     1     112.130 124.633 136.067  0.00  0.00    +0.000 A 
ATOM     18  C   UNL     1     111.496 124.276 137.548  0.00  0.00    +0.000 A 
ATOM     19  C   UNL     1     112.267 123.894 136.407  0.00  0.00    +0.000 A 
ATOM     20  C   UNL     1     111.950 123.715 137.147  0.00  0.00    +0.000 A 
ENDBRANCH  12  15
BRANCH   5  21
ATOM     21  O   UNL     1     112.873 129.323 135.860  0.00  0.00    +0.000 OA
BRANCH  21  30
ATOM     22  O   UNL     1     112.140 129.929 136.928  0.00  0.00    +0.000 OA
ATOM     23  O   UNL     1     114.265 130.504 138.059  0.00  0.00    +0.000 OA
ATOM     24  O   UNL     1     112.825 130.917 138.748  0.00  0.00    +0.000 OA
ATOM     25  O   UNL     1     114.289 129.706 136.615  0.00  0.00    +0.000 OA
ATOM     26  C   UNL     1     113.557 130.312 137.682  0.00  0.00    +0.000 C 
ATOM     27  C   UNL     1     112.837 130.519 138.026  0.00  0.00    +0.000 C 
ATOM     28  C   UNL     1     113.569 129.913 136.959  0.00  0.00    +0.000 C 
ATOM     29  C   UNL     1     112.128 130.327 137.649  0.00  0.00    +0.000 C 
ATOM     30  C   UNL     1     112.861 129.721 136.582  0.00  0.00    +0.000 C 
BRANCH  29  32
ATOM     31  O   UNL     1     110.865 130.991 137.574  0.00  0.00    +0.000 OA
ATOM     32  C   UNL     1     111.409 130.534 137.994  0.00  0.00    +0.000 C 
ENDBRANCH  29  32
ENDBRANCH  21  30
ENDBRANCH   5  21
TORSDOF 4
ENDMDL
MODEL 10
REMARK VINA RESULT:      -9.0      1.419      2.207
REMARK  Name = 25203835
REMARK  4 active torsions:
REMARK  status: ('A' for Active; 'I' for Inactive)
REMARK    1  A    between atoms: O_2  and  C_16
REMARK    2  A    between atoms: O_2  and  C_18
REMARK    3  A    between atoms: C_15  and  C_17
REMARK    4  A    between atoms: C_25  and  C_27
REMARK                            x       y       z     vdW  Elec       q    Type
REMARK                         _______ _______ _______ _____ _____    ______ ____
ROOT
ATOM      1  O   UNL     1     111.543 127.001 136.179  0.00  0.00    +0.000 OA
ATOM      2  O   UNL     1     113.340 129.215 135.710  0.00  0.00    +0.000 OA
ATOM      3  O   UNL     1     113.577 126.394 136.688  0.00  0.00    +0.000 OA
ATOM      4  O   UNL     1     113.829 127.952 136.205  0.00  0.00    +0.000 OA
ATOM      5  C   UNL     1     111.123 129.064 135.427  0.00  0.00    +0.000 A 
ATOM      6  C   UNL     1     110.998 128.251 135.680  0.00  0.00    +0.000 A 
ATOM      7  C   UNL     1     111.916 129.393 135.436  0.00  0.00    +0.000 A 
ATOM      8  C   UNL     1     111.669 127.780 135.938  0.00  0.00    +0.000 A 
ATOM      9  C   UNL     1     112.430 128.097 135.946  0.00  0.00    +0.000 A 
ATOM     10  C   UNL     1     112.574 128.907 135.697  0.00  0.00    +0.000 A 
ATOM     11  C   UNL     1     113.067 127.635 136.196  0.00  0.00    +0.000 A 
ATOM     12  C   UNL     1     112.180 126.540 136.429  0.00  0.00    +0.000 A 
ATOM     13  C   UNL     1     112.941 126.856 136.438  0.00  0.00    +0.000 A 
ENDROOT
BRANCH  12  15
ATOM     14  O   UNL     1     111.677 123.425 137.396  0.00  0.00    +0.000 OA
ATOM     15  C   UNL     1     112.054 125.761 136.671  0.00  0.00    +0.000 A 
ATOM     16  C   UNL     1     112.112 125.145 136.125  0.00  0.00    +0.000 A 
ATOM     17  C   UNL     1     111.870 125.598 137.459  0.00  0.00    +0.000 A 
ATOM     18  C   UNL     1     111.987 124.367 136.367  0.00  0.00    +0.000 A 
ATOM     19  C   UNL     1     111.745 124.819 137.701  0.00  0.00    +0.000 A 
ATOM     20  C   UNL     1     111.803 124.204 137.155  0.00  0.00    +0.000 A 
ENDBRANCH  12  15
BRANCH   5  21
ATOM     21  O   UNL     1     110.485 129.523 135.177  0.00  0.00    +0.000 OA
BRANCH  21  30
ATOM     22  O   UNL     1     110.249 130.261 136.378  0.00  0.00    +0.000 OA
ATOM     23  O   UNL     1     107.811 129.931 136.101  0.00  0.00    +0.000 OA
ATOM     24  O   UNL     1     108.388 130.778 137.394  0.00  0.00    +0.000 OA
ATOM     25  O   UNL     1     108.860 129.304 134.992  0.00  0.00    +0.000 OA
ATOM     26  C   UNL     1     108.624 130.041 136.194  0.00  0.00    +0.000 C 
ATOM     27  C   UNL     1     108.913 130.464 136.840  0.00  0.00    +0.000 C 
ATOM     28  C   UNL     1     109.149 129.727 135.639  0.00  0.00    +0.000 C 
ATOM     29  C   UNL     1     109.725 130.574 136.932  0.00  0.00    +0.000 C 
ATOM     30  C   UNL     1     109.961 129.837 135.731  0.00  0.00    +0.000 C 
BRANCH  29  32
ATOM     31  O   UNL     1     110.554 131.610 137.464  0.00  0.00    +0.000 OA
ATOM     32  C   UNL     1     110.013 130.997 137.579  0.00  0.00    +0.000 C 
ENDBRANCH  29  32
ENDBRANCH  21  30
ENDBRANCH   5  21
TORSDOF 4
ENDMDL
