MODEL 1
REMARK VINA RESULT:     -10.5      0.000      0.000
REMARK  Name = 44259259
REMARK  6 active torsions:
REMARK  status: ('A' for Active; 'I' for Inactive)
REMARK    1  A    between atoms: O_2  and  C_18
REMARK    2  A    between atoms: O_2  and  C_23
REMARK    3  A    between atoms: O_3  and  C_20
REMARK    4  A    between atoms: O_3  and  C_22
REMARK    5  A    between atoms: C_23  and  C_27
REMARK    6  A    between atoms: C_24  and  C_29
REMARK                            x       y       z     vdW  Elec       q    Type
REMARK                         _______ _______ _______ _____ _____    ______ ____
ROOT
ATOM      1  O   UNL     1     111.750 127.430 136.897  0.00  0.00    +0.000 OA
ENDROOT
BRANCH   1   6
ATOM      2  O   UNL     1     113.373 127.797 138.308  0.00  0.00    +0.000 OA
ATOM      3  O   UNL     1     111.172 126.669 138.242  0.00  0.00    +0.000 OA
ATOM      4  O   UNL     1     111.304 126.267 139.621  0.00  0.00    +0.000 OA
ATOM      5  O   UNL     1     113.709 127.021 141.095  0.00  0.00    +0.000 OA
ATOM      6  C   UNL     1     112.195 127.426 137.592  0.00  0.00    +0.000 A 
ATOM      7  C   UNL     1     112.928 127.802 137.614  0.00  0.00    +0.000 A 
ATOM      8  C   UNL     1     111.905 127.045 138.264  0.00  0.00    +0.000 A 
ATOM      9  C   UNL     1     112.350 127.040 138.959  0.00  0.00    +0.000 A 
ATOM     10  C   UNL     1     113.085 127.417 138.981  0.00  0.00    +0.000 A 
ATOM     11  C   UNL     1     112.039 126.641 139.653  0.00  0.00    +0.000 A 
ATOM     12  C   UNL     1     113.557 127.419 139.698  0.00  0.00    +0.000 A 
ATOM     13  C   UNL     1     112.497 126.632 140.379  0.00  0.00    +0.000 A 
ATOM     14  C   UNL     1     113.261 127.024 140.402  0.00  0.00    +0.000 A 
BRANCH   7  17
ATOM     15  O   UNL     1     113.092 130.129 135.964  0.00  0.00    +0.000 OA
ATOM     16  O   UNL     1     114.088 129.323 134.924  0.00  0.00    +0.000 OA
ATOM     17  C   UNL     1     113.218 128.182 136.941  0.00  0.00    +0.000 A 
ATOM     18  C   UNL     1     113.010 128.965 136.789  0.00  0.00    +0.000 A 
ATOM     19  C   UNL     1     113.716 127.779 136.422  0.00  0.00    +0.000 A 
ATOM     20  C   UNL     1     113.300 129.346 136.116  0.00  0.00    +0.000 A 
ATOM     21  C   UNL     1     114.006 128.159 135.749  0.00  0.00    +0.000 A 
ATOM     22  C   UNL     1     113.797 128.943 135.597  0.00  0.00    +0.000 A 
ENDBRANCH   7  17
ENDBRANCH   1   6
BRANCH   1  30
ATOM     23  O   UNL     1     112.021 126.064 136.579  0.00  0.00    +0.000 OA
ATOM     24  O   UNL     1     109.827 125.891 135.448  0.00  0.00    +0.000 OA
ATOM     25  O   UNL     1     110.830 124.582 135.508  0.00  0.00    +0.000 OA
ATOM     26  C   UNL     1     110.558 125.948 135.825  0.00  0.00    +0.000 C 
ATOM     27  C   UNL     1     111.059 125.294 135.855  0.00  0.00    +0.000 C 
ATOM     28  C   UNL     1     110.788 126.660 136.172  0.00  0.00    +0.000 C 
ATOM     29  C   UNL     1     111.791 125.352 136.232  0.00  0.00    +0.000 C 
ATOM     30  C   UNL     1     111.519 126.718 136.549  0.00  0.00    +0.000 C 
ATOM     31  C   UNL     1     112.293 124.697 136.262  0.00  0.00    +0.000 C 
BRANCH  28  32
ATOM     32  O   UNL     1     110.287 127.315 136.143  0.00  0.00    +0.000 OA
BRANCH  32  34
ATOM     33  O   UNL     1     110.464 127.392 134.726  0.00  0.00    +0.000 OA
ATOM     34  C   UNL     1     110.161 127.706 135.427  0.00  0.00    +0.000 C 
BRANCH  34  38
ATOM     35  O   UNL     1     107.837 129.206 136.148  0.00  0.00    +0.000 OA
ATOM     36  O   UNL     1     109.912 130.434 134.613  0.00  0.00    +0.000 OA
ATOM     37  O   UNL     1     108.446 130.524 135.365  0.00  0.00    +0.000 OA
ATOM     38  C   UNL     1     109.733 128.410 135.411  0.00  0.00    +0.000 A 
ATOM     39  C   UNL     1     110.037 129.070 135.020  0.00  0.00    +0.000 A 
ATOM     40  C   UNL     1     108.999 128.456 135.787  0.00  0.00    +0.000 A 
ATOM     41  C   UNL     1     108.571 129.160 135.771  0.00  0.00    +0.000 A 
ATOM     42  C   UNL     1     109.608 129.774 135.005  0.00  0.00    +0.000 A 
ATOM     43  C   UNL     1     108.875 129.820 135.380  0.00  0.00    +0.000 A 
ENDBRANCH  34  38
ENDBRANCH  32  34
ENDBRANCH  28  32
ENDBRANCH   1  30
TORSDOF 6
ENDMDL
MODEL 2
REMARK VINA RESULT:     -10.5      1.089      2.896
REMARK  Name = 44259259
REMARK  6 active torsions:
REMARK  status: ('A' for Active; 'I' for Inactive)
REMARK    1  A    between atoms: O_2  and  C_18
REMARK    2  A    between atoms: O_2  and  C_23
REMARK    3  A    between atoms: O_3  and  C_20
REMARK    4  A    between atoms: O_3  and  C_22
REMARK    5  A    between atoms: C_23  and  C_27
REMARK    6  A    between atoms: C_24  and  C_29
REMARK                            x       y       z     vdW  Elec       q    Type
REMARK                         _______ _______ _______ _____ _____    ______ ____
ROOT
ATOM      1  O   UNL     1     112.328 127.312 137.075  0.00  0.00    +0.000 OA
ENDROOT
BRANCH   1   6
ATOM      2  O   UNL     1     113.125 126.225 138.791  0.00  0.00    +0.000 OA
ATOM      3  O   UNL     1     112.805 128.561 138.041  0.00  0.00    +0.000 OA
ATOM      4  O   UNL     1     113.391 129.063 139.261  0.00  0.00    +0.000 OA
ATOM      5  O   UNL     1     114.318 127.164 141.276  0.00  0.00    +0.000 OA
ATOM      6  C   UNL     1     112.673 127.158 137.808  0.00  0.00    +0.000 A 
ATOM      7  C   UNL     1     112.779 126.379 138.057  0.00  0.00    +0.000 A 
ATOM      8  C   UNL     1     112.912 127.783 138.291  0.00  0.00    +0.000 A 
ATOM      9  C   UNL     1     113.257 127.628 139.024  0.00  0.00    +0.000 A 
ATOM     10  C   UNL     1     113.364 126.849 139.274  0.00  0.00    +0.000 A 
ATOM     11  C   UNL     1     113.502 128.287 139.519  0.00  0.00    +0.000 A 
ATOM     12  C   UNL     1     113.722 126.675 140.035  0.00  0.00    +0.000 A 
ATOM     13  C   UNL     1     113.862 128.133 140.283  0.00  0.00    +0.000 A 
ATOM     14  C   UNL     1     113.973 127.322 140.543  0.00  0.00    +0.000 A 
BRANCH   7  17
ATOM     15  O   UNL     1     113.411 124.322 136.176  0.00  0.00    +0.000 OA
ATOM     16  O   UNL     1     111.822 123.879 136.127  0.00  0.00    +0.000 OA
ATOM     17  C   UNL     1     112.541 125.754 137.575  0.00  0.00    +0.000 A 
ATOM     18  C   UNL     1     113.095 125.351 137.117  0.00  0.00    +0.000 A 
ATOM     19  C   UNL     1     111.746 125.533 137.550  0.00  0.00    +0.000 A 
ATOM     20  C   UNL     1     112.857 124.726 136.634  0.00  0.00    +0.000 A 
ATOM     21  C   UNL     1     111.507 124.908 137.068  0.00  0.00    +0.000 A 
ATOM     22  C   UNL     1     112.062 124.504 136.609  0.00  0.00    +0.000 A 
ENDBRANCH   7  17
ENDBRANCH   1   6
BRANCH   1  30
ATOM     23  O   UNL     1     113.549 127.660 136.420  0.00  0.00    +0.000 OA
ATOM     24  O   UNL     1     112.330 129.289 135.011  0.00  0.00    +0.000 OA
ATOM     25  O   UNL     1     113.957 129.093 134.825  0.00  0.00    +0.000 OA
ATOM     26  C   UNL     1     112.736 128.746 135.480  0.00  0.00    +0.000 C 
ATOM     27  C   UNL     1     113.549 128.648 135.387  0.00  0.00    +0.000 C 
ATOM     28  C   UNL     1     112.329 128.301 136.042  0.00  0.00    +0.000 C 
ATOM     29  C   UNL     1     113.956 128.105 135.857  0.00  0.00    +0.000 C 
ATOM     30  C   UNL     1     112.735 127.758 136.512  0.00  0.00    +0.000 C 
ATOM     31  C   UNL     1     114.770 128.007 135.764  0.00  0.00    +0.000 C 
BRANCH  28  32
ATOM     32  O   UNL     1     111.515 128.398 136.136  0.00  0.00    +0.000 OA
BRANCH  32  34
ATOM     33  O   UNL     1     111.291 127.727 134.893  0.00  0.00    +0.000 OA
ATOM     34  C   UNL     1     110.998 128.137 135.547  0.00  0.00    +0.000 C 
BRANCH  34  38
ATOM     35  O   UNL     1     108.788 129.935 135.328  0.00  0.00    +0.000 OA
ATOM     36  O   UNL     1     108.356 127.233 136.153  0.00  0.00    +0.000 OA
ATOM     37  O   UNL     1     107.763 128.733 135.805  0.00  0.00    +0.000 OA
ATOM     38  C   UNL     1     110.190 128.285 135.612  0.00  0.00    +0.000 A 
ATOM     39  C   UNL     1     109.677 127.685 135.850  0.00  0.00    +0.000 A 
ATOM     40  C   UNL     1     109.893 129.036 135.437  0.00  0.00    +0.000 A 
ATOM     41  C   UNL     1     109.084 129.185 135.502  0.00  0.00    +0.000 A 
ATOM     42  C   UNL     1     108.868 127.834 135.914  0.00  0.00    +0.000 A 
ATOM     43  C   UNL     1     108.572 128.584 135.740  0.00  0.00    +0.000 A 
ENDBRANCH  34  38
ENDBRANCH  32  34
ENDBRANCH  28  32
ENDBRANCH   1  30
TORSDOF 6
ENDMDL
MODEL 3
REMARK VINA RESULT:     -10.4      1.830      4.401
REMARK  Name = 44259259
REMARK  6 active torsions:
REMARK  status: ('A' for Active; 'I' for Inactive)
REMARK    1  A    between atoms: O_2  and  C_18
REMARK    2  A    between atoms: O_2  and  C_23
REMARK    3  A    between atoms: O_3  and  C_20
REMARK    4  A    between atoms: O_3  and  C_22
REMARK    5  A    between atoms: C_23  and  C_27
REMARK    6  A    between atoms: C_24  and  C_29
REMARK                            x       y       z     vdW  Elec       q    Type
REMARK                         _______ _______ _______ _____ _____    ______ ____
ROOT
ATOM      1  O   UNL     1     112.328 126.844 137.247  0.00  0.00    +0.000 OA
ENDROOT
BRANCH   1   6
ATOM      2  O   UNL     1     114.098 127.484 136.144  0.00  0.00    +0.000 OA
ATOM      3  O   UNL     1     111.861 128.348 136.754  0.00  0.00    +0.000 OA
ATOM      4  O   UNL     1     112.117 129.585 136.057  0.00  0.00    +0.000 OA
ATOM      5  O   UNL     1     114.685 129.954 134.718  0.00  0.00    +0.000 OA
ATOM      6  C   UNL     1     112.840 127.308 136.797  0.00  0.00    +0.000 A 
ATOM      7  C   UNL     1     113.586 127.020 136.594  0.00  0.00    +0.000 A 
ATOM      8  C   UNL     1     112.606 128.060 136.551  0.00  0.00    +0.000 A 
ATOM      9  C   UNL     1     113.119 128.523 136.100  0.00  0.00    +0.000 A 
ATOM     10  C   UNL     1     113.866 128.235 135.897  0.00  0.00    +0.000 A 
ATOM     11  C   UNL     1     112.865 129.305 135.849  0.00  0.00    +0.000 A 
ATOM     12  C   UNL     1     114.408 128.709 135.428  0.00  0.00    +0.000 A 
ATOM     13  C   UNL     1     113.394 129.793 135.380  0.00  0.00    +0.000 A 
ATOM     14  C   UNL     1     114.171 129.493 135.168  0.00  0.00    +0.000 A 
BRANCH   7  17
ATOM     15  O   UNL     1     113.932 124.234 136.057  0.00  0.00    +0.000 OA
ATOM     16  O   UNL     1     114.522 124.014 137.583  0.00  0.00    +0.000 OA
ATOM     17  C   UNL     1     113.819 126.268 136.841  0.00  0.00    +0.000 A 
ATOM     18  C   UNL     1     113.759 125.627 136.326  0.00  0.00    +0.000 A 
ATOM     19  C   UNL     1     114.114 126.158 137.603  0.00  0.00    +0.000 A 
ATOM     20  C   UNL     1     113.992 124.875 136.572  0.00  0.00    +0.000 A 
ATOM     21  C   UNL     1     114.349 125.406 137.851  0.00  0.00    +0.000 A 
ATOM     22  C   UNL     1     114.287 124.765 137.335  0.00  0.00    +0.000 A 
ENDBRANCH   7  17
ENDBRANCH   1   6
BRANCH   1  30
ATOM     23  O   UNL     1     111.492 126.474 136.149  0.00  0.00    +0.000 OA
ATOM     24  O   UNL     1     109.538 126.386 137.666  0.00  0.00    +0.000 OA
ATOM     25  O   UNL     1     109.353 126.045 136.062  0.00  0.00    +0.000 OA
ATOM     26  C   UNL     1     110.189 126.415 137.160  0.00  0.00    +0.000 C 
ATOM     27  C   UNL     1     110.097 126.245 136.359  0.00  0.00    +0.000 C 
ATOM     28  C   UNL     1     110.932 126.615 137.457  0.00  0.00    +0.000 C 
ATOM     29  C   UNL     1     110.748 126.274 135.853  0.00  0.00    +0.000 C 
ATOM     30  C   UNL     1     111.583 126.644 136.951  0.00  0.00    +0.000 C 
ATOM     31  C   UNL     1     110.656 126.104 135.051  0.00  0.00    +0.000 C 
BRANCH  28  32
ATOM     32  O   UNL     1     111.025 126.786 138.259  0.00  0.00    +0.000 OA
BRANCH  32  34
ATOM     33  O   UNL     1     110.927 125.393 138.569  0.00  0.00    +0.000 OA
ATOM     34  C   UNL     1     110.983 126.179 138.816  0.00  0.00    +0.000 C 
BRANCH  34  38
ATOM     35  O   UNL     1     112.440 126.894 141.169  0.00  0.00    +0.000 OA
ATOM     36  O   UNL     1     109.608 126.532 141.297  0.00  0.00    +0.000 OA
ATOM     37  O   UNL     1     111.038 126.891 142.038  0.00  0.00    +0.000 OA
ATOM     38  C   UNL     1     110.996 126.357 139.622  0.00  0.00    +0.000 A 
ATOM     39  C   UNL     1     110.295 126.356 140.056  0.00  0.00    +0.000 A 
ATOM     40  C   UNL     1     111.711 126.537 139.992  0.00  0.00    +0.000 A 
ATOM     41  C   UNL     1     111.724 126.715 140.798  0.00  0.00    +0.000 A 
ATOM     42  C   UNL     1     110.309 126.534 140.862  0.00  0.00    +0.000 A 
ATOM     43  C   UNL     1     111.023 126.713 141.233  0.00  0.00    +0.000 A 
ENDBRANCH  34  38
ENDBRANCH  32  34
ENDBRANCH  28  32
ENDBRANCH   1  30
TORSDOF 6
ENDMDL
MODEL 4
REMARK VINA RESULT:     -10.3      1.909      4.277
REMARK  Name = 44259259
REMARK  6 active torsions:
REMARK  status: ('A' for Active; 'I' for Inactive)
REMARK    1  A    between atoms: O_2  and  C_18
REMARK    2  A    between atoms: O_2  and  C_23
REMARK    3  A    between atoms: O_3  and  C_20
REMARK    4  A    between atoms: O_3  and  C_22
REMARK    5  A    between atoms: C_23  and  C_27
REMARK    6  A    between atoms: C_24  and  C_29
REMARK                            x       y       z     vdW  Elec       q    Type
REMARK                         _______ _______ _______ _____ _____    ______ ____
ROOT
ATOM      1  O   UNL     1     112.040 127.969 137.661  0.00  0.00    +0.000 OA
ENDROOT
BRANCH   1   6
ATOM      2  O   UNL     1     112.567 126.363 136.281  0.00  0.00    +0.000 OA
ATOM      3  O   UNL     1     111.403 126.664 138.443  0.00  0.00    +0.000 OA
ATOM      4  O   UNL     1     111.138 125.248 138.530  0.00  0.00    +0.000 OA
ATOM      5  O   UNL     1     112.068 123.496 136.389  0.00  0.00    +0.000 OA
ATOM      6  C   UNL     1     112.110 127.216 137.331  0.00  0.00    +0.000 A 
ATOM      7  C   UNL     1     112.498 127.116 136.610  0.00  0.00    +0.000 A 
ATOM      8  C   UNL     1     111.791 126.564 137.723  0.00  0.00    +0.000 A 
ATOM      9  C   UNL     1     111.860 125.811 137.393  0.00  0.00    +0.000 A 
ATOM     10  C   UNL     1     112.248 125.710 136.671  0.00  0.00    +0.000 A 
ATOM     11  C   UNL     1     111.524 125.138 137.809  0.00  0.00    +0.000 A 
ATOM     12  C   UNL     1     112.327 124.931 136.318  0.00  0.00    +0.000 A 
ATOM     13  C   UNL     1     111.593 124.352 137.471  0.00  0.00    +0.000 A 
ATOM     14  C   UNL     1     111.997 124.248 136.721  0.00  0.00    +0.000 A 
BRANCH   7  17
ATOM     15  O   UNL     1     112.290 129.150 134.614  0.00  0.00    +0.000 OA
ATOM     16  O   UNL     1     113.776 129.725 135.045  0.00  0.00    +0.000 OA
ATOM     17  C   UNL     1     112.817 127.768 136.219  0.00  0.00    +0.000 A 
ATOM     18  C   UNL     1     112.394 128.133 135.612  0.00  0.00    +0.000 A 
ATOM     19  C   UNL     1     113.559 128.056 136.434  0.00  0.00    +0.000 A 
ATOM     20  C   UNL     1     112.713 128.785 135.220  0.00  0.00    +0.000 A 
ATOM     21  C   UNL     1     113.879 128.708 136.043  0.00  0.00    +0.000 A 
ATOM     22  C   UNL     1     113.456 129.073 135.436  0.00  0.00    +0.000 A 
ENDBRANCH   7  17
ENDBRANCH   1   6
BRANCH   1  30
ATOM     23  O   UNL     1     110.666 128.127 137.301  0.00  0.00    +0.000 OA
ATOM     24  O   UNL     1     110.309 129.553 139.292  0.00  0.00    +0.000 OA
ATOM     25  O   UNL     1     109.054 129.236 138.268  0.00  0.00    +0.000 OA
ATOM     26  C   UNL     1     110.428 129.078 138.628  0.00  0.00    +0.000 C 
ATOM     27  C   UNL     1     109.801 128.919 138.117  0.00  0.00    +0.000 C 
ATOM     28  C   UNL     1     111.174 128.762 138.476  0.00  0.00    +0.000 C 
ATOM     29  C   UNL     1     109.920 128.444 137.453  0.00  0.00    +0.000 C 
ATOM     30  C   UNL     1     111.293 128.286 137.813  0.00  0.00    +0.000 C 
ATOM     31  C   UNL     1     109.293 128.285 136.941  0.00  0.00    +0.000 C 
BRANCH  28  32
ATOM     32  O   UNL     1     111.802 128.920 138.988  0.00  0.00    +0.000 OA
BRANCH  32  34
ATOM     33  O   UNL     1     111.825 130.277 138.538  0.00  0.00    +0.000 OA
ATOM     34  C   UNL     1     112.141 129.672 139.003  0.00  0.00    +0.000 C 
BRANCH  34  38
ATOM     35  O   UNL     1     114.653 130.966 139.431  0.00  0.00    +0.000 OA
ATOM     36  O   UNL     1     113.556 129.271 141.454  0.00  0.00    +0.000 OA
ATOM     37  O   UNL     1     114.759 130.267 140.922  0.00  0.00    +0.000 OA
ATOM     38  C   UNL     1     112.795 129.821 139.484  0.00  0.00    +0.000 A 
ATOM     39  C   UNL     1     112.848 129.471 140.229  0.00  0.00    +0.000 A 
ATOM     40  C   UNL     1     113.397 130.319 139.217  0.00  0.00    +0.000 A 
ATOM     41  C   UNL     1     114.051 130.468 139.698  0.00  0.00    +0.000 A 
ATOM     42  C   UNL     1     113.503 129.620 140.708  0.00  0.00    +0.000 A 
ATOM     43  C   UNL     1     114.104 130.118 140.443  0.00  0.00    +0.000 A 
ENDBRANCH  34  38
ENDBRANCH  32  34
ENDBRANCH  28  32
ENDBRANCH   1  30
TORSDOF 6
ENDMDL
MODEL 5
REMARK VINA RESULT:     -10.3      1.525      4.799
REMARK  Name = 44259259
REMARK  6 active torsions:
REMARK  status: ('A' for Active; 'I' for Inactive)
REMARK    1  A    between atoms: O_2  and  C_18
REMARK    2  A    between atoms: O_2  and  C_23
REMARK    3  A    between atoms: O_3  and  C_20
REMARK    4  A    between atoms: O_3  and  C_22
REMARK    5  A    between atoms: C_23  and  C_27
REMARK    6  A    between atoms: C_24  and  C_29
REMARK                            x       y       z     vdW  Elec       q    Type
REMARK                         _______ _______ _______ _____ _____    ______ ____
ROOT
ATOM      1  O   UNL     1     111.936 128.454 137.038  0.00  0.00    +0.000 OA
ENDROOT
BRANCH   1   6
ATOM      2  O   UNL     1     111.214 129.901 135.573  0.00  0.00    +0.000 OA
ATOM      3  O   UNL     1     110.308 128.372 137.295  0.00  0.00    +0.000 OA
ATOM      4  O   UNL     1     108.959 128.786 136.994  0.00  0.00    +0.000 OA
ATOM      5  O   UNL     1     108.519 130.785 134.912  0.00  0.00    +0.000 OA
ATOM      6  C   UNL     1     111.424 128.923 136.593  0.00  0.00    +0.000 A 
ATOM      7  C   UNL     1     111.726 129.432 136.019  0.00  0.00    +0.000 A 
ATOM      8  C   UNL     1     110.610 128.881 136.721  0.00  0.00    +0.000 A 
ATOM      9  C   UNL     1     110.098 129.350 136.275  0.00  0.00    +0.000 A 
ATOM     10  C   UNL     1     110.400 129.861 135.701  0.00  0.00    +0.000 A 
ATOM     11  C   UNL     1     109.252 129.299 136.417  0.00  0.00    +0.000 A 
ATOM     12  C   UNL     1     109.878 130.354 135.230  0.00  0.00    +0.000 A 
ATOM     13  C   UNL     1     108.714 129.785 135.956  0.00  0.00    +0.000 A 
ATOM     14  C   UNL     1     109.029 130.315 135.359  0.00  0.00    +0.000 A 
BRANCH   7  17
ATOM     15  O   UNL     1     114.235 130.738 136.430  0.00  0.00    +0.000 OA
ATOM     16  O   UNL     1     114.982 129.596 135.503  0.00  0.00    +0.000 OA
ATOM     17  C   UNL     1     112.540 129.474 135.890  0.00  0.00    +0.000 A 
ATOM     18  C   UNL     1     112.981 130.085 136.225  0.00  0.00    +0.000 A 
ATOM     19  C   UNL     1     112.914 128.902 135.427  0.00  0.00    +0.000 A 
ATOM     20  C   UNL     1     113.795 130.127 136.096  0.00  0.00    +0.000 A 
ATOM     21  C   UNL     1     113.727 128.943 135.297  0.00  0.00    +0.000 A 
ATOM     22  C   UNL     1     114.168 129.555 135.632  0.00  0.00    +0.000 A 
ENDBRANCH   7  17
ENDBRANCH   1   6
BRANCH   1  30
ATOM     23  O   UNL     1     111.838 129.252 138.220  0.00  0.00    +0.000 OA
ATOM     24  O   UNL     1     112.161 127.230 139.611  0.00  0.00    +0.000 OA
ATOM     25  O   UNL     1     111.955 128.702 140.329  0.00  0.00    +0.000 OA
ATOM     26  C   UNL     1     112.053 127.904 139.148  0.00  0.00    +0.000 C 
ATOM     27  C   UNL     1     111.951 128.639 139.506  0.00  0.00    +0.000 C 
ATOM     28  C   UNL     1     112.049 127.842 138.326  0.00  0.00    +0.000 C 
ATOM     29  C   UNL     1     111.843 129.313 139.043  0.00  0.00    +0.000 C 
ATOM     30  C   UNL     1     111.941 128.516 137.862  0.00  0.00    +0.000 C 
ATOM     31  C   UNL     1     111.740 130.049 139.402  0.00  0.00    +0.000 C 
BRANCH  28  32
ATOM     32  O   UNL     1     112.151 127.106 137.966  0.00  0.00    +0.000 OA
BRANCH  32  34
ATOM     33  O   UNL     1     113.519 127.095 138.382  0.00  0.00    +0.000 OA
ATOM     34  C   UNL     1     112.891 126.742 137.978  0.00  0.00    +0.000 C 
BRANCH  34  38
ATOM     35  O   UNL     1     114.535 125.015 136.402  0.00  0.00    +0.000 OA
ATOM     36  O   UNL     1     111.930 124.162 137.210  0.00  0.00    +0.000 OA
ATOM     37  O   UNL     1     113.346 123.871 136.415  0.00  0.00    +0.000 OA
ATOM     38  C   UNL     1     113.004 126.024 137.588  0.00  0.00    +0.000 A 
ATOM     39  C   UNL     1     112.410 125.452 137.594  0.00  0.00    +0.000 A 
ATOM     40  C   UNL     1     113.713 125.878 137.190  0.00  0.00    +0.000 A 
ATOM     41  C   UNL     1     113.826 125.161 136.800  0.00  0.00    +0.000 A 
ATOM     42  C   UNL     1     112.524 124.734 137.203  0.00  0.00    +0.000 A 
ATOM     43  C   UNL     1     113.232 124.589 136.806  0.00  0.00    +0.000 A 
ENDBRANCH  34  38
ENDBRANCH  32  34
ENDBRANCH  28  32
ENDBRANCH   1  30
TORSDOF 6
ENDMDL
MODEL 6
REMARK VINA RESULT:     -10.3      8.727     11.222
REMARK  Name = 44259259
REMARK  6 active torsions:
REMARK  status: ('A' for Active; 'I' for Inactive)
REMARK    1  A    between atoms: O_2  and  C_18
REMARK    2  A    between atoms: O_2  and  C_23
REMARK    3  A    between atoms: O_3  and  C_20
REMARK    4  A    between atoms: O_3  and  C_22
REMARK    5  A    between atoms: C_23  and  C_27
REMARK    6  A    between atoms: C_24  and  C_29
REMARK                            x       y       z     vdW  Elec       q    Type
REMARK                         _______ _______ _______ _____ _____    ______ ____
ROOT
ATOM      1  O   UNL     1     105.777 125.539 145.728  0.00  0.00    +0.000 OA
ENDROOT
BRANCH   1   6
ATOM      2  O   UNL     1     105.854 124.401 147.588  0.00  0.00    +0.000 OA
ATOM      3  O   UNL     1     107.279 125.943 146.280  0.00  0.00    +0.000 OA
ATOM      4  O   UNL     1     108.332 125.849 147.262  0.00  0.00    +0.000 OA
ATOM      5  O   UNL     1     107.935 124.162 149.612  0.00  0.00    +0.000 OA
ATOM      6  C   UNL     1     106.053 125.227 146.440  0.00  0.00    +0.000 A 
ATOM      7  C   UNL     1     105.578 124.713 146.876  0.00  0.00    +0.000 A 
ATOM      8  C   UNL     1     106.804 125.429 146.716  0.00  0.00    +0.000 A 
ATOM      9  C   UNL     1     107.080 125.116 147.428  0.00  0.00    +0.000 A 
ATOM     10  C   UNL     1     106.604 124.602 147.864  0.00  0.00    +0.000 A 
ATOM     11  C   UNL     1     107.864 125.333 147.705  0.00  0.00    +0.000 A 
ATOM     12  C   UNL     1     106.880 124.270 148.607  0.00  0.00    +0.000 A 
ATOM     13  C   UNL     1     108.157 125.012 148.445  0.00  0.00    +0.000 A 
ATOM     14  C   UNL     1     107.662 124.476 148.899  0.00  0.00    +0.000 A 
BRANCH   7  17
ATOM     15  O   UNL     1     102.736 124.985 147.009  0.00  0.00    +0.000 OA
ATOM     16  O   UNL     1     102.575 123.903 145.774  0.00  0.00    +0.000 OA
ATOM     17  C   UNL     1     104.827 124.511 146.601  0.00  0.00    +0.000 A 
ATOM     18  C   UNL     1     104.157 124.849 146.943  0.00  0.00    +0.000 A 
ATOM     19  C   UNL     1     104.746 123.970 145.984  0.00  0.00    +0.000 A 
ATOM     20  C   UNL     1     103.406 124.647 146.668  0.00  0.00    +0.000 A 
ATOM     21  C   UNL     1     103.995 123.767 145.708  0.00  0.00    +0.000 A 
ATOM     22  C   UNL     1     103.325 124.106 146.050  0.00  0.00    +0.000 A 
ENDBRANCH   7  17
ENDBRANCH   1   6
BRANCH   1  30
ATOM     23  O   UNL     1     105.432 126.826 146.245  0.00  0.00    +0.000 OA
ATOM     24  O   UNL     1     106.126 127.870 144.111  0.00  0.00    +0.000 OA
ATOM     25  O   UNL     1     105.550 128.809 145.339  0.00  0.00    +0.000 OA
ATOM     26  C   UNL     1     105.895 127.522 144.822  0.00  0.00    +0.000 C 
ATOM     27  C   UNL     1     105.607 127.991 145.436  0.00  0.00    +0.000 C 
ATOM     28  C   UNL     1     105.951 126.705 144.919  0.00  0.00    +0.000 C 
ATOM     29  C   UNL     1     105.376 127.643 146.148  0.00  0.00    +0.000 C 
ATOM     30  C   UNL     1     105.720 126.357 145.631  0.00  0.00    +0.000 C 
ATOM     31  C   UNL     1     105.088 128.113 146.762  0.00  0.00    +0.000 C 
BRANCH  28  32
ATOM     32  O   UNL     1     106.239 126.235 144.305  0.00  0.00    +0.000 OA
BRANCH  32  34
ATOM     33  O   UNL     1     105.100 126.575 143.512  0.00  0.00    +0.000 OA
ATOM     34  C   UNL     1     105.815 126.173 143.600  0.00  0.00    +0.000 C 
BRANCH  34  38
ATOM     35  O   UNL     1     105.564 123.906 141.878  0.00  0.00    +0.000 OA
ATOM     36  O   UNL     1     107.807 125.657 141.617  0.00  0.00    +0.000 OA
ATOM     37  O   UNL     1     106.976 124.318 141.130  0.00  0.00    +0.000 OA
ATOM     38  C   UNL     1     106.106 125.710 142.983  0.00  0.00    +0.000 A 
ATOM     39  C   UNL     1     106.812 125.916 142.609  0.00  0.00    +0.000 A 
ATOM     40  C   UNL     1     105.690 125.040 142.739  0.00  0.00    +0.000 A 
ATOM     41  C   UNL     1     105.980 124.576 142.122  0.00  0.00    +0.000 A 
ATOM     42  C   UNL     1     107.102 125.451 141.991  0.00  0.00    +0.000 A 
ATOM     43  C   UNL     1     106.686 124.782 141.748  0.00  0.00    +0.000 A 
ENDBRANCH  34  38
ENDBRANCH  32  34
ENDBRANCH  28  32
ENDBRANCH   1  30
TORSDOF 6
ENDMDL
MODEL 7
REMARK VINA RESULT:     -10.3      0.982      4.410
REMARK  Name = 44259259
REMARK  6 active torsions:
REMARK  status: ('A' for Active; 'I' for Inactive)
REMARK    1  A    between atoms: O_2  and  C_18
REMARK    2  A    between atoms: O_2  and  C_23
REMARK    3  A    between atoms: O_3  and  C_20
REMARK    4  A    between atoms: O_3  and  C_22
REMARK    5  A    between atoms: C_23  and  C_27
REMARK    6  A    between atoms: C_24  and  C_29
REMARK                            x       y       z     vdW  Elec       q    Type
REMARK                         _______ _______ _______ _____ _____    ______ ____
ROOT
ATOM      1  O   UNL     1     111.365 127.871 136.680  0.00  0.00    +0.000 OA
ENDROOT
BRANCH   1   6
ATOM      2  O   UNL     1     110.917 129.756 135.676  0.00  0.00    +0.000 OA
ATOM      3  O   UNL     1     109.719 127.898 136.787  0.00  0.00    +0.000 OA
ATOM      4  O   UNL     1     108.446 128.528 136.533  0.00  0.00    +0.000 OA
ATOM      5  O   UNL     1     108.385 131.088 135.130  0.00  0.00    +0.000 OA
ATOM      6  C   UNL     1     110.942 128.504 136.363  0.00  0.00    +0.000 A 
ATOM      7  C   UNL     1     111.341 129.123 135.994  0.00  0.00    +0.000 A 
ATOM      8  C   UNL     1     110.118 128.517 136.417  0.00  0.00    +0.000 A 
ATOM      9  C   UNL     1     109.694 129.150 136.100  0.00  0.00    +0.000 A 
ATOM     10  C   UNL     1     110.094 129.770 135.729  0.00  0.00    +0.000 A 
ATOM     11  C   UNL     1     108.838 129.153 136.161  0.00  0.00    +0.000 A 
ATOM     12  C   UNL     1     109.664 130.434 135.395  0.00  0.00    +0.000 A 
ATOM     13  C   UNL     1     108.390 129.809 135.833  0.00  0.00    +0.000 A 
ATOM     14  C   UNL     1     108.807 130.454 135.448  0.00  0.00    +0.000 A 
BRANCH   7  17
ATOM     15  O   UNL     1     113.906 129.608 137.158  0.00  0.00    +0.000 OA
ATOM     16  O   UNL     1     114.633 129.072 135.777  0.00  0.00    +0.000 OA
ATOM     17  C   UNL     1     112.164 129.111 135.940  0.00  0.00    +0.000 A 
ATOM     18  C   UNL     1     112.623 129.366 136.576  0.00  0.00    +0.000 A 
ATOM     19  C   UNL     1     112.528 128.843 135.250  0.00  0.00    +0.000 A 
ATOM     20  C   UNL     1     113.447 129.353 136.522  0.00  0.00    +0.000 A 
ATOM     21  C   UNL     1     113.351 128.829 135.195  0.00  0.00    +0.000 A 
ATOM     22  C   UNL     1     113.811 129.085 135.832  0.00  0.00    +0.000 A 
ENDBRANCH   7  17
ENDBRANCH   1   6
BRANCH   1  30
ATOM     23  O   UNL     1     110.996 126.957 135.646  0.00  0.00    +0.000 OA
ATOM     24  O   UNL     1     111.142 125.080 137.253  0.00  0.00    +0.000 OA
ATOM     25  O   UNL     1     110.724 124.791 135.683  0.00  0.00    +0.000 OA
ATOM     26  C   UNL     1     111.093 125.706 136.718  0.00  0.00    +0.000 C 
ATOM     27  C   UNL     1     110.884 125.561 135.933  0.00  0.00    +0.000 C 
ATOM     28  C   UNL     1     111.254 126.475 136.967  0.00  0.00    +0.000 C 
ATOM     29  C   UNL     1     110.836 126.187 135.398  0.00  0.00    +0.000 C 
ATOM     30  C   UNL     1     111.205 127.101 136.431  0.00  0.00    +0.000 C 
ATOM     31  C   UNL     1     110.627 126.042 134.612  0.00  0.00    +0.000 C 
BRANCH  28  32
ATOM     32  O   UNL     1     111.463 126.620 137.752  0.00  0.00    +0.000 OA
BRANCH  32  34
ATOM     33  O   UNL     1     112.736 126.011 137.524  0.00  0.00    +0.000 OA
ATOM     34  C   UNL     1     112.199 126.377 138.034  0.00  0.00    +0.000 C 
BRANCH  34  38
ATOM     35  O   UNL     1     114.134 127.083 140.014  0.00  0.00    +0.000 OA
ATOM     36  O   UNL     1     111.471 126.405 140.797  0.00  0.00    +0.000 OA
ATOM     37  O   UNL     1     113.004 126.867 141.196  0.00  0.00    +0.000 OA
ATOM     38  C   UNL     1     112.399 126.499 138.824  0.00  0.00    +0.000 A 
ATOM     39  C   UNL     1     111.834 126.391 139.415  0.00  0.00    +0.000 A 
ATOM     40  C   UNL     1     113.167 126.730 139.024  0.00  0.00    +0.000 A 
ATOM     41  C   UNL     1     113.367 126.852 139.815  0.00  0.00    +0.000 A 
ATOM     42  C   UNL     1     112.036 126.514 140.206  0.00  0.00    +0.000 A 
ATOM     43  C   UNL     1     112.802 126.744 140.406  0.00  0.00    +0.000 A 
ENDBRANCH  34  38
ENDBRANCH  32  34
ENDBRANCH  28  32
ENDBRANCH   1  30
TORSDOF 6
ENDMDL
MODEL 8
REMARK VINA RESULT:     -10.2      2.639      4.022
REMARK  Name = 44259259
REMARK  6 active torsions:
REMARK  status: ('A' for Active; 'I' for Inactive)
REMARK    1  A    between atoms: O_2  and  C_18
REMARK    2  A    between atoms: O_2  and  C_23
REMARK    3  A    between atoms: O_3  and  C_20
REMARK    4  A    between atoms: O_3  and  C_22
REMARK    5  A    between atoms: C_23  and  C_27
REMARK    6  A    between atoms: C_24  and  C_29
REMARK                            x       y       z     vdW  Elec       q    Type
REMARK                         _______ _______ _______ _____ _____    ______ ____
ROOT
ATOM      1  O   UNL     1     110.225 129.786 138.078  0.00  0.00    +0.000 OA
ENDROOT
BRANCH   1   6
ATOM      2  O   UNL     1     111.662 128.149 137.957  0.00  0.00    +0.000 OA
ATOM      3  O   UNL     1     109.293 128.516 138.570  0.00  0.00    +0.000 OA
ATOM      4  O   UNL     1     109.123 127.114 138.868  0.00  0.00    +0.000 OA
ATOM      5  O   UNL     1     111.393 125.308 138.539  0.00  0.00    +0.000 OA
ATOM      6  C   UNL     1     110.549 129.028 138.120  0.00  0.00    +0.000 A 
ATOM      7  C   UNL     1     111.338 128.906 137.915  0.00  0.00    +0.000 A 
ATOM      8  C   UNL     1     110.083 128.394 138.366  0.00  0.00    +0.000 A 
ATOM      9  C   UNL     1     110.407 127.636 138.408  0.00  0.00    +0.000 A 
ATOM     10  C   UNL     1     111.197 127.513 138.203  0.00  0.00    +0.000 A 
ATOM     11  C   UNL     1     109.913 126.983 138.666  0.00  0.00    +0.000 A 
ATOM     12  C   UNL     1     111.546 126.729 138.242  0.00  0.00    +0.000 A 
ATOM     13  C   UNL     1     110.244 126.191 138.711  0.00  0.00    +0.000 A 
ATOM     14  C   UNL     1     111.066 126.064 138.498  0.00  0.00    +0.000 A 
BRANCH   7  17
ATOM     15  O   UNL     1     113.281 130.922 138.490  0.00  0.00    +0.000 OA
ATOM     16  O   UNL     1     113.201 131.444 136.927  0.00  0.00    +0.000 OA
ATOM     17  C   UNL     1     111.804 129.541 137.669  0.00  0.00    +0.000 A 
ATOM     18  C   UNL     1     112.309 129.914 138.203  0.00  0.00    +0.000 A 
ATOM     19  C   UNL     1     111.765 129.802 136.887  0.00  0.00    +0.000 A 
ATOM     20  C   UNL     1     112.776 130.549 137.956  0.00  0.00    +0.000 A 
ATOM     21  C   UNL     1     112.230 130.436 136.640  0.00  0.00    +0.000 A 
ATOM     22  C   UNL     1     112.736 130.810 137.175  0.00  0.00    +0.000 A 
ENDBRANCH   7  17
ENDBRANCH   1   6
BRANCH   1  30
ATOM     23  O   UNL     1     110.236 129.997 139.491  0.00  0.00    +0.000 OA
ATOM     24  O   UNL     1     108.237 131.442 139.292  0.00  0.00    +0.000 OA
ATOM     25  O   UNL     1     108.914 131.171 140.772  0.00  0.00    +0.000 OA
ATOM     26  C   UNL     1     108.903 130.960 139.358  0.00  0.00    +0.000 C 
ATOM     27  C   UNL     1     109.242 130.825 140.098  0.00  0.00    +0.000 C 
ATOM     28  C   UNL     1     109.230 130.614 138.685  0.00  0.00    +0.000 C 
ATOM     29  C   UNL     1     109.908 130.343 140.164  0.00  0.00    +0.000 C 
ATOM     30  C   UNL     1     109.897 130.132 138.752  0.00  0.00    +0.000 C 
ATOM     31  C   UNL     1     110.247 130.207 140.904  0.00  0.00    +0.000 C 
BRANCH  28  32
ATOM     32  O   UNL     1     108.892 130.749 137.945  0.00  0.00    +0.000 OA
BRANCH  32  34
ATOM     33  O   UNL     1     109.341 132.106 137.988  0.00  0.00    +0.000 OA
ATOM     34  C   UNL     1     108.952 131.494 137.594  0.00  0.00    +0.000 C 
BRANCH  34  38
ATOM     35  O   UNL     1     109.178 132.526 134.939  0.00  0.00    +0.000 OA
ATOM     36  O   UNL     1     106.756 131.264 135.780  0.00  0.00    +0.000 OA
ATOM     37  O   UNL     1     107.639 132.028 134.614  0.00  0.00    +0.000 OA
ATOM     38  C   UNL     1     108.623 131.627 136.849  0.00  0.00    +0.000 A 
ATOM     39  C   UNL     1     107.853 131.378 136.687  0.00  0.00    +0.000 A 
ATOM     40  C   UNL     1     109.065 132.010 136.266  0.00  0.00    +0.000 A 
ATOM     41  C   UNL     1     108.736 132.143 135.522  0.00  0.00    +0.000 A 
ATOM     42  C   UNL     1     107.526 131.512 135.942  0.00  0.00    +0.000 A 
ATOM     43  C   UNL     1     107.966 131.894 135.359  0.00  0.00    +0.000 A 
ENDBRANCH  34  38
ENDBRANCH  32  34
ENDBRANCH  28  32
ENDBRANCH   1  30
TORSDOF 6
ENDMDL
MODEL 9
REMARK VINA RESULT:     -10.1      1.803      3.933
REMARK  Name = 44259259
REMARK  6 active torsions:
REMARK  status: ('A' for Active; 'I' for Inactive)
REMARK    1  A    between atoms: O_2  and  C_18
REMARK    2  A    between atoms: O_2  and  C_23
REMARK    3  A    between atoms: O_3  and  C_20
REMARK    4  A    between atoms: O_3  and  C_22
REMARK    5  A    between atoms: C_23  and  C_27
REMARK    6  A    between atoms: C_24  and  C_29
REMARK                            x       y       z     vdW  Elec       q    Type
REMARK                         _______ _______ _______ _____ _____    ______ ____
ROOT
ATOM      1  O   UNL     1     112.008 127.457 137.848  0.00  0.00    +0.000 OA
ENDROOT
BRANCH   1   6
ATOM      2  O   UNL     1     112.401 125.323 138.073  0.00  0.00    +0.000 OA
ATOM      3  O   UNL     1     111.397 126.876 136.430  0.00  0.00    +0.000 OA
ATOM      4  O   UNL     1     111.106 125.784 135.532  0.00  0.00    +0.000 OA
ATOM      5  O   UNL     1     111.846 123.070 136.313  0.00  0.00    +0.000 OA
ATOM      6  C   UNL     1     112.037 126.649 137.687  0.00  0.00    +0.000 A 
ATOM      7  C   UNL     1     112.372 126.132 138.234  0.00  0.00    +0.000 A 
ATOM      8  C   UNL     1     111.731 126.359 136.977  0.00  0.00    +0.000 A 
ATOM      9  C   UNL     1     111.761 125.550 136.816  0.00  0.00    +0.000 A 
ATOM     10  C   UNL     1     112.096 125.032 137.365  0.00  0.00    +0.000 A 
ATOM     11  C   UNL     1     111.439 125.259 136.075  0.00  0.00    +0.000 A 
ATOM     12  C   UNL     1     112.132 124.188 137.208  0.00  0.00    +0.000 A 
ATOM     13  C   UNL     1     111.467 124.418 135.901  0.00  0.00    +0.000 A 
ATOM     14  C   UNL     1     111.815 123.879 136.472  0.00  0.00    +0.000 A 
BRANCH   7  17
ATOM     15  O   UNL     1     111.985 126.965 140.941  0.00  0.00    +0.000 OA
ATOM     16  O   UNL     1     113.597 127.292 141.070  0.00  0.00    +0.000 OA
ATOM     17  C   UNL     1     112.677 126.422 138.944  0.00  0.00    +0.000 A 
ATOM     18  C   UNL     1     112.178 126.548 139.588  0.00  0.00    +0.000 A 
ATOM     19  C   UNL     1     113.483 126.585 139.009  0.00  0.00    +0.000 A 
ATOM     20  C   UNL     1     112.484 126.839 140.297  0.00  0.00    +0.000 A 
ATOM     21  C   UNL     1     113.790 126.875 139.717  0.00  0.00    +0.000 A 
ATOM     22  C   UNL     1     113.290 127.002 140.362  0.00  0.00    +0.000 A 
ENDBRANCH   7  17
ENDBRANCH   1   6
BRANCH   1  30
ATOM     23  O   UNL     1     113.060 127.806 136.946  0.00  0.00    +0.000 OA
ATOM     24  O   UNL     1     111.968 129.985 136.514  0.00  0.00    +0.000 OA
ATOM     25  O   UNL     1     113.385 129.607 135.757  0.00  0.00    +0.000 OA
ATOM     26  C   UNL     1     112.332 129.258 136.658  0.00  0.00    +0.000 C 
ATOM     27  C   UNL     1     113.040 129.070 136.280  0.00  0.00    +0.000 C 
ATOM     28  C   UNL     1     111.988 128.722 137.180  0.00  0.00    +0.000 C 
ATOM     29  C   UNL     1     113.404 128.344 136.424  0.00  0.00    +0.000 C 
ATOM     30  C   UNL     1     112.352 127.995 137.325  0.00  0.00    +0.000 C 
ATOM     31  C   UNL     1     114.113 128.155 136.045  0.00  0.00    +0.000 C 
BRANCH  28  32
ATOM     32  O   UNL     1     111.279 128.910 137.559  0.00  0.00    +0.000 OA
BRANCH  32  34
ATOM     33  O   UNL     1     111.974 129.841 138.392  0.00  0.00    +0.000 OA
ATOM     34  C   UNL     1     111.273 129.469 138.166  0.00  0.00    +0.000 C 
BRANCH  34  38
ATOM     35  O   UNL     1     109.776 129.805 140.577  0.00  0.00    +0.000 OA
ATOM     36  O   UNL     1     108.527 130.254 138.046  0.00  0.00    +0.000 OA
ATOM     37  O   UNL     1     108.444 130.217 139.693  0.00  0.00    +0.000 OA
ATOM     38  C   UNL     1     110.565 129.656 138.547  0.00  0.00    +0.000 A 
ATOM     39  C   UNL     1     109.900 129.862 138.105  0.00  0.00    +0.000 A 
ATOM     40  C   UNL     1     110.524 129.637 139.371  0.00  0.00    +0.000 A 
ATOM     41  C   UNL     1     109.817 129.824 139.753  0.00  0.00    +0.000 A 
ATOM     42  C   UNL     1     109.193 130.049 138.487  0.00  0.00    +0.000 A 
ATOM     43  C   UNL     1     109.151 130.030 139.311  0.00  0.00    +0.000 A 
ENDBRANCH  34  38
ENDBRANCH  32  34
ENDBRANCH  28  32
ENDBRANCH   1  30
TORSDOF 6
ENDMDL
MODEL 10
REMARK VINA RESULT:     -10.1      1.540      4.936
REMARK  Name = 44259259
REMARK  6 active torsions:
REMARK  status: ('A' for Active; 'I' for Inactive)
REMARK    1  A    between atoms: O_2  and  C_18
REMARK    2  A    between atoms: O_2  and  C_23
REMARK    3  A    between atoms: O_3  and  C_20
REMARK    4  A    between atoms: O_3  and  C_22
REMARK    5  A    between atoms: C_23  and  C_27
REMARK    6  A    between atoms: C_24  and  C_29
REMARK                            x       y       z     vdW  Elec       q    Type
REMARK                         _______ _______ _______ _____ _____    ______ ____
ROOT
ATOM      1  O   UNL     1     112.513 127.439 137.365  0.00  0.00    +0.000 OA
ENDROOT
BRANCH   1   6
ATOM      2  O   UNL     1     111.736 125.784 136.173  0.00  0.00    +0.000 OA
ATOM      3  O   UNL     1     111.098 128.087 136.816  0.00  0.00    +0.000 OA
ATOM      4  O   UNL     1     109.877 127.993 136.053  0.00  0.00    +0.000 OA
ATOM      5  O   UNL     1     109.291 125.522 134.612  0.00  0.00    +0.000 OA
ATOM      6  C   UNL     1     112.018 126.995 136.876  0.00  0.00    +0.000 A 
ATOM      7  C   UNL     1     112.230 126.228 136.662  0.00  0.00    +0.000 A 
ATOM      8  C   UNL     1     111.311 127.320 136.602  0.00  0.00    +0.000 A 
ATOM      9  C   UNL     1     110.816 126.876 136.113  0.00  0.00    +0.000 A 
ATOM     10  C   UNL     1     111.028 126.108 135.898  0.00  0.00    +0.000 A 
ATOM     11  C   UNL     1     110.082 127.224 135.833  0.00  0.00    +0.000 A 
ATOM     12  C   UNL     1     110.522 125.636 135.390  0.00  0.00    +0.000 A 
ATOM     13  C   UNL     1     109.562 126.768 135.324  0.00  0.00    +0.000 A 
ATOM     14  C   UNL     1     109.784 125.968 135.101  0.00  0.00    +0.000 A 
BRANCH   7  17
ATOM     15  O   UNL     1     114.952 125.482 136.211  0.00  0.00    +0.000 OA
ATOM     16  O   UNL     1     115.058 124.928 137.762  0.00  0.00    +0.000 OA
ATOM     17  C   UNL     1     112.938 125.903 136.937  0.00  0.00    +0.000 A 
ATOM     18  C   UNL     1     113.591 125.855 136.437  0.00  0.00    +0.000 A 
ATOM     19  C   UNL     1     112.990 125.626 137.712  0.00  0.00    +0.000 A 
ATOM     20  C   UNL     1     114.298 125.530 136.711  0.00  0.00    +0.000 A 
ATOM     21  C   UNL     1     113.697 125.301 137.987  0.00  0.00    +0.000 A 
ATOM     22  C   UNL     1     114.351 125.253 137.486  0.00  0.00    +0.000 A 
ENDBRANCH   7  17
ENDBRANCH   1   6
BRANCH   1  30
ATOM     23  O   UNL     1     113.043 128.255 136.320  0.00  0.00    +0.000 OA
ATOM     24  O   UNL     1     113.221 130.156 137.895  0.00  0.00    +0.000 OA
ATOM     25  O   UNL     1     113.693 130.339 136.324  0.00  0.00    +0.000 OA
ATOM     26  C   UNL     1     113.162 129.522 137.370  0.00  0.00    +0.000 C 
ATOM     27  C   UNL     1     113.398 129.614 136.585  0.00  0.00    +0.000 C 
ATOM     28  C   UNL     1     112.867 128.798 137.630  0.00  0.00    +0.000 C 
ATOM     29  C   UNL     1     113.338 128.980 136.060  0.00  0.00    +0.000 C 
ATOM     30  C   UNL     1     112.808 128.164 137.105  0.00  0.00    +0.000 C 
ATOM     31  C   UNL     1     113.574 129.072 135.274  0.00  0.00    +0.000 C 
BRANCH  28  32
ATOM     32  O   UNL     1     112.631 128.706 138.415  0.00  0.00    +0.000 OA
BRANCH  32  34
ATOM     33  O   UNL     1     113.983 128.884 138.845  0.00  0.00    +0.000 OA
ATOM     34  C   UNL     1     113.195 128.708 139.018  0.00  0.00    +0.000 C 
BRANCH  34  38
ATOM     35  O   UNL     1     111.468 129.147 141.252  0.00  0.00    +0.000 OA
ATOM     36  O   UNL     1     113.581 127.231 141.434  0.00  0.00    +0.000 OA
ATOM     37  O   UNL     1     112.301 128.016 142.118  0.00  0.00    +0.000 OA
ATOM     38  C   UNL     1     112.972 128.535 139.793  0.00  0.00    +0.000 A 
ATOM     39  C   UNL     1     113.388 127.969 140.226  0.00  0.00    +0.000 A 
ATOM     40  C   UNL     1     112.332 128.928 140.135  0.00  0.00    +0.000 A 
ATOM     41  C   UNL     1     112.109 128.754 140.910  0.00  0.00    +0.000 A 
ATOM     42  C   UNL     1     113.164 127.796 141.001  0.00  0.00    +0.000 A 
ATOM     43  C   UNL     1     112.525 128.188 141.343  0.00  0.00    +0.000 A 
ENDBRANCH  34  38
ENDBRANCH  32  34
ENDBRANCH  28  32
ENDBRANCH   1  30
TORSDOF 6
ENDMDL
