MODEL 1
REMARK VINA RESULT:      -7.9      0.000      0.000
REMARK  Name = null
REMARK  3 active torsions:
REMARK  status: ('A' for Active; 'I' for Inactive)
REMARK    1  A    between atoms: O_2  and  C_3
REMARK    2  A    between atoms: C_10  and  C_14
REMARK    3  A    between atoms: C_19  and  O_20
REMARK                            x       y       z     vdW  Elec       q    Type
REMARK                         _______ _______ _______ _____ _____    ______ ____
ROOT
ATOM      1  C   UNL     1     104.183 128.446 141.522  0.00  0.00    +0.000 A 
ATOM      2  C   UNL     1     103.656 128.755 140.967  0.00  0.00    +0.000 A 
ATOM      3  C   UNL     1     103.216 129.430 141.145  0.00  0.00    +0.000 A 
ATOM      4  C   UNL     1     103.303 129.798 141.879  0.00  0.00    +0.000 A 
ATOM      5  C   UNL     1     103.830 129.489 142.435  0.00  0.00    +0.000 A 
ATOM      6  C   UNL     1     104.270 128.814 142.257  0.00  0.00    +0.000 A 
ATOM      7  O   UNL     1     102.864 130.472 142.057  0.00  0.00    +0.000 OA
ATOM      8  C   UNL     1     102.338 130.780 141.502  0.00  0.00    +0.000 A 
ATOM      9  C   UNL     1     102.251 130.413 140.767  0.00  0.00    +0.000 A 
ATOM     10  C   UNL     1     102.691 129.738 140.590  0.00  0.00    +0.000 A 
ATOM     11  O   UNL     1     102.604 129.371 139.856  0.00  0.00    +0.000 OA
ENDROOT
BRANCH   8  12
ATOM     12  C   UNL     1     101.898 131.455 141.679  0.00  0.00    +0.000 A 
ATOM     13  C   UNL     1     101.151 131.382 142.022  0.00  0.00    +0.000 A 
ATOM     14  C   UNL     1     100.710 132.056 142.200  0.00  0.00    +0.000 A 
ATOM     15  C   UNL     1     101.018 132.805 142.035  0.00  0.00    +0.000 A 
ATOM     16  C   UNL     1     101.765 132.878 141.693  0.00  0.00    +0.000 A 
ATOM     17  C   UNL     1     102.204 132.203 141.515  0.00  0.00    +0.000 A 
BRANCH  17  18
ATOM     18  O   UNL     1     102.952 132.276 141.172  0.00  0.00    +0.000 OA
ATOM     19  C   UNL     1     103.261 133.024 141.013  0.00  0.00    +0.000 C 
ENDBRANCH  17  18
ENDBRANCH   8  12
BRANCH   1  21
ATOM     20  C   UNL     1     105.221 127.523 141.854  0.00  0.00    +0.000 C 
ATOM     21  O   UNL     1     104.622 127.772 141.345  0.00  0.00    +0.000 OA
ENDBRANCH   1  21
TORSDOF 3
ENDMDL
MODEL 2
REMARK VINA RESULT:      -7.6      9.180     11.592
REMARK  Name = null
REMARK  3 active torsions:
REMARK  status: ('A' for Active; 'I' for Inactive)
REMARK    1  A    between atoms: O_2  and  C_3
REMARK    2  A    between atoms: C_10  and  C_14
REMARK    3  A    between atoms: C_19  and  O_20
REMARK                            x       y       z     vdW  Elec       q    Type
REMARK                         _______ _______ _______ _____ _____    ______ ____
ROOT
ATOM      1  C   UNL     1     113.964 124.767 136.942  0.00  0.00    +0.000 A 
ATOM      2  C   UNL     1     113.277 124.319 136.855  0.00  0.00    +0.000 A 
ATOM      3  C   UNL     1     112.587 124.669 136.568  0.00  0.00    +0.000 A 
ATOM      4  C   UNL     1     112.585 125.470 136.367  0.00  0.00    +0.000 A 
ATOM      5  C   UNL     1     113.272 125.919 136.454  0.00  0.00    +0.000 A 
ATOM      6  C   UNL     1     113.962 125.569 136.740  0.00  0.00    +0.000 A 
ATOM      7  O   UNL     1     111.896 125.821 136.080  0.00  0.00    +0.000 OA
ATOM      8  C   UNL     1     111.210 125.372 135.994  0.00  0.00    +0.000 A 
ATOM      9  C   UNL     1     111.213 124.571 136.195  0.00  0.00    +0.000 A 
ATOM     10  C   UNL     1     111.901 124.221 136.482  0.00  0.00    +0.000 A 
ATOM     11  O   UNL     1     111.904 123.421 136.683  0.00  0.00    +0.000 OA
ENDROOT
BRANCH   8  12
ATOM     12  C   UNL     1     110.520 125.723 135.707  0.00  0.00    +0.000 A 
ATOM     13  C   UNL     1     110.350 125.698 134.900  0.00  0.00    +0.000 A 
ATOM     14  C   UNL     1     109.661 126.048 134.612  0.00  0.00    +0.000 A 
ATOM     15  C   UNL     1     109.141 126.423 135.132  0.00  0.00    +0.000 A 
ATOM     16  C   UNL     1     109.311 126.448 135.939  0.00  0.00    +0.000 A 
ATOM     17  C   UNL     1     110.001 126.098 136.226  0.00  0.00    +0.000 A 
BRANCH  17  18
ATOM     18  O   UNL     1     110.171 126.123 137.034  0.00  0.00    +0.000 OA
ATOM     19  C   UNL     1     109.655 126.505 137.552  0.00  0.00    +0.000 C 
ENDBRANCH  17  18
ENDBRANCH   8  12
BRANCH   1  21
ATOM     20  C   UNL     1     115.002 124.698 137.921  0.00  0.00    +0.000 C 
ATOM     21  O   UNL     1     114.653 124.417 137.228  0.00  0.00    +0.000 OA
ENDBRANCH   1  21
TORSDOF 3
ENDMDL
MODEL 3
REMARK VINA RESULT:      -7.5      8.183      9.315
REMARK  Name = null
REMARK  3 active torsions:
REMARK  status: ('A' for Active; 'I' for Inactive)
REMARK    1  A    between atoms: O_2  and  C_3
REMARK    2  A    between atoms: C_10  and  C_14
REMARK    3  A    between atoms: C_19  and  O_20
REMARK                            x       y       z     vdW  Elec       q    Type
REMARK                         _______ _______ _______ _____ _____    ______ ____
ROOT
ATOM      1  C   UNL     1     103.064 124.259 146.588  0.00  0.00    +0.000 A 
ATOM      2  C   UNL     1     103.292 124.727 147.228  0.00  0.00    +0.000 A 
ATOM      3  C   UNL     1     104.076 124.725 147.484  0.00  0.00    +0.000 A 
ATOM      4  C   UNL     1     104.635 124.254 147.099  0.00  0.00    +0.000 A 
ATOM      5  C   UNL     1     104.407 123.786 146.458  0.00  0.00    +0.000 A 
ATOM      6  C   UNL     1     103.623 123.789 146.202  0.00  0.00    +0.000 A 
ATOM      7  O   UNL     1     105.418 124.251 147.354  0.00  0.00    +0.000 OA
ATOM      8  C   UNL     1     105.645 124.719 147.994  0.00  0.00    +0.000 A 
ATOM      9  C   UNL     1     105.087 125.189 148.380  0.00  0.00    +0.000 A 
ATOM     10  C   UNL     1     104.303 125.192 148.125  0.00  0.00    +0.000 A 
ATOM     11  O   UNL     1     103.745 125.662 148.510  0.00  0.00    +0.000 OA
ENDROOT
BRANCH   8  12
ATOM     12  C   UNL     1     106.430 124.716 148.250  0.00  0.00    +0.000 A 
ATOM     13  C   UNL     1     106.653 124.245 148.889  0.00  0.00    +0.000 A 
ATOM     14  C   UNL     1     107.437 124.242 149.146  0.00  0.00    +0.000 A 
ATOM     15  C   UNL     1     107.998 124.711 148.763  0.00  0.00    +0.000 A 
ATOM     16  C   UNL     1     107.775 125.183 148.124  0.00  0.00    +0.000 A 
ATOM     17  C   UNL     1     106.990 125.185 147.868  0.00  0.00    +0.000 A 
BRANCH  17  18
ATOM     18  O   UNL     1     106.766 125.657 147.228  0.00  0.00    +0.000 OA
ATOM     19  C   UNL     1     107.306 126.184 146.897  0.00  0.00    +0.000 C 
ENDBRANCH  17  18
ENDBRANCH   8  12
BRANCH   1  21
ATOM     20  C   UNL     1     101.873 123.551 146.243  0.00  0.00    +0.000 C 
ATOM     21  O   UNL     1     102.281 124.262 146.332  0.00  0.00    +0.000 OA
ENDBRANCH   1  21
TORSDOF 3
ENDMDL
MODEL 4
REMARK VINA RESULT:      -7.5      6.099      8.919
REMARK  Name = null
REMARK  3 active torsions:
REMARK  status: ('A' for Active; 'I' for Inactive)
REMARK    1  A    between atoms: O_2  and  C_3
REMARK    2  A    between atoms: C_10  and  C_14
REMARK    3  A    between atoms: C_19  and  O_20
REMARK                            x       y       z     vdW  Elec       q    Type
REMARK                         _______ _______ _______ _____ _____    ______ ____
ROOT
ATOM      1  C   UNL     1     105.854 125.973 144.661  0.00  0.00    +0.000 A 
ATOM      2  C   UNL     1     106.129 126.438 145.285  0.00  0.00    +0.000 A 
ATOM      3  C   UNL     1     106.370 126.084 145.990  0.00  0.00    +0.000 A 
ATOM      4  C   UNL     1     106.334 125.262 146.072  0.00  0.00    +0.000 A 
ATOM      5  C   UNL     1     106.059 124.798 145.448  0.00  0.00    +0.000 A 
ATOM      6  C   UNL     1     105.819 125.152 144.743  0.00  0.00    +0.000 A 
ATOM      7  O   UNL     1     106.574 124.908 146.777  0.00  0.00    +0.000 OA
ATOM      8  C   UNL     1     106.849 125.373 147.400  0.00  0.00    +0.000 A 
ATOM      9  C   UNL     1     106.885 126.194 147.318  0.00  0.00    +0.000 A 
ATOM     10  C   UNL     1     106.645 126.548 146.613  0.00  0.00    +0.000 A 
ATOM     11  O   UNL     1     106.680 127.369 146.531  0.00  0.00    +0.000 OA
ENDROOT
BRANCH   8  12
ATOM     12  C   UNL     1     107.090 125.019 148.105  0.00  0.00    +0.000 A 
ATOM     13  C   UNL     1     107.888 124.854 148.232  0.00  0.00    +0.000 A 
ATOM     14  C   UNL     1     108.129 124.499 148.937  0.00  0.00    +0.000 A 
ATOM     15  C   UNL     1     107.571 124.310 149.515  0.00  0.00    +0.000 A 
ATOM     16  C   UNL     1     106.773 124.475 149.388  0.00  0.00    +0.000 A 
ATOM     17  C   UNL     1     106.533 124.829 148.683  0.00  0.00    +0.000 A 
BRANCH  17  18
ATOM     18  O   UNL     1     105.733 124.995 148.555  0.00  0.00    +0.000 OA
ATOM     19  C   UNL     1     105.177 124.810 149.135  0.00  0.00    +0.000 C 
ENDBRANCH  17  18
ENDBRANCH   8  12
BRANCH   1  21
ATOM     20  C   UNL     1     106.036 126.191 143.262  0.00  0.00    +0.000 C 
ATOM     21  O   UNL     1     105.614 126.327 143.956  0.00  0.00    +0.000 OA
ENDBRANCH   1  21
TORSDOF 3
ENDMDL
MODEL 5
REMARK VINA RESULT:      -7.5      9.917     12.015
REMARK  Name = null
REMARK  3 active torsions:
REMARK  status: ('A' for Active; 'I' for Inactive)
REMARK    1  A    between atoms: O_2  and  C_3
REMARK    2  A    between atoms: C_10  and  C_14
REMARK    3  A    between atoms: C_19  and  O_20
REMARK                            x       y       z     vdW  Elec       q    Type
REMARK                         _______ _______ _______ _____ _____    ______ ____
ROOT
ATOM      1  C   UNL     1     112.739 127.265 141.040  0.00  0.00    +0.000 A 
ATOM      2  C   UNL     1     112.330 126.838 140.464  0.00  0.00    +0.000 A 
ATOM      3  C   UNL     1     112.722 126.577 139.786  0.00  0.00    +0.000 A 
ATOM      4  C   UNL     1     113.524 126.745 139.684  0.00  0.00    +0.000 A 
ATOM      5  C   UNL     1     113.933 127.172 140.259  0.00  0.00    +0.000 A 
ATOM      6  C   UNL     1     113.541 127.432 140.937  0.00  0.00    +0.000 A 
ATOM      7  O   UNL     1     113.916 126.485 139.006  0.00  0.00    +0.000 OA
ATOM      8  C   UNL     1     113.507 126.058 138.431  0.00  0.00    +0.000 A 
ATOM      9  C   UNL     1     112.705 125.891 138.534  0.00  0.00    +0.000 A 
ATOM     10  C   UNL     1     112.313 126.151 139.211  0.00  0.00    +0.000 A 
ATOM     11  O   UNL     1     111.512 125.984 139.314  0.00  0.00    +0.000 OA
ENDROOT
BRANCH   8  12
ATOM     12  C   UNL     1     113.899 125.798 137.753  0.00  0.00    +0.000 A 
ATOM     13  C   UNL     1     114.291 125.072 137.757  0.00  0.00    +0.000 A 
ATOM     14  C   UNL     1     114.682 124.811 137.080  0.00  0.00    +0.000 A 
ATOM     15  C   UNL     1     114.682 125.276 136.398  0.00  0.00    +0.000 A 
ATOM     16  C   UNL     1     114.290 126.002 136.394  0.00  0.00    +0.000 A 
ATOM     17  C   UNL     1     113.899 126.263 137.072  0.00  0.00    +0.000 A 
BRANCH  17  18
ATOM     18  O   UNL     1     113.506 126.989 137.069  0.00  0.00    +0.000 OA
ATOM     19  C   UNL     1     113.520 127.462 136.393  0.00  0.00    +0.000 C 
ENDBRANCH  17  18
ENDBRANCH   8  12
BRANCH   1  21
ATOM     20  C   UNL     1     112.309 128.330 141.888  0.00  0.00    +0.000 C 
ATOM     21  O   UNL     1     112.348 127.525 141.717  0.00  0.00    +0.000 OA
ENDBRANCH   1  21
TORSDOF 3
ENDMDL
MODEL 6
REMARK VINA RESULT:      -7.3     11.205     12.575
REMARK  Name = null
REMARK  3 active torsions:
REMARK  status: ('A' for Active; 'I' for Inactive)
REMARK    1  A    between atoms: O_2  and  C_3
REMARK    2  A    between atoms: C_10  and  C_14
REMARK    3  A    between atoms: C_19  and  O_20
REMARK                            x       y       z     vdW  Elec       q    Type
REMARK                         _______ _______ _______ _____ _____    ______ ____
ROOT
ATOM      1  C   UNL     1     113.363 129.612 136.469  0.00  0.00    +0.000 A 
ATOM      2  C   UNL     1     113.128 129.141 137.105  0.00  0.00    +0.000 A 
ATOM      3  C   UNL     1     113.243 128.324 137.080  0.00  0.00    +0.000 A 
ATOM      4  C   UNL     1     113.594 127.977 136.418  0.00  0.00    +0.000 A 
ATOM      5  C   UNL     1     113.829 128.448 135.782  0.00  0.00    +0.000 A 
ATOM      6  C   UNL     1     113.714 129.264 135.807  0.00  0.00    +0.000 A 
ATOM      7  O   UNL     1     113.710 127.161 136.393  0.00  0.00    +0.000 OA
ATOM      8  C   UNL     1     113.475 126.692 137.029  0.00  0.00    +0.000 A 
ATOM      9  C   UNL     1     113.123 127.039 137.691  0.00  0.00    +0.000 A 
ATOM     10  C   UNL     1     113.008 127.855 137.716  0.00  0.00    +0.000 A 
ATOM     11  O   UNL     1     112.657 128.202 138.377  0.00  0.00    +0.000 OA
ENDROOT
BRANCH   8  12
ATOM     12  C   UNL     1     113.590 125.875 137.004  0.00  0.00    +0.000 A 
ATOM     13  C   UNL     1     114.289 125.549 137.297  0.00  0.00    +0.000 A 
ATOM     14  C   UNL     1     114.405 124.733 137.273  0.00  0.00    +0.000 A 
ATOM     15  C   UNL     1     113.822 124.242 136.955  0.00  0.00    +0.000 A 
ATOM     16  C   UNL     1     113.123 124.569 136.663  0.00  0.00    +0.000 A 
ATOM     17  C   UNL     1     113.008 125.385 136.687  0.00  0.00    +0.000 A 
BRANCH  17  18
ATOM     18  O   UNL     1     112.308 125.712 136.394  0.00  0.00    +0.000 OA
ATOM     19  C   UNL     1     111.718 125.221 136.094  0.00  0.00    +0.000 C 
ENDBRANCH  17  18
ENDBRANCH   8  12
BRANCH   1  21
ATOM     20  C   UNL     1     113.896 130.936 136.500  0.00  0.00    +0.000 C 
ATOM     21  O   UNL     1     113.247 130.427 136.494  0.00  0.00    +0.000 OA
ENDBRANCH   1  21
TORSDOF 3
ENDMDL
MODEL 7
REMARK VINA RESULT:      -7.3     10.312     12.413
REMARK  Name = null
REMARK  3 active torsions:
REMARK  status: ('A' for Active; 'I' for Inactive)
REMARK    1  A    between atoms: O_2  and  C_3
REMARK    2  A    between atoms: C_10  and  C_14
REMARK    3  A    between atoms: C_19  and  O_20
REMARK                            x       y       z     vdW  Elec       q    Type
REMARK                         _______ _______ _______ _____ _____    ______ ____
ROOT
ATOM      1  C   UNL     1     111.499 128.753 135.285  0.00  0.00    +0.000 A 
ATOM      2  C   UNL     1     112.283 128.821 135.531  0.00  0.00    +0.000 A 
ATOM      3  C   UNL     1     112.674 128.170 135.854  0.00  0.00    +0.000 A 
ATOM      4  C   UNL     1     112.279 127.448 135.930  0.00  0.00    +0.000 A 
ATOM      5  C   UNL     1     111.494 127.380 135.684  0.00  0.00    +0.000 A 
ATOM      6  C   UNL     1     111.104 128.032 135.361  0.00  0.00    +0.000 A 
ATOM      7  O   UNL     1     112.669 126.797 136.252  0.00  0.00    +0.000 OA
ATOM      8  C   UNL     1     113.453 126.865 136.498  0.00  0.00    +0.000 A 
ATOM      9  C   UNL     1     113.848 127.587 136.421  0.00  0.00    +0.000 A 
ATOM     10  C   UNL     1     113.458 128.238 136.100  0.00  0.00    +0.000 A 
ATOM     11  O   UNL     1     113.852 128.959 136.024  0.00  0.00    +0.000 OA
ENDROOT
BRANCH   8  12
ATOM     12  C   UNL     1     113.843 126.214 136.820  0.00  0.00    +0.000 A 
ATOM     13  C   UNL     1     114.289 125.719 136.333  0.00  0.00    +0.000 A 
ATOM     14  C   UNL     1     114.680 125.067 136.654  0.00  0.00    +0.000 A 
ATOM     15  C   UNL     1     114.625 124.911 137.463  0.00  0.00    +0.000 A 
ATOM     16  C   UNL     1     114.179 125.406 137.950  0.00  0.00    +0.000 A 
ATOM     17  C   UNL     1     113.788 126.057 137.627  0.00  0.00    +0.000 A 
BRANCH  17  18
ATOM     18  O   UNL     1     113.342 126.553 138.115  0.00  0.00    +0.000 OA
ATOM     19  C   UNL     1     113.282 126.393 138.921  0.00  0.00    +0.000 C 
ENDBRANCH  17  18
ENDBRANCH   8  12
BRANCH   1  21
ATOM     20  C   UNL     1     110.287 129.405 134.903  0.00  0.00    +0.000 C 
ATOM     21  O   UNL     1     111.109 129.404 134.963  0.00  0.00    +0.000 OA
ENDBRANCH   1  21
TORSDOF 3
ENDMDL
MODEL 8
REMARK VINA RESULT:      -7.1     10.833     12.260
REMARK  Name = null
REMARK  3 active torsions:
REMARK  status: ('A' for Active; 'I' for Inactive)
REMARK    1  A    between atoms: O_2  and  C_3
REMARK    2  A    between atoms: C_10  and  C_14
REMARK    3  A    between atoms: C_19  and  O_20
REMARK                            x       y       z     vdW  Elec       q    Type
REMARK                         _______ _______ _______ _____ _____    ______ ____
ROOT
ATOM      1  C   UNL     1     112.605 124.019 136.782  0.00  0.00    +0.000 A 
ATOM      2  C   UNL     1     113.299 124.417 136.984  0.00  0.00    +0.000 A 
ATOM      3  C   UNL     1     113.364 125.229 136.852  0.00  0.00    +0.000 A 
ATOM      4  C   UNL     1     112.733 125.644 136.518  0.00  0.00    +0.000 A 
ATOM      5  C   UNL     1     112.039 125.247 136.316  0.00  0.00    +0.000 A 
ATOM      6  C   UNL     1     111.974 124.435 136.448  0.00  0.00    +0.000 A 
ATOM      7  O   UNL     1     112.797 126.456 136.386  0.00  0.00    +0.000 OA
ATOM      8  C   UNL     1     113.491 126.853 136.588  0.00  0.00    +0.000 A 
ATOM      9  C   UNL     1     114.122 126.438 136.922  0.00  0.00    +0.000 A 
ATOM     10  C   UNL     1     114.058 125.626 137.054  0.00  0.00    +0.000 A 
ATOM     11  O   UNL     1     114.688 125.212 137.388  0.00  0.00    +0.000 OA
ENDROOT
BRANCH   8  12
ATOM     12  C   UNL     1     113.555 127.665 136.456  0.00  0.00    +0.000 A 
ATOM     13  C   UNL     1     113.889 127.943 135.755  0.00  0.00    +0.000 A 
ATOM     14  C   UNL     1     113.954 128.754 135.622  0.00  0.00    +0.000 A 
ATOM     15  C   UNL     1     113.685 129.288 136.192  0.00  0.00    +0.000 A 
ATOM     16  C   UNL     1     113.352 129.010 136.893  0.00  0.00    +0.000 A 
ATOM     17  C   UNL     1     113.287 128.198 137.025  0.00  0.00    +0.000 A 
BRANCH  17  18
ATOM     18  O   UNL     1     112.953 127.919 137.727  0.00  0.00    +0.000 OA
ATOM     19  C   UNL     1     112.691 128.453 138.298  0.00  0.00    +0.000 C 
ENDBRANCH  17  18
ENDBRANCH   8  12
BRANCH   1  21
ATOM     20  C   UNL     1     111.876 122.903 137.295  0.00  0.00    +0.000 C 
ATOM     21  O   UNL     1     112.541 123.208 136.914  0.00  0.00    +0.000 OA
ENDBRANCH   1  21
TORSDOF 3
ENDMDL
MODEL 9
REMARK VINA RESULT:      -7.1      7.433      8.539
REMARK  Name = null
REMARK  3 active torsions:
REMARK  status: ('A' for Active; 'I' for Inactive)
REMARK    1  A    between atoms: O_2  and  C_3
REMARK    2  A    between atoms: C_10  and  C_14
REMARK    3  A    between atoms: C_19  and  O_20
REMARK                            x       y       z     vdW  Elec       q    Type
REMARK                         _______ _______ _______ _____ _____    ______ ____
ROOT
ATOM      1  C   UNL     1     107.102 125.170 147.413  0.00  0.00    +0.000 A 
ATOM      2  C   UNL     1     106.589 125.411 146.815  0.00  0.00    +0.000 A 
ATOM      3  C   UNL     1     105.796 125.184 146.833  0.00  0.00    +0.000 A 
ATOM      4  C   UNL     1     105.516 124.713 147.452  0.00  0.00    +0.000 A 
ATOM      5  C   UNL     1     106.030 124.472 148.050  0.00  0.00    +0.000 A 
ATOM      6  C   UNL     1     106.823 124.699 148.032  0.00  0.00    +0.000 A 
ATOM      7  O   UNL     1     104.724 124.486 147.471  0.00  0.00    +0.000 OA
ATOM      8  C   UNL     1     104.211 124.728 146.873  0.00  0.00    +0.000 A 
ATOM      9  C   UNL     1     104.490 125.198 146.254  0.00  0.00    +0.000 A 
ATOM     10  C   UNL     1     105.282 125.425 146.235  0.00  0.00    +0.000 A 
ATOM     11  O   UNL     1     105.562 125.895 145.617  0.00  0.00    +0.000 OA
ENDROOT
BRANCH   8  12
ATOM     12  C   UNL     1     103.418 124.500 146.891  0.00  0.00    +0.000 A 
ATOM     13  C   UNL     1     102.873 124.940 147.328  0.00  0.00    +0.000 A 
ATOM     14  C   UNL     1     102.080 124.713 147.347  0.00  0.00    +0.000 A 
ATOM     15  C   UNL     1     101.832 124.046 146.929  0.00  0.00    +0.000 A 
ATOM     16  C   UNL     1     102.376 123.606 146.492  0.00  0.00    +0.000 A 
ATOM     17  C   UNL     1     103.169 123.834 146.474  0.00  0.00    +0.000 A 
BRANCH  17  18
ATOM     18  O   UNL     1     103.715 123.394 146.036  0.00  0.00    +0.000 OA
ATOM     19  C   UNL     1     103.463 122.739 145.603  0.00  0.00    +0.000 C 
ENDBRANCH  17  18
ENDBRANCH   8  12
BRANCH   1  21
ATOM     20  C   UNL     1     108.435 125.052 147.912  0.00  0.00    +0.000 C 
ATOM     21  O   UNL     1     107.895 125.397 147.394  0.00  0.00    +0.000 OA
ENDBRANCH   1  21
TORSDOF 3
ENDMDL
MODEL 10
REMARK VINA RESULT:      -7.0     10.637     11.443
REMARK  Name = null
REMARK  3 active torsions:
REMARK  status: ('A' for Active; 'I' for Inactive)
REMARK    1  A    between atoms: O_2  and  C_3
REMARK    2  A    between atoms: C_10  and  C_14
REMARK    3  A    between atoms: C_19  and  O_20
REMARK                            x       y       z     vdW  Elec       q    Type
REMARK                         _______ _______ _______ _____ _____    ______ ____
ROOT
ATOM      1  C   UNL     1     113.469 126.477 139.192  0.00  0.00    +0.000 A 
ATOM      2  C   UNL     1     113.691 126.236 138.434  0.00  0.00    +0.000 A 
ATOM      3  C   UNL     1     113.127 126.186 137.834  0.00  0.00    +0.000 A 
ATOM      4  C   UNL     1     112.340 126.378 137.991  0.00  0.00    +0.000 A 
ATOM      5  C   UNL     1     112.117 126.619 138.748  0.00  0.00    +0.000 A 
ATOM      6  C   UNL     1     112.681 126.669 139.349  0.00  0.00    +0.000 A 
ATOM      7  O   UNL     1     111.776 126.328 137.392  0.00  0.00    +0.000 OA
ATOM      8  C   UNL     1     111.998 126.087 136.636  0.00  0.00    +0.000 A 
ATOM      9  C   UNL     1     112.786 125.895 136.478  0.00  0.00    +0.000 A 
ATOM     10  C   UNL     1     113.350 125.945 137.078  0.00  0.00    +0.000 A 
ATOM     11  O   UNL     1     114.137 125.753 136.921  0.00  0.00    +0.000 OA
ENDROOT
BRANCH   8  12
ATOM     12  C   UNL     1     111.434 126.037 136.035  0.00  0.00    +0.000 A 
ATOM     13  C   UNL     1     111.035 125.327 135.903  0.00  0.00    +0.000 A 
ATOM     14  C   UNL     1     110.471 125.276 135.303  0.00  0.00    +0.000 A 
ATOM     15  C   UNL     1     110.307 125.935 134.835  0.00  0.00    +0.000 A 
ATOM     16  C   UNL     1     110.706 126.645 134.967  0.00  0.00    +0.000 A 
ATOM     17  C   UNL     1     111.270 126.695 135.567  0.00  0.00    +0.000 A 
BRANCH  17  18
ATOM     18  O   UNL     1     111.670 127.405 135.699  0.00  0.00    +0.000 OA
ATOM     19  C   UNL     1     111.502 128.065 135.234  0.00  0.00    +0.000 C 
ENDBRANCH  17  18
ENDBRANCH   8  12
BRANCH   1  21
ATOM     20  C   UNL     1     113.924 127.052 140.417  0.00  0.00    +0.000 C 
ATOM     21  O   UNL     1     114.033 126.527 139.791  0.00  0.00    +0.000 OA
ENDBRANCH   1  21
TORSDOF 3
ENDMDL
