MODEL 1
REMARK VINA RESULT:      -8.3      0.000      0.000
REMARK  Name = 73092145
REMARK  16 active torsions:
REMARK  status: ('A' for Active; 'I' for Inactive)
REMARK    1  A    between atoms: O_2  and  C_19
REMARK    2  A    between atoms: O_2  and  C_25
REMARK    3  A    between atoms: O_4  and  C_23
REMARK    4  A    between atoms: O_4  and  C_28
REMARK    5  A    between atoms: O_11  and  C_37
REMARK    6  A    between atoms: O_12  and  C_38
REMARK    7  A    between atoms: O_14  and  C_39
REMARK    8  A    between atoms: O_16  and  C_40
REMARK    9  A    between atoms: O_17  and  C_43
REMARK   10  A    between atoms: O_18  and  C_45
REMARK   11  A    between atoms: C_21  and  C_24
REMARK   12  A    between atoms: C_25  and  C_26
REMARK   13  A    between atoms: C_26  and  C_27
REMARK   14  A    between atoms: C_27  and  C_29
REMARK   15  A    between atoms: C_29  and  C_36
REMARK   16  A    between atoms: C_30  and  C_35
REMARK                            x       y       z     vdW  Elec       q    Type
REMARK                         _______ _______ _______ _____ _____    ______ ____
ROOT
ATOM      1  O   UNL     1     112.979 127.193 138.760  0.00  0.00    +0.000 OA
ATOM      2  O   UNL     1     112.567 129.298 137.524  0.00  0.00    +0.000 OA
ATOM      3  C   UNL     1     112.630 127.871 137.551  0.00  0.00    +0.000 A 
ATOM      4  C   UNL     1     112.767 127.169 137.963  0.00  0.00    +0.000 A 
ATOM      5  C   UNL     1     112.705 128.596 137.936  0.00  0.00    +0.000 A 
ATOM      6  C   UNL     1     112.916 128.620 138.733  0.00  0.00    +0.000 A 
ATOM      7  C   UNL     1     113.053 127.919 139.145  0.00  0.00    +0.000 A 
ATOM      8  C   UNL     1     112.990 129.383 139.123  0.00  0.00    +0.000 A 
ATOM      9  C   UNL     1     113.274 127.931 139.976  0.00  0.00    +0.000 A 
ATOM     10  C   UNL     1     113.210 129.415 139.953  0.00  0.00    +0.000 A 
ATOM     11  C   UNL     1     113.352 128.684 140.382  0.00  0.00    +0.000 A 
ENDROOT
BRANCH   4  12
ATOM     12  C   UNL     1     112.693 126.443 137.578  0.00  0.00    +0.000 A 
ATOM     13  C   UNL     1     113.306 126.166 137.100  0.00  0.00    +0.000 A 
ATOM     14  C   UNL     1     112.006 125.995 137.670  0.00  0.00    +0.000 A 
ATOM     15  C   UNL     1     113.232 125.440 136.714  0.00  0.00    +0.000 A 
ATOM     16  C   UNL     1     111.933 125.269 137.283  0.00  0.00    +0.000 A 
ATOM     17  C   UNL     1     112.545 124.992 136.806  0.00  0.00    +0.000 A 
BRANCH  17  18
ATOM     18  O   UNL     1     112.472 124.267 136.420  0.00  0.00    +0.000 OA
ATOM     19  C   UNL     1     111.815 123.789 136.562  0.00  0.00    +0.000 C 
ENDBRANCH  17  18
BRANCH  15  20
ATOM     20  O   UNL     1     113.845 125.163 136.236  0.00  0.00    +0.000 OA
ATOM     21  C   UNL     1     114.628 125.342 136.424  0.00  0.00    +0.000 C 
ENDBRANCH  15  20
ENDBRANCH   4  12
BRANCH   9  22
ATOM     22  O   UNL     1     113.409 127.225 140.380  0.00  0.00    +0.000 OA
ATOM     23  C   UNL     1     114.181 126.983 140.541  0.00  0.00    +0.000 C 
ENDBRANCH   9  22
BRANCH  11  24
ATOM     24  O   UNL     1     113.564 128.705 141.179  0.00  0.00    +0.000 OA
ATOM     25  C   UNL     1     112.981 128.668 141.762  0.00  0.00    +0.000 C 
ENDBRANCH  11  24
BRANCH  10  26
ATOM     26  O   UNL     1     113.283 130.143 140.335  0.00  0.00    +0.000 OA
ATOM     27  C   UNL     1     114.026 130.490 140.421  0.00  0.00    +0.000 C 
ENDBRANCH  10  26
BRANCH   8  28
ATOM     28  O   UNL     1     112.851 130.080 138.703  0.00  0.00    +0.000 OA
ATOM     29  C   UNL     1     112.192 130.543 138.880  0.00  0.00    +0.000 C 
ENDBRANCH   8  28
BRANCH   3  30
ATOM     30  O   UNL     1     112.419 127.846 136.754  0.00  0.00    +0.000 OA
BRANCH  30  38
ATOM     31  O   UNL     1     111.040 128.150 136.977  0.00  0.00    +0.000 OA
ATOM     32  O   UNL     1     110.949 129.329 134.803  0.00  0.00    +0.000 OA
ATOM     33  O   UNL     1     112.358 128.632 135.304  0.00  0.00    +0.000 OA
ATOM     34  C   UNL     1     110.306 128.891 136.001  0.00  0.00    +0.000 C 
ATOM     35  C   UNL     1     110.979 128.936 135.527  0.00  0.00    +0.000 C 
ATOM     36  C   UNL     1     110.336 128.498 136.726  0.00  0.00    +0.000 C 
ATOM     37  C   UNL     1     111.684 128.587 135.778  0.00  0.00    +0.000 C 
ATOM     38  C   UNL     1     111.715 128.194 136.503  0.00  0.00    +0.000 C 
BRANCH  36  40
ATOM     39  O   UNL     1     109.404 127.724 137.483  0.00  0.00    +0.000 OA
ATOM     40  C   UNL     1     109.662 128.454 137.200  0.00  0.00    +0.000 C 
ENDBRANCH  36  40
BRANCH  34  41
ATOM     41  O   UNL     1     109.601 129.240 135.750  0.00  0.00    +0.000 OA
BRANCH  41  43
ATOM     42  O   UNL     1     109.866 130.462 136.441  0.00  0.00    +0.000 OA
ATOM     43  C   UNL     1     109.492 130.054 135.829  0.00  0.00    +0.000 C 
BRANCH  43  44
ATOM     44  C   UNL     1     109.011 130.459 135.297  0.00  0.00    +0.000 C 
BRANCH  44  46
ATOM     45  O   UNL     1     107.920 130.386 135.705  0.00  0.00    +0.000 OA
ATOM     46  C   UNL     1     108.454 131.001 135.574  0.00  0.00    +0.000 C 
ATOM     47  C   UNL     1     108.988 131.616 135.443  0.00  0.00    +0.000 C 
BRANCH  46  48
ATOM     48  C   UNL     1     107.897 131.543 135.851  0.00  0.00    +0.000 C 
BRANCH  48  51
ATOM     49  O   UNL     1     106.484 131.361 135.735  0.00  0.00    +0.000 OA
ATOM     50  O   UNL     1     107.199 132.077 134.725  0.00  0.00    +0.000 OA
ATOM     51  C   UNL     1     107.193 131.660 135.437  0.00  0.00    +0.000 C 
ENDBRANCH  48  51
ENDBRANCH  46  48
ENDBRANCH  44  46
ENDBRANCH  43  44
ENDBRANCH  41  43
ENDBRANCH  34  41
ENDBRANCH  30  38
ENDBRANCH   3  30
TORSDOF 16
ENDMDL
MODEL 2
REMARK VINA RESULT:      -8.1      1.868      5.705
REMARK  Name = 73092145
REMARK  16 active torsions:
REMARK  status: ('A' for Active; 'I' for Inactive)
REMARK    1  A    between atoms: O_2  and  C_19
REMARK    2  A    between atoms: O_2  and  C_25
REMARK    3  A    between atoms: O_4  and  C_23
REMARK    4  A    between atoms: O_4  and  C_28
REMARK    5  A    between atoms: O_11  and  C_37
REMARK    6  A    between atoms: O_12  and  C_38
REMARK    7  A    between atoms: O_14  and  C_39
REMARK    8  A    between atoms: O_16  and  C_40
REMARK    9  A    between atoms: O_17  and  C_43
REMARK   10  A    between atoms: O_18  and  C_45
REMARK   11  A    between atoms: C_21  and  C_24
REMARK   12  A    between atoms: C_25  and  C_26
REMARK   13  A    between atoms: C_26  and  C_27
REMARK   14  A    between atoms: C_27  and  C_29
REMARK   15  A    between atoms: C_29  and  C_36
REMARK   16  A    between atoms: C_30  and  C_35
REMARK                            x       y       z     vdW  Elec       q    Type
REMARK                         _______ _______ _______ _____ _____    ______ ____
ROOT
ATOM      1  O   UNL     1     111.331 130.278 136.004  0.00  0.00    +0.000 OA
ATOM      2  O   UNL     1     111.497 131.479 138.162  0.00  0.00    +0.000 OA
ATOM      3  C   UNL     1     112.067 130.605 137.185  0.00  0.00    +0.000 A 
ATOM      4  C   UNL     1     112.011 130.205 136.465  0.00  0.00    +0.000 A 
ATOM      5  C   UNL     1     111.441 131.078 137.442  0.00  0.00    +0.000 A 
ATOM      6  C   UNL     1     110.762 131.151 136.981  0.00  0.00    +0.000 A 
ATOM      7  C   UNL     1     110.707 130.751 136.262  0.00  0.00    +0.000 A 
ATOM      8  C   UNL     1     110.118 131.647 137.261  0.00  0.00    +0.000 A 
ATOM      9  C   UNL     1     110.003 130.818 135.771  0.00  0.00    +0.000 A 
ATOM     10  C   UNL     1     109.407 131.727 136.785  0.00  0.00    +0.000 A 
ATOM     11  C   UNL     1     109.350 131.309 136.035  0.00  0.00    +0.000 A 
ENDROOT
BRANCH   4  12
ATOM     12  C   UNL     1     112.636 129.732 136.208  0.00  0.00    +0.000 A 
ATOM     13  C   UNL     1     112.577 128.910 136.253  0.00  0.00    +0.000 A 
ATOM     14  C   UNL     1     113.321 130.080 135.906  0.00  0.00    +0.000 A 
ATOM     15  C   UNL     1     113.202 128.437 135.996  0.00  0.00    +0.000 A 
ATOM     16  C   UNL     1     113.945 129.606 135.649  0.00  0.00    +0.000 A 
ATOM     17  C   UNL     1     113.886 128.785 135.694  0.00  0.00    +0.000 A 
BRANCH  17  18
ATOM     18  O   UNL     1     114.511 128.311 135.437  0.00  0.00    +0.000 OA
ATOM     19  C   UNL     1     115.094 128.628 134.947  0.00  0.00    +0.000 C 
ENDBRANCH  17  18
BRANCH  15  20
ATOM     20  O   UNL     1     113.142 127.615 136.041  0.00  0.00    +0.000 OA
ATOM     21  C   UNL     1     112.400 127.257 136.090  0.00  0.00    +0.000 C 
ENDBRANCH  15  20
ENDBRANCH   4  12
BRANCH   9  22
ATOM     22  O   UNL     1     109.957 130.414 135.054  0.00  0.00    +0.000 OA
ATOM     23  C   UNL     1     109.511 129.723 134.998  0.00  0.00    +0.000 C 
ENDBRANCH   9  22
BRANCH  11  24
ATOM     24  O   UNL     1     108.671 131.380 135.571  0.00  0.00    +0.000 OA
ATOM     25  C   UNL     1     108.622 131.973 135.000  0.00  0.00    +0.000 C 
ENDBRANCH  11  24
BRANCH  10  26
ATOM     26  O   UNL     1     108.783 132.201 137.045  0.00  0.00    +0.000 OA
ATOM     27  C   UNL     1     108.177 131.872 137.498  0.00  0.00    +0.000 C 
ENDBRANCH  10  26
BRANCH   8  28
ATOM     28  O   UNL     1     110.181 132.043 137.982  0.00  0.00    +0.000 OA
ATOM     29  C   UNL     1     110.383 132.843 137.996  0.00  0.00    +0.000 C 
ENDBRANCH   8  28
BRANCH   3  30
ATOM     30  O   UNL     1     112.746 130.533 137.647  0.00  0.00    +0.000 OA
BRANCH  30  38
ATOM     31  O   UNL     1     112.114 129.700 138.620  0.00  0.00    +0.000 OA
ATOM     32  O   UNL     1     113.681 130.528 140.348  0.00  0.00    +0.000 OA
ATOM     33  O   UNL     1     113.791 131.085 138.798  0.00  0.00    +0.000 OA
ATOM     34  C   UNL     1     112.581 129.697 139.970  0.00  0.00    +0.000 C 
ATOM     35  C   UNL     1     113.158 130.252 139.772  0.00  0.00    +0.000 C 
ATOM     36  C   UNL     1     112.058 129.421 139.394  0.00  0.00    +0.000 C 
ATOM     37  C   UNL     1     113.214 130.530 138.997  0.00  0.00    +0.000 C 
ATOM     38  C   UNL     1     112.691 130.254 138.421  0.00  0.00    +0.000 C 
BRANCH  36  40
ATOM     39  O   UNL     1     111.419 128.163 139.168  0.00  0.00    +0.000 OA
ATOM     40  C   UNL     1     111.481 128.866 139.594  0.00  0.00    +0.000 C 
ENDBRANCH  36  40
BRANCH  34  41
ATOM     41  O   UNL     1     112.526 129.419 140.745  0.00  0.00    +0.000 OA
BRANCH  41  43
ATOM     42  O   UNL     1     111.539 130.379 141.127  0.00  0.00    +0.000 OA
ATOM     43  C   UNL     1     112.167 129.882 141.326  0.00  0.00    +0.000 C 
BRANCH  43  44
ATOM     44  C   UNL     1     112.436 129.849 142.105  0.00  0.00    +0.000 C 
BRANCH  44  46
ATOM     45  O   UNL     1     111.977 128.902 142.609  0.00  0.00    +0.000 OA
ATOM     46  C   UNL     1     111.902 129.716 142.720  0.00  0.00    +0.000 C 
ATOM     47  C   UNL     1     111.827 130.530 142.830  0.00  0.00    +0.000 C 
BRANCH  46  48
ATOM     48  C   UNL     1     111.369 129.584 143.335  0.00  0.00    +0.000 C 
BRANCH  48  51
ATOM     49  O   UNL     1     111.666 128.566 144.293  0.00  0.00    +0.000 OA
ATOM     50  O   UNL     1     111.899 129.939 144.613  0.00  0.00    +0.000 OA
ATOM     51  C   UNL     1     111.645 129.363 144.081  0.00  0.00    +0.000 C 
ENDBRANCH  48  51
ENDBRANCH  46  48
ENDBRANCH  44  46
ENDBRANCH  43  44
ENDBRANCH  41  43
ENDBRANCH  34  41
ENDBRANCH  30  38
ENDBRANCH   3  30
TORSDOF 16
ENDMDL
MODEL 3
REMARK VINA RESULT:      -8.0      2.562      4.414
REMARK  Name = 73092145
REMARK  16 active torsions:
REMARK  status: ('A' for Active; 'I' for Inactive)
REMARK    1  A    between atoms: O_2  and  C_19
REMARK    2  A    between atoms: O_2  and  C_25
REMARK    3  A    between atoms: O_4  and  C_23
REMARK    4  A    between atoms: O_4  and  C_28
REMARK    5  A    between atoms: O_11  and  C_37
REMARK    6  A    between atoms: O_12  and  C_38
REMARK    7  A    between atoms: O_14  and  C_39
REMARK    8  A    between atoms: O_16  and  C_40
REMARK    9  A    between atoms: O_17  and  C_43
REMARK   10  A    between atoms: O_18  and  C_45
REMARK   11  A    between atoms: C_21  and  C_24
REMARK   12  A    between atoms: C_25  and  C_26
REMARK   13  A    between atoms: C_26  and  C_27
REMARK   14  A    between atoms: C_27  and  C_29
REMARK   15  A    between atoms: C_29  and  C_36
REMARK   16  A    between atoms: C_30  and  C_35
REMARK                            x       y       z     vdW  Elec       q    Type
REMARK                         _______ _______ _______ _____ _____    ______ ____
ROOT
ATOM      1  O   UNL     1     112.798 127.483 136.583  0.00  0.00    +0.000 OA
ATOM      2  O   UNL     1     112.675 128.156 138.962  0.00  0.00    +0.000 OA
ATOM      3  C   UNL     1     112.550 127.154 137.952  0.00  0.00    +0.000 A 
ATOM      4  C   UNL     1     112.591 126.929 137.158  0.00  0.00    +0.000 A 
ATOM      5  C   UNL     1     112.716 127.932 138.169  0.00  0.00    +0.000 A 
ATOM      6  C   UNL     1     112.923 128.486 137.593  0.00  0.00    +0.000 A 
ATOM      7  C   UNL     1     112.964 128.262 136.801  0.00  0.00    +0.000 A 
ATOM      8  C   UNL     1     113.094 129.293 137.833  0.00  0.00    +0.000 A 
ATOM      9  C   UNL     1     113.178 128.829 136.191  0.00  0.00    +0.000 A 
ATOM     10  C   UNL     1     113.310 129.875 137.239  0.00  0.00    +0.000 A 
ATOM     11  C   UNL     1     113.352 129.641 136.412  0.00  0.00    +0.000 A 
ENDROOT
BRANCH   4  12
ATOM     12  C   UNL     1     112.424 126.151 136.941  0.00  0.00    +0.000 A 
ATOM     13  C   UNL     1     111.722 125.975 136.545  0.00  0.00    +0.000 A 
ATOM     14  C   UNL     1     112.960 125.549 137.119  0.00  0.00    +0.000 A 
ATOM     15  C   UNL     1     111.555 125.197 136.328  0.00  0.00    +0.000 A 
ATOM     16  C   UNL     1     112.792 124.771 136.902  0.00  0.00    +0.000 A 
ATOM     17  C   UNL     1     112.091 124.595 136.506  0.00  0.00    +0.000 A 
BRANCH  17  18
ATOM     18  O   UNL     1     111.923 123.817 136.289  0.00  0.00    +0.000 OA
ATOM     19  C   UNL     1     112.221 123.191 136.736  0.00  0.00    +0.000 C 
ENDBRANCH  17  18
BRANCH  15  20
ATOM     20  O   UNL     1     110.852 125.020 135.932  0.00  0.00    +0.000 OA
ATOM     21  C   UNL     1     110.502 125.584 135.443  0.00  0.00    +0.000 C 
ENDBRANCH  15  20
ENDBRANCH   4  12
BRANCH   9  22
ATOM     22  O   UNL     1     113.216 128.596 135.401  0.00  0.00    +0.000 OA
ATOM     23  C   UNL     1     112.624 128.826 134.875  0.00  0.00    +0.000 C 
ENDBRANCH   9  22
BRANCH  11  24
ATOM     24  O   UNL     1     113.559 130.193 135.835  0.00  0.00    +0.000 OA
ATOM     25  C   UNL     1     114.350 130.290 135.621  0.00  0.00    +0.000 C 
ENDBRANCH  11  24
BRANCH  10  26
ATOM     26  O   UNL     1     113.476 130.653 137.459  0.00  0.00    +0.000 OA
ATOM     27  C   UNL     1     112.880 131.223 137.438  0.00  0.00    +0.000 C 
ENDBRANCH  10  26
BRANCH   8  28
ATOM     28  O   UNL     1     113.051 129.509 138.629  0.00  0.00    +0.000 OA
ATOM     29  C   UNL     1     113.735 129.525 139.089  0.00  0.00    +0.000 C 
ENDBRANCH   8  28
BRANCH   3  30
ATOM     30  O   UNL     1     112.343 126.600 138.527  0.00  0.00    +0.000 OA
BRANCH  30  38
ATOM     31  O   UNL     1     111.023 127.116 138.706  0.00  0.00    +0.000 OA
ATOM     32  O   UNL     1     111.044 126.356 141.061  0.00  0.00    +0.000 OA
ATOM     33  O   UNL     1     112.357 126.093 140.097  0.00  0.00    +0.000 OA
ATOM     34  C   UNL     1     110.374 126.994 139.972  0.00  0.00    +0.000 C 
ATOM     35  C   UNL     1     111.037 126.609 140.276  0.00  0.00    +0.000 C 
ATOM     36  C   UNL     1     110.366 127.247 139.187  0.00  0.00    +0.000 C 
ATOM     37  C   UNL     1     111.694 126.478 139.793  0.00  0.00    +0.000 C 
ATOM     38  C   UNL     1     111.687 126.731 139.008  0.00  0.00    +0.000 C 
BRANCH  36  40
ATOM     39  O   UNL     1     109.329 127.343 138.208  0.00  0.00    +0.000 OA
ATOM     40  C   UNL     1     109.702 127.632 138.884  0.00  0.00    +0.000 C 
ENDBRANCH  36  40
BRANCH  34  41
ATOM     41  O   UNL     1     109.716 127.125 140.454  0.00  0.00    +0.000 OA
BRANCH  41  43
ATOM     42  O   UNL     1     110.059 128.462 140.825  0.00  0.00    +0.000 OA
ATOM     43  C   UNL     1     109.731 127.729 141.016  0.00  0.00    +0.000 C 
BRANCH  43  44
ATOM     44  C   UNL     1     109.418 127.600 141.768  0.00  0.00    +0.000 C 
BRANCH  44  46
ATOM     45  O   UNL     1     108.253 127.640 141.718  0.00  0.00    +0.000 OA
ATOM     46  C   UNL     1     108.839 128.106 142.065  0.00  0.00    +0.000 C 
ATOM     47  C   UNL     1     109.424 128.573 142.413  0.00  0.00    +0.000 C 
BRANCH  46  48
ATOM     48  C   UNL     1     108.259 128.613 142.363  0.00  0.00    +0.000 C 
BRANCH  48  51
ATOM     49  O   UNL     1     108.134 128.353 143.763  0.00  0.00    +0.000 OA
ATOM     50  O   UNL     1     107.009 128.176 142.901  0.00  0.00    +0.000 OA
ATOM     51  C   UNL     1     107.801 128.381 143.009  0.00  0.00    +0.000 C 
ENDBRANCH  48  51
ENDBRANCH  46  48
ENDBRANCH  44  46
ENDBRANCH  43  44
ENDBRANCH  41  43
ENDBRANCH  34  41
ENDBRANCH  30  38
ENDBRANCH   3  30
TORSDOF 16
ENDMDL
MODEL 4
REMARK VINA RESULT:      -8.0      1.339      3.919
REMARK  Name = 73092145
REMARK  16 active torsions:
REMARK  status: ('A' for Active; 'I' for Inactive)
REMARK    1  A    between atoms: O_2  and  C_19
REMARK    2  A    between atoms: O_2  and  C_25
REMARK    3  A    between atoms: O_4  and  C_23
REMARK    4  A    between atoms: O_4  and  C_28
REMARK    5  A    between atoms: O_11  and  C_37
REMARK    6  A    between atoms: O_12  and  C_38
REMARK    7  A    between atoms: O_14  and  C_39
REMARK    8  A    between atoms: O_16  and  C_40
REMARK    9  A    between atoms: O_17  and  C_43
REMARK   10  A    between atoms: O_18  and  C_45
REMARK   11  A    between atoms: C_21  and  C_24
REMARK   12  A    between atoms: C_25  and  C_26
REMARK   13  A    between atoms: C_26  and  C_27
REMARK   14  A    between atoms: C_27  and  C_29
REMARK   15  A    between atoms: C_29  and  C_36
REMARK   16  A    between atoms: C_30  and  C_35
REMARK                            x       y       z     vdW  Elec       q    Type
REMARK                         _______ _______ _______ _____ _____    ______ ____
ROOT
ATOM      1  O   UNL     1     113.420 128.273 138.870  0.00  0.00    +0.000 OA
ATOM      2  O   UNL     1     112.452 129.287 136.829  0.00  0.00    +0.000 OA
ATOM      3  C   UNL     1     113.004 129.429 138.140  0.00  0.00    +0.000 A 
ATOM      4  C   UNL     1     113.326 129.091 138.820  0.00  0.00    +0.000 A 
ATOM      5  C   UNL     1     112.775 128.949 137.510  0.00  0.00    +0.000 A 
ATOM      6  C   UNL     1     112.869 128.130 137.559  0.00  0.00    +0.000 A 
ATOM      7  C   UNL     1     113.191 127.793 138.239  0.00  0.00    +0.000 A 
ATOM      8  C   UNL     1     112.626 127.641 136.896  0.00  0.00    +0.000 A 
ATOM      9  C   UNL     1     113.294 126.942 138.304  0.00  0.00    +0.000 A 
ATOM     10  C   UNL     1     112.721 126.788 136.941  0.00  0.00    +0.000 A 
ATOM     11  C   UNL     1     113.058 126.436 137.650  0.00  0.00    +0.000 A 
ENDROOT
BRANCH   4  12
ATOM     12  C   UNL     1     113.555 129.572 139.450  0.00  0.00    +0.000 A 
ATOM     13  C   UNL     1     113.087 129.611 140.130  0.00  0.00    +0.000 A 
ATOM     14  C   UNL     1     114.250 130.013 139.402  0.00  0.00    +0.000 A 
ATOM     15  C   UNL     1     113.316 130.092 140.760  0.00  0.00    +0.000 A 
ATOM     16  C   UNL     1     114.478 130.494 140.033  0.00  0.00    +0.000 A 
ATOM     17  C   UNL     1     114.011 130.534 140.711  0.00  0.00    +0.000 A 
BRANCH  17  18
ATOM     18  O   UNL     1     114.239 131.014 141.342  0.00  0.00    +0.000 OA
ATOM     19  C   UNL     1     114.954 131.425 141.310  0.00  0.00    +0.000 C 
ENDBRANCH  17  18
BRANCH  15  20
ATOM     20  O   UNL     1     112.848 130.131 141.439  0.00  0.00    +0.000 OA
ATOM     21  C   UNL     1     112.401 129.478 141.670  0.00  0.00    +0.000 C 
ENDBRANCH  15  20
ENDBRANCH   4  12
BRANCH   9  22
ATOM     22  O   UNL     1     113.618 126.613 138.987  0.00  0.00    +0.000 OA
ATOM     23  C   UNL     1     113.122 126.337 139.586  0.00  0.00    +0.000 C 
ENDBRANCH   9  22
BRANCH  11  24
ATOM     24  O   UNL     1     113.153 125.618 137.702  0.00  0.00    +0.000 OA
ATOM     25  C   UNL     1     113.865 125.271 137.475  0.00  0.00    +0.000 C 
ENDBRANCH  11  24
BRANCH  10  26
ATOM     26  O   UNL     1     112.492 126.310 136.309  0.00  0.00    +0.000 OA
ATOM     27  C   UNL     1     111.730 125.994 136.286  0.00  0.00    +0.000 C 
ENDBRANCH  10  26
BRANCH   8  28
ATOM     28  O   UNL     1     112.305 127.988 136.219  0.00  0.00    +0.000 OA
ATOM     29  C   UNL     1     112.792 128.177 135.581  0.00  0.00    +0.000 C 
ENDBRANCH   8  28
BRANCH   3  30
ATOM     30  O   UNL     1     112.910 130.248 138.090  0.00  0.00    +0.000 OA
BRANCH  30  38
ATOM     31  O   UNL     1     111.489 130.220 138.242  0.00  0.00    +0.000 OA
ATOM     32  O   UNL     1     111.297 132.228 136.807  0.00  0.00    +0.000 OA
ATOM     33  O   UNL     1     112.782 131.586 137.133  0.00  0.00    +0.000 OA
ATOM     34  C   UNL     1     110.683 131.210 137.601  0.00  0.00    +0.000 C 
ATOM     35  C   UNL     1     111.361 131.559 137.285  0.00  0.00    +0.000 C 
ATOM     36  C   UNL     1     110.747 130.541 138.079  0.00  0.00    +0.000 C 
ATOM     37  C   UNL     1     112.104 131.237 137.449  0.00  0.00    +0.000 C 
ATOM     38  C   UNL     1     112.168 130.568 137.927  0.00  0.00    +0.000 C 
BRANCH  36  40
ATOM     39  O   UNL     1     110.023 130.033 139.202  0.00  0.00    +0.000 OA
ATOM     40  C   UNL     1     110.069 130.193 138.394  0.00  0.00    +0.000 C 
ENDBRANCH  36  40
BRANCH  34  41
ATOM     41  O   UNL     1     109.941 131.531 137.437  0.00  0.00    +0.000 OA
BRANCH  41  43
ATOM     42  O   UNL     1     109.815 130.735 136.258  0.00  0.00    +0.000 OA
ATOM     43  C   UNL     1     109.576 131.381 136.713  0.00  0.00    +0.000 C 
BRANCH  43  44
ATOM     44  C   UNL     1     108.974 131.875 136.444  0.00  0.00    +0.000 C 
BRANCH  44  46
ATOM     45  O   UNL     1     108.811 131.522 135.344  0.00  0.00    +0.000 OA
ATOM     46  C   UNL     1     108.340 131.560 136.020  0.00  0.00    +0.000 C 
ATOM     47  C   UNL     1     107.869 131.598 136.696  0.00  0.00    +0.000 C 
BRANCH  46  48
ATOM     48  C   UNL     1     107.707 131.245 135.596  0.00  0.00    +0.000 C 
BRANCH  48  51
ATOM     49  O   UNL     1     107.082 132.280 134.833  0.00  0.00    +0.000 OA
ATOM     50  O   UNL     1     106.352 131.612 135.865  0.00  0.00    +0.000 OA
ATOM     51  C   UNL     1     107.046 131.713 135.431  0.00  0.00    +0.000 C 
ENDBRANCH  48  51
ENDBRANCH  46  48
ENDBRANCH  44  46
ENDBRANCH  43  44
ENDBRANCH  41  43
ENDBRANCH  34  41
ENDBRANCH  30  38
ENDBRANCH   3  30
TORSDOF 16
ENDMDL
MODEL 5
REMARK VINA RESULT:      -8.0      2.947      4.728
REMARK  Name = 73092145
REMARK  16 active torsions:
REMARK  status: ('A' for Active; 'I' for Inactive)
REMARK    1  A    between atoms: O_2  and  C_19
REMARK    2  A    between atoms: O_2  and  C_25
REMARK    3  A    between atoms: O_4  and  C_23
REMARK    4  A    between atoms: O_4  and  C_28
REMARK    5  A    between atoms: O_11  and  C_37
REMARK    6  A    between atoms: O_12  and  C_38
REMARK    7  A    between atoms: O_14  and  C_39
REMARK    8  A    between atoms: O_16  and  C_40
REMARK    9  A    between atoms: O_17  and  C_43
REMARK   10  A    between atoms: O_18  and  C_45
REMARK   11  A    between atoms: C_21  and  C_24
REMARK   12  A    between atoms: C_25  and  C_26
REMARK   13  A    between atoms: C_26  and  C_27
REMARK   14  A    between atoms: C_27  and  C_29
REMARK   15  A    between atoms: C_29  and  C_36
REMARK   16  A    between atoms: C_30  and  C_35
REMARK                            x       y       z     vdW  Elec       q    Type
REMARK                         _______ _______ _______ _____ _____    ______ ____
ROOT
ATOM      1  O   UNL     1     112.434 128.192 137.569  0.00  0.00    +0.000 OA
ATOM      2  O   UNL     1     111.690 128.482 139.912  0.00  0.00    +0.000 OA
ATOM      3  C   UNL     1     112.176 127.642 138.863  0.00  0.00    +0.000 A 
ATOM      4  C   UNL     1     112.424 127.546 138.081  0.00  0.00    +0.000 A 
ATOM      5  C   UNL     1     111.938 128.385 139.130  0.00  0.00    +0.000 A 
ATOM      6  C   UNL     1     111.947 129.032 138.617  0.00  0.00    +0.000 A 
ATOM      7  C   UNL     1     112.195 128.935 137.837  0.00  0.00    +0.000 A 
ATOM      8  C   UNL     1     111.696 129.800 138.909  0.00  0.00    +0.000 A 
ATOM      9  C   UNL     1     112.209 129.600 137.292  0.00  0.00    +0.000 A 
ATOM     10  C   UNL     1     111.704 130.477 138.380  0.00  0.00    +0.000 A 
ATOM     11  C   UNL     1     111.962 130.376 137.566  0.00  0.00    +0.000 A 
ENDROOT
BRANCH   4  12
ATOM     12  C   UNL     1     112.663 126.803 137.814  0.00  0.00    +0.000 A 
ATOM     13  C   UNL     1     112.172 126.369 137.312  0.00  0.00    +0.000 A 
ATOM     14  C   UNL     1     113.391 126.493 138.049  0.00  0.00    +0.000 A 
ATOM     15  C   UNL     1     112.410 125.625 137.044  0.00  0.00    +0.000 A 
ATOM     16  C   UNL     1     113.628 125.750 137.781  0.00  0.00    +0.000 A 
ATOM     17  C   UNL     1     113.138 125.316 137.279  0.00  0.00    +0.000 A 
BRANCH  17  18
ATOM     18  O   UNL     1     113.376 124.573 137.011  0.00  0.00    +0.000 OA
ATOM     19  C   UNL     1     114.074 124.237 137.293  0.00  0.00    +0.000 C 
ENDBRANCH  17  18
BRANCH  15  20
ATOM     20  O   UNL     1     111.920 125.191 136.542  0.00  0.00    +0.000 OA
ATOM     21  C   UNL     1     111.398 125.582 136.035  0.00  0.00    +0.000 C 
ENDBRANCH  15  20
ENDBRANCH   4  12
BRANCH   9  22
ATOM     22  O   UNL     1     112.459 129.494 136.513  0.00  0.00    +0.000 OA
ATOM     23  C   UNL     1     111.904 129.465 135.903  0.00  0.00    +0.000 C 
ENDBRANCH   9  22
BRANCH  11  24
ATOM     24  O   UNL     1     111.973 131.020 137.050  0.00  0.00    +0.000 OA
ATOM     25  C   UNL     1     112.651 131.485 136.985  0.00  0.00    +0.000 C 
ENDBRANCH  11  24
BRANCH  10  26
ATOM     26  O   UNL     1     111.465 131.219 138.650  0.00  0.00    +0.000 OA
ATOM     27  C   UNL     1     110.678 131.454 138.569  0.00  0.00    +0.000 C 
ENDBRANCH  10  26
BRANCH   8  28
ATOM     28  O   UNL     1     111.450 129.888 139.692  0.00  0.00    +0.000 OA
ATOM     29  C   UNL     1     111.984 130.143 140.266  0.00  0.00    +0.000 C 
ENDBRANCH   8  28
BRANCH   3  30
ATOM     30  O   UNL     1     112.167 126.996 139.376  0.00  0.00    +0.000 OA
BRANCH  30  38
ATOM     31  O   UNL     1     110.746 126.843 139.364  0.00  0.00    +0.000 OA
ATOM     32  O   UNL     1     110.815 126.032 141.702  0.00  0.00    +0.000 OA
ATOM     33  O   UNL     1     112.212 126.456 140.934  0.00  0.00    +0.000 OA
ATOM     34  C   UNL     1     110.071 126.361 140.527  0.00  0.00    +0.000 C 
ATOM     35  C   UNL     1     110.792 126.302 140.923  0.00  0.00    +0.000 C 
ATOM     36  C   UNL     1     110.048 126.631 139.748  0.00  0.00    +0.000 C 
ATOM     37  C   UNL     1     111.491 126.515 140.539  0.00  0.00    +0.000 C 
ATOM     38  C   UNL     1     111.468 126.785 139.759  0.00  0.00    +0.000 C 
BRANCH  36  40
ATOM     39  O   UNL     1     109.252 126.407 138.582  0.00  0.00    +0.000 OA
ATOM     40  C   UNL     1     109.325 126.689 139.353  0.00  0.00    +0.000 C 
ENDBRANCH  36  40
BRANCH  34  41
ATOM     41  O   UNL     1     109.371 126.149 140.911  0.00  0.00    +0.000 OA
BRANCH  41  43
ATOM     42  O   UNL     1     109.414 127.222 141.853  0.00  0.00    +0.000 OA
ATOM     43  C   UNL     1     108.980 126.697 141.388  0.00  0.00    +0.000 C 
BRANCH  43  44
ATOM     44  C   UNL     1     108.156 126.719 141.400  0.00  0.00    +0.000 C 
BRANCH  44  46
ATOM     45  O   UNL     1     107.839 126.027 142.285  0.00  0.00    +0.000 OA
ATOM     46  C   UNL     1     107.756 126.830 142.113  0.00  0.00    +0.000 C 
ATOM     47  C   UNL     1     107.674 127.633 141.942  0.00  0.00    +0.000 C 
BRANCH  46  48
ATOM     48  C   UNL     1     107.357 126.941 142.826  0.00  0.00    +0.000 C 
BRANCH  48  51
ATOM     49  O   UNL     1     106.566 125.938 143.468  0.00  0.00    +0.000 OA
ATOM     50  O   UNL     1     105.956 126.856 142.559  0.00  0.00    +0.000 OA
ATOM     51  C   UNL     1     106.626 126.578 142.951  0.00  0.00    +0.000 C 
ENDBRANCH  48  51
ENDBRANCH  46  48
ENDBRANCH  44  46
ENDBRANCH  43  44
ENDBRANCH  41  43
ENDBRANCH  34  41
ENDBRANCH  30  38
ENDBRANCH   3  30
TORSDOF 16
ENDMDL
MODEL 6
REMARK VINA RESULT:      -7.9      2.309      4.943
REMARK  Name = 73092145
REMARK  16 active torsions:
REMARK  status: ('A' for Active; 'I' for Inactive)
REMARK    1  A    between atoms: O_2  and  C_19
REMARK    2  A    between atoms: O_2  and  C_25
REMARK    3  A    between atoms: O_4  and  C_23
REMARK    4  A    between atoms: O_4  and  C_28
REMARK    5  A    between atoms: O_11  and  C_37
REMARK    6  A    between atoms: O_12  and  C_38
REMARK    7  A    between atoms: O_14  and  C_39
REMARK    8  A    between atoms: O_16  and  C_40
REMARK    9  A    between atoms: O_17  and  C_43
REMARK   10  A    between atoms: O_18  and  C_45
REMARK   11  A    between atoms: C_21  and  C_24
REMARK   12  A    between atoms: C_25  and  C_26
REMARK   13  A    between atoms: C_26  and  C_27
REMARK   14  A    between atoms: C_27  and  C_29
REMARK   15  A    between atoms: C_29  and  C_36
REMARK   16  A    between atoms: C_30  and  C_35
REMARK                            x       y       z     vdW  Elec       q    Type
REMARK                         _______ _______ _______ _____ _____    ______ ____
ROOT
ATOM      1  O   UNL     1     113.066 127.307 136.410  0.00  0.00    +0.000 OA
ATOM      2  O   UNL     1     111.535 128.455 137.980  0.00  0.00    +0.000 OA
ATOM      3  C   UNL     1     112.080 127.248 137.443  0.00  0.00    +0.000 A 
ATOM      4  C   UNL     1     112.591 126.865 136.919  0.00  0.00    +0.000 A 
ATOM      5  C   UNL     1     112.046 128.072 137.456  0.00  0.00    +0.000 A 
ATOM      6  C   UNL     1     112.522 128.514 136.947  0.00  0.00    +0.000 A 
ATOM      7  C   UNL     1     113.031 128.131 136.424  0.00  0.00    +0.000 A 
ATOM      8  C   UNL     1     112.477 129.372 136.971  0.00  0.00    +0.000 A 
ATOM      9  C   UNL     1     113.533 128.579 135.888  0.00  0.00    +0.000 A 
ATOM     10  C   UNL     1     112.969 129.837 136.443  0.00  0.00    +0.000 A 
ATOM     11  C   UNL     1     113.501 129.438 135.898  0.00  0.00    +0.000 A 
ENDROOT
BRANCH   4  12
ATOM     12  C   UNL     1     112.624 126.041 136.906  0.00  0.00    +0.000 A 
ATOM     13  C   UNL     1     113.294 125.652 137.190  0.00  0.00    +0.000 A 
ATOM     14  C   UNL     1     111.990 125.606 136.608  0.00  0.00    +0.000 A 
ATOM     15  C   UNL     1     113.328 124.828 137.177  0.00  0.00    +0.000 A 
ATOM     16  C   UNL     1     112.025 124.782 136.595  0.00  0.00    +0.000 A 
ATOM     17  C   UNL     1     112.693 124.393 136.879  0.00  0.00    +0.000 A 
BRANCH  17  18
ATOM     18  O   UNL     1     112.729 123.568 136.867  0.00  0.00    +0.000 OA
ATOM     19  C   UNL     1     112.032 123.126 136.869  0.00  0.00    +0.000 C 
ENDBRANCH  17  18
BRANCH  15  20
ATOM     20  O   UNL     1     113.998 124.438 137.462  0.00  0.00    +0.000 OA
ATOM     21  C   UNL     1     114.733 124.812 137.440  0.00  0.00    +0.000 C 
ENDBRANCH  15  20
ENDBRANCH   4  12
BRANCH   9  22
ATOM     22  O   UNL     1     114.040 128.188 135.368  0.00  0.00    +0.000 OA
ATOM     23  C   UNL     1     114.854 128.197 135.501  0.00  0.00    +0.000 C 
ENDBRANCH   9  22
BRANCH  11  24
ATOM     24  O   UNL     1     113.978 129.877 135.387  0.00  0.00    +0.000 OA
ATOM     25  C   UNL     1     113.729 130.024 134.614  0.00  0.00    +0.000 C 
ENDBRANCH  11  24
BRANCH  10  26
ATOM     26  O   UNL     1     112.933 130.661 136.459  0.00  0.00    +0.000 OA
ATOM     27  C   UNL     1     113.446 131.087 136.944  0.00  0.00    +0.000 C 
ENDBRANCH  10  26
BRANCH   8  28
ATOM     28  O   UNL     1     111.963 129.746 137.498  0.00  0.00    +0.000 OA
ATOM     29  C   UNL     1     111.218 129.990 137.244  0.00  0.00    +0.000 C 
ENDBRANCH   8  28
BRANCH   3  30
ATOM     30  O   UNL     1     111.604 126.807 137.952  0.00  0.00    +0.000 OA
BRANCH  30  38
ATOM     31  O   UNL     1     112.374 127.076 139.126  0.00  0.00    +0.000 OA
ATOM     32  O   UNL     1     110.311 127.017 140.492  0.00  0.00    +0.000 OA
ATOM     33  O   UNL     1     110.229 126.767 138.863  0.00  0.00    +0.000 OA
ATOM     34  C   UNL     1     111.728 127.181 140.395  0.00  0.00    +0.000 C 
ATOM     35  C   UNL     1     110.999 127.037 140.037  0.00  0.00    +0.000 C 
ATOM     36  C   UNL     1     112.415 127.201 139.939  0.00  0.00    +0.000 C 
ATOM     37  C   UNL     1     110.958 126.912 139.222  0.00  0.00    +0.000 C 
ATOM     38  C   UNL     1     111.645 126.932 138.766  0.00  0.00    +0.000 C 
BRANCH  36  40
ATOM     39  O   UNL     1     113.790 126.863 140.132  0.00  0.00    +0.000 OA
ATOM     40  C   UNL     1     113.144 127.346 140.299  0.00  0.00    +0.000 C 
ENDBRANCH  36  40
BRANCH  34  41
ATOM     41  O   UNL     1     111.769 127.306 141.210  0.00  0.00    +0.000 OA
BRANCH  41  43
ATOM     42  O   UNL     1     111.806 128.733 141.140  0.00  0.00    +0.000 OA
ATOM     43  C   UNL     1     111.570 128.042 141.525  0.00  0.00    +0.000 C 
BRANCH  43  44
ATOM     44  C   UNL     1     111.135 128.087 142.224  0.00  0.00    +0.000 C 
BRANCH  44  46
ATOM     45  O   UNL     1     111.859 127.987 143.134  0.00  0.00    +0.000 OA
ATOM     46  C   UNL     1     111.382 128.588 142.832  0.00  0.00    +0.000 C 
ATOM     47  C   UNL     1     110.905 129.190 142.530  0.00  0.00    +0.000 C 
BRANCH  46  48
ATOM     48  C   UNL     1     111.629 129.089 143.439  0.00  0.00    +0.000 C 
BRANCH  48  51
ATOM     49  O   UNL     1     111.822 128.696 144.800  0.00  0.00    +0.000 OA
ATOM     50  O   UNL     1     110.548 129.179 144.370  0.00  0.00    +0.000 OA
ATOM     51  C   UNL     1     111.333 128.988 144.203  0.00  0.00    +0.000 C 
ENDBRANCH  48  51
ENDBRANCH  46  48
ENDBRANCH  44  46
ENDBRANCH  43  44
ENDBRANCH  41  43
ENDBRANCH  34  41
ENDBRANCH  30  38
ENDBRANCH   3  30
TORSDOF 16
ENDMDL
MODEL 7
REMARK VINA RESULT:      -7.9      1.862      5.382
REMARK  Name = 73092145
REMARK  16 active torsions:
REMARK  status: ('A' for Active; 'I' for Inactive)
REMARK    1  A    between atoms: O_2  and  C_19
REMARK    2  A    between atoms: O_2  and  C_25
REMARK    3  A    between atoms: O_4  and  C_23
REMARK    4  A    between atoms: O_4  and  C_28
REMARK    5  A    between atoms: O_11  and  C_37
REMARK    6  A    between atoms: O_12  and  C_38
REMARK    7  A    between atoms: O_14  and  C_39
REMARK    8  A    between atoms: O_16  and  C_40
REMARK    9  A    between atoms: O_17  and  C_43
REMARK   10  A    between atoms: O_18  and  C_45
REMARK   11  A    between atoms: C_21  and  C_24
REMARK   12  A    between atoms: C_25  and  C_26
REMARK   13  A    between atoms: C_26  and  C_27
REMARK   14  A    between atoms: C_27  and  C_29
REMARK   15  A    between atoms: C_29  and  C_36
REMARK   16  A    between atoms: C_30  and  C_35
REMARK                            x       y       z     vdW  Elec       q    Type
REMARK                         _______ _______ _______ _____ _____    ______ ____
ROOT
ATOM      1  O   UNL     1     111.277 129.230 136.254  0.00  0.00    +0.000 OA
ATOM      2  O   UNL     1     111.891 131.039 137.829  0.00  0.00    +0.000 OA
ATOM      3  C   UNL     1     112.147 129.753 137.262  0.00  0.00    +0.000 A 
ATOM      4  C   UNL     1     111.942 129.150 136.736  0.00  0.00    +0.000 A 
ATOM      5  C   UNL     1     111.686 130.436 137.304  0.00  0.00    +0.000 A 
ATOM      6  C   UNL     1     111.022 130.517 136.822  0.00  0.00    +0.000 A 
ATOM      7  C   UNL     1     110.817 129.914 136.298  0.00  0.00    +0.000 A 
ATOM      8  C   UNL     1     110.550 131.233 136.876  0.00  0.00    +0.000 A 
ATOM      9  C   UNL     1     110.127 129.986 135.789  0.00  0.00    +0.000 A 
ATOM     10  C   UNL     1     109.857 131.324 136.377  0.00  0.00    +0.000 A 
ATOM     11  C   UNL     1     109.644 130.695 135.830  0.00  0.00    +0.000 A 
ENDROOT
BRANCH   4  12
ATOM     12  C   UNL     1     112.403 128.467 136.694  0.00  0.00    +0.000 A 
ATOM     13  C   UNL     1     112.124 127.761 137.019  0.00  0.00    +0.000 A 
ATOM     14  C   UNL     1     113.141 128.489 136.327  0.00  0.00    +0.000 A 
ATOM     15  C   UNL     1     112.584 127.078 136.977  0.00  0.00    +0.000 A 
ATOM     16  C   UNL     1     113.601 127.805 136.285  0.00  0.00    +0.000 A 
ATOM     17  C   UNL     1     113.323 127.100 136.610  0.00  0.00    +0.000 A 
BRANCH  17  18
ATOM     18  O   UNL     1     113.783 126.416 136.568  0.00  0.00    +0.000 OA
ATOM     19  C   UNL     1     114.530 126.443 136.221  0.00  0.00    +0.000 C 
ENDBRANCH  17  18
BRANCH  15  20
ATOM     20  O   UNL     1     112.305 126.372 137.302  0.00  0.00    +0.000 OA
ATOM     21  C   UNL     1     111.494 126.236 137.358  0.00  0.00    +0.000 C 
ENDBRANCH  15  20
ENDBRANCH   4  12
BRANCH   9  22
ATOM     22  O   UNL     1     109.930 129.378 135.268  0.00  0.00    +0.000 OA
ATOM     23  C   UNL     1     109.302 128.873 135.442  0.00  0.00    +0.000 C 
ENDBRANCH   9  22
BRANCH  11  24
ATOM     24  O   UNL     1     108.980 130.773 135.346  0.00  0.00    +0.000 OA
ATOM     25  C   UNL     1     109.045 131.147 134.614  0.00  0.00    +0.000 C 
ENDBRANCH  11  24
BRANCH  10  26
ATOM     26  O   UNL     1     109.399 132.008 136.422  0.00  0.00    +0.000 OA
ATOM     27  C   UNL     1     108.757 132.042 136.940  0.00  0.00    +0.000 C 
ENDBRANCH  10  26
BRANCH   8  28
ATOM     28  O   UNL     1     110.762 131.831 137.404  0.00  0.00    +0.000 OA
ATOM     29  C   UNL     1     111.200 132.479 137.140  0.00  0.00    +0.000 C 
ENDBRANCH   8  28
BRANCH   3  30
ATOM     30  O   UNL     1     112.811 129.672 137.744  0.00  0.00    +0.000 OA
BRANCH  30  38
ATOM     31  O   UNL     1     112.068 129.412 138.936  0.00  0.00    +0.000 OA
ATOM     32  O   UNL     1     113.839 130.502 140.278  0.00  0.00    +0.000 OA
ATOM     33  O   UNL     1     113.992 130.400 138.638  0.00  0.00    +0.000 OA
ATOM     34  C   UNL     1     112.582 129.826 140.203  0.00  0.00    +0.000 C 
ATOM     35  C   UNL     1     113.249 130.139 139.831  0.00  0.00    +0.000 C 
ATOM     36  C   UNL     1     111.992 129.463 139.755  0.00  0.00    +0.000 C 
ATOM     37  C   UNL     1     113.325 130.087 139.010  0.00  0.00    +0.000 C 
ATOM     38  C   UNL     1     112.735 129.724 138.563  0.00  0.00    +0.000 C 
BRANCH  36  40
ATOM     39  O   UNL     1     111.099 128.371 139.986  0.00  0.00    +0.000 OA
ATOM     40  C   UNL     1     111.325 129.151 140.129  0.00  0.00    +0.000 C 
ENDBRANCH  36  40
BRANCH  34  41
ATOM     41  O   UNL     1     112.506 129.878 141.023  0.00  0.00    +0.000 OA
BRANCH  41  43
ATOM     42  O   UNL     1     111.739 131.083 140.986  0.00  0.00    +0.000 OA
ATOM     43  C   UNL     1     112.275 130.589 141.372  0.00  0.00    +0.000 C 
BRANCH  43  44
ATOM     44  C   UNL     1     112.581 130.805 142.107  0.00  0.00    +0.000 C 
BRANCH  44  46
ATOM     45  O   UNL     1     112.188 131.889 142.286  0.00  0.00    +0.000 OA
ATOM     46  C   UNL     1     112.093 131.164 142.667  0.00  0.00    +0.000 C 
ATOM     47  C   UNL     1     111.997 130.439 143.048  0.00  0.00    +0.000 C 
BRANCH  46  48
ATOM     48  C   UNL     1     111.605 131.523 143.227  0.00  0.00    +0.000 C 
BRANCH  48  51
ATOM     49  O   UNL     1     111.979 131.378 144.599  0.00  0.00    +0.000 OA
ATOM     50  O   UNL     1     112.207 132.616 143.923  0.00  0.00    +0.000 OA
ATOM     51  C   UNL     1     111.930 131.839 143.917  0.00  0.00    +0.000 C 
ENDBRANCH  48  51
ENDBRANCH  46  48
ENDBRANCH  44  46
ENDBRANCH  43  44
ENDBRANCH  41  43
ENDBRANCH  34  41
ENDBRANCH  30  38
ENDBRANCH   3  30
TORSDOF 16
ENDMDL
MODEL 8
REMARK VINA RESULT:      -7.9      3.173      4.909
REMARK  Name = 73092145
REMARK  16 active torsions:
REMARK  status: ('A' for Active; 'I' for Inactive)
REMARK    1  A    between atoms: O_2  and  C_19
REMARK    2  A    between atoms: O_2  and  C_25
REMARK    3  A    between atoms: O_4  and  C_23
REMARK    4  A    between atoms: O_4  and  C_28
REMARK    5  A    between atoms: O_11  and  C_37
REMARK    6  A    between atoms: O_12  and  C_38
REMARK    7  A    between atoms: O_14  and  C_39
REMARK    8  A    between atoms: O_16  and  C_40
REMARK    9  A    between atoms: O_17  and  C_43
REMARK   10  A    between atoms: O_18  and  C_45
REMARK   11  A    between atoms: C_21  and  C_24
REMARK   12  A    between atoms: C_25  and  C_26
REMARK   13  A    between atoms: C_26  and  C_27
REMARK   14  A    between atoms: C_27  and  C_29
REMARK   15  A    between atoms: C_29  and  C_36
REMARK   16  A    between atoms: C_30  and  C_35
REMARK                            x       y       z     vdW  Elec       q    Type
REMARK                         _______ _______ _______ _____ _____    ______ ____
ROOT
ATOM      1  O   UNL     1     112.268 128.757 138.106  0.00  0.00    +0.000 OA
ATOM      2  O   UNL     1     109.837 128.439 138.450  0.00  0.00    +0.000 OA
ATOM      3  C   UNL     1     111.153 127.893 138.338  0.00  0.00    +0.000 A 
ATOM      4  C   UNL     1     111.964 127.999 138.224  0.00  0.00    +0.000 A 
ATOM      5  C   UNL     1     110.648 128.545 138.335  0.00  0.00    +0.000 A 
ATOM      6  C   UNL     1     110.952 129.303 138.217  0.00  0.00    +0.000 A 
ATOM      7  C   UNL     1     111.761 129.409 138.103  0.00  0.00    +0.000 A 
ATOM      8  C   UNL     1     110.414 129.974 138.216  0.00  0.00    +0.000 A 
ATOM      9  C   UNL     1     112.091 130.193 137.979  0.00  0.00    +0.000 A 
ATOM     10  C   UNL     1     110.725 130.765 138.094  0.00  0.00    +0.000 A 
ATOM     11  C   UNL     1     111.570 130.876 137.975  0.00  0.00    +0.000 A 
ENDROOT
BRANCH   4  12
ATOM     12  C   UNL     1     112.469 127.347 138.227  0.00  0.00    +0.000 A 
ATOM     13  C   UNL     1     112.957 127.207 138.878  0.00  0.00    +0.000 A 
ATOM     14  C   UNL     1     112.487 126.835 137.580  0.00  0.00    +0.000 A 
ATOM     15  C   UNL     1     113.462 126.555 138.881  0.00  0.00    +0.000 A 
ATOM     16  C   UNL     1     112.993 126.183 137.585  0.00  0.00    +0.000 A 
ATOM     17  C   UNL     1     113.480 126.043 138.234  0.00  0.00    +0.000 A 
BRANCH  17  18
ATOM     18  O   UNL     1     113.986 125.391 138.239  0.00  0.00    +0.000 OA
ATOM     19  C   UNL     1     114.132 124.979 137.540  0.00  0.00    +0.000 C 
ENDBRANCH  17  18
BRANCH  15  20
ATOM     20  O   UNL     1     113.951 126.416 139.532  0.00  0.00    +0.000 OA
ATOM     21  C   UNL     1     114.065 127.006 140.096  0.00  0.00    +0.000 C 
ENDBRANCH  15  20
ENDBRANCH   4  12
BRANCH   9  22
ATOM     22  O   UNL     1     112.903 130.290 137.866  0.00  0.00    +0.000 OA
ATOM     23  C   UNL     1     113.374 130.571 138.481  0.00  0.00    +0.000 C 
ENDBRANCH   9  22
BRANCH  11  24
ATOM     24  O   UNL     1     111.877 131.632 137.857  0.00  0.00    +0.000 OA
ATOM     25  C   UNL     1     111.939 131.938 137.093  0.00  0.00    +0.000 C 
ENDBRANCH  11  24
BRANCH  10  26
ATOM     26  O   UNL     1     110.217 131.415 138.092  0.00  0.00    +0.000 OA
ATOM     27  C   UNL     1     110.068 131.826 138.792  0.00  0.00    +0.000 C 
ENDBRANCH  10  26
BRANCH   8  28
ATOM     28  O   UNL     1     109.605 129.858 138.332  0.00  0.00    +0.000 OA
ATOM     29  C   UNL     1     109.096 129.829 137.684  0.00  0.00    +0.000 C 
ENDBRANCH   8  28
BRANCH   3  30
ATOM     30  O   UNL     1     110.849 127.135 138.456  0.00  0.00    +0.000 OA
BRANCH  30  38
ATOM     31  O   UNL     1     110.612 127.300 139.855  0.00  0.00    +0.000 OA
ATOM     32  O   UNL     1     108.637 125.817 139.696  0.00  0.00    +0.000 OA
ATOM     33  O   UNL     1     109.532 126.146 138.350  0.00  0.00    +0.000 OA
ATOM     34  C   UNL     1     109.507 126.641 140.475  0.00  0.00    +0.000 C 
ATOM     35  C   UNL     1     109.295 126.311 139.749  0.00  0.00    +0.000 C 
ATOM     36  C   UNL     1     110.165 127.135 140.528  0.00  0.00    +0.000 C 
ATOM     37  C   UNL     1     109.743 126.476 139.076  0.00  0.00    +0.000 C 
ATOM     38  C   UNL     1     110.402 126.971 139.129  0.00  0.00    +0.000 C 
BRANCH  36  40
ATOM     39  O   UNL     1     111.132 127.343 141.560  0.00  0.00    +0.000 OA
ATOM     40  C   UNL     1     110.376 127.464 141.255  0.00  0.00    +0.000 C 
ENDBRANCH  36  40
BRANCH  34  41
ATOM     41  O   UNL     1     109.059 126.476 141.149  0.00  0.00    +0.000 OA
BRANCH  41  43
ATOM     42  O   UNL     1     108.222 127.627 141.025  0.00  0.00    +0.000 OA
ATOM     43  C   UNL     1     108.328 126.843 141.259  0.00  0.00    +0.000 C 
BRANCH  43  44
ATOM     44  C   UNL     1     107.706 126.427 141.603  0.00  0.00    +0.000 C 
BRANCH  44  46
ATOM     45  O   UNL     1     107.909 126.437 142.752  0.00  0.00    +0.000 OA
ATOM     46  C   UNL     1     107.317 126.736 142.261  0.00  0.00    +0.000 C 
ATOM     47  C   UNL     1     106.725 127.035 141.771  0.00  0.00    +0.000 C 
BRANCH  46  48
ATOM     48  C   UNL     1     106.927 127.046 142.920  0.00  0.00    +0.000 C 
BRANCH  48  51
ATOM     49  O   UNL     1     106.842 126.188 144.060  0.00  0.00    +0.000 OA
ATOM     50  O   UNL     1     105.688 126.415 143.248  0.00  0.00    +0.000 OA
ATOM     51  C   UNL     1     106.486 126.550 143.410  0.00  0.00    +0.000 C 
ENDBRANCH  48  51
ENDBRANCH  46  48
ENDBRANCH  44  46
ENDBRANCH  43  44
ENDBRANCH  41  43
ENDBRANCH  34  41
ENDBRANCH  30  38
ENDBRANCH   3  30
TORSDOF 16
ENDMDL
MODEL 9
REMARK VINA RESULT:      -7.7      3.207      4.708
REMARK  Name = 73092145
REMARK  16 active torsions:
REMARK  status: ('A' for Active; 'I' for Inactive)
REMARK    1  A    between atoms: O_2  and  C_19
REMARK    2  A    between atoms: O_2  and  C_25
REMARK    3  A    between atoms: O_4  and  C_23
REMARK    4  A    between atoms: O_4  and  C_28
REMARK    5  A    between atoms: O_11  and  C_37
REMARK    6  A    between atoms: O_12  and  C_38
REMARK    7  A    between atoms: O_14  and  C_39
REMARK    8  A    between atoms: O_16  and  C_40
REMARK    9  A    between atoms: O_17  and  C_43
REMARK   10  A    between atoms: O_18  and  C_45
REMARK   11  A    between atoms: C_21  and  C_24
REMARK   12  A    between atoms: C_25  and  C_26
REMARK   13  A    between atoms: C_26  and  C_27
REMARK   14  A    between atoms: C_27  and  C_29
REMARK   15  A    between atoms: C_29  and  C_36
REMARK   16  A    between atoms: C_30  and  C_35
REMARK                            x       y       z     vdW  Elec       q    Type
REMARK                         _______ _______ _______ _____ _____    ______ ____
ROOT
ATOM      1  O   UNL     1     113.060 128.542 139.875  0.00  0.00    +0.000 OA
ATOM      2  O   UNL     1     111.548 128.042 141.771  0.00  0.00    +0.000 OA
ATOM      3  C   UNL     1     112.124 127.672 140.517  0.00  0.00    +0.000 A 
ATOM      4  C   UNL     1     112.629 127.839 139.884  0.00  0.00    +0.000 A 
ATOM      5  C   UNL     1     112.052 128.209 141.139  0.00  0.00    +0.000 A 
ATOM      6  C   UNL     1     112.484 128.912 141.129  0.00  0.00    +0.000 A 
ATOM      7  C   UNL     1     112.987 129.078 140.498  0.00  0.00    +0.000 A 
ATOM      8  C   UNL     1     112.400 129.463 141.784  0.00  0.00    +0.000 A 
ATOM      9  C   UNL     1     113.443 129.807 140.476  0.00  0.00    +0.000 A 
ATOM     10  C   UNL     1     112.846 130.197 141.780  0.00  0.00    +0.000 A 
ATOM     11  C   UNL     1     113.371 130.370 141.121  0.00  0.00    +0.000 A 
ENDROOT
BRANCH   4  12
ATOM     12  C   UNL     1     112.700 127.302 139.263  0.00  0.00    +0.000 A 
ATOM     13  C   UNL     1     112.360 127.471 138.530  0.00  0.00    +0.000 A 
ATOM     14  C   UNL     1     113.113 126.595 139.372  0.00  0.00    +0.000 A 
ATOM     15  C   UNL     1     112.431 126.934 137.908  0.00  0.00    +0.000 A 
ATOM     16  C   UNL     1     113.184 126.059 138.749  0.00  0.00    +0.000 A 
ATOM     17  C   UNL     1     112.844 126.228 138.018  0.00  0.00    +0.000 A 
BRANCH  17  18
ATOM     18  O   UNL     1     112.915 125.692 137.395  0.00  0.00    +0.000 OA
ATOM     19  C   UNL     1     113.336 124.991 137.501  0.00  0.00    +0.000 C 
ENDBRANCH  17  18
BRANCH  15  20
ATOM     20  O   UNL     1     112.091 127.104 137.175  0.00  0.00    +0.000 OA
ATOM     21  C   UNL     1     111.726 127.834 137.049  0.00  0.00    +0.000 C 
ENDBRANCH  15  20
ENDBRANCH   4  12
BRANCH   9  22
ATOM     22  O   UNL     1     113.944 129.965 139.840  0.00  0.00    +0.000 OA
ATOM     23  C   UNL     1     113.717 130.508 139.262  0.00  0.00    +0.000 C 
ENDBRANCH   9  22
BRANCH  11  24
ATOM     24  O   UNL     1     113.804 131.072 141.109  0.00  0.00    +0.000 OA
ATOM     25  C   UNL     1     114.574 131.088 141.405  0.00  0.00    +0.000 C 
ENDBRANCH  11  24
BRANCH  10  26
ATOM     26  O   UNL     1     112.772 130.732 142.404  0.00  0.00    +0.000 OA
ATOM     27  C   UNL     1     112.174 131.300 142.391  0.00  0.00    +0.000 C 
ENDBRANCH  10  26
BRANCH   8  28
ATOM     28  O   UNL     1     111.893 129.288 142.412  0.00  0.00    +0.000 OA
ATOM     29  C   UNL     1     112.185 128.911 143.084  0.00  0.00    +0.000 C 
ENDBRANCH   8  28
BRANCH   3  30
ATOM     30  O   UNL     1     111.693 126.969 140.526  0.00  0.00    +0.000 OA
BRANCH  30  38
ATOM     31  O   UNL     1     110.437 127.603 140.276  0.00  0.00    +0.000 OA
ATOM     32  O   UNL     1     109.284 125.824 141.553  0.00  0.00    +0.000 OA
ATOM     33  O   UNL     1     110.924 125.783 141.378  0.00  0.00    +0.000 OA
ATOM     34  C   UNL     1     109.233 127.030 140.789  0.00  0.00    +0.000 C 
ATOM     35  C   UNL     1     109.668 126.417 141.127  0.00  0.00    +0.000 C 
ATOM     36  C   UNL     1     109.617 127.623 140.363  0.00  0.00    +0.000 C 
ATOM     37  C   UNL     1     110.489 126.396 141.039  0.00  0.00    +0.000 C 
ATOM     38  C   UNL     1     110.873 126.989 140.614  0.00  0.00    +0.000 C 
BRANCH  36  40
ATOM     39  O   UNL     1     109.267 128.413 139.225  0.00  0.00    +0.000 OA
ATOM     40  C   UNL     1     109.181 128.237 140.025  0.00  0.00    +0.000 C 
ENDBRANCH  36  40
BRANCH  34  41
ATOM     41  O   UNL     1     108.412 127.051 140.877  0.00  0.00    +0.000 OA
BRANCH  41  43
ATOM     42  O   UNL     1     108.424 127.912 142.017  0.00  0.00    +0.000 OA
ATOM     43  C   UNL     1     108.080 127.294 141.592  0.00  0.00    +0.000 C 
BRANCH  43  44
ATOM     44  C   UNL     1     107.404 126.920 141.880  0.00  0.00    +0.000 C 
BRANCH  44  46
ATOM     45  O   UNL     1     106.482 127.373 141.327  0.00  0.00    +0.000 OA
ATOM     46  C   UNL     1     106.750 127.368 142.107  0.00  0.00    +0.000 C 
ATOM     47  C   UNL     1     107.017 127.363 142.888  0.00  0.00    +0.000 C 
BRANCH  46  48
ATOM     48  C   UNL     1     106.096 127.816 142.335  0.00  0.00    +0.000 C 
BRANCH  48  51
ATOM     49  O   UNL     1     105.195 127.037 143.127  0.00  0.00    +0.000 OA
ATOM     50  O   UNL     1     104.792 127.505 141.838  0.00  0.00    +0.000 OA
ATOM     51  C   UNL     1     105.361 127.453 142.433  0.00  0.00    +0.000 C 
ENDBRANCH  48  51
ENDBRANCH  46  48
ENDBRANCH  44  46
ENDBRANCH  43  44
ENDBRANCH  41  43
ENDBRANCH  34  41
ENDBRANCH  30  38
ENDBRANCH   3  30
TORSDOF 16
ENDMDL
MODEL 10
REMARK VINA RESULT:      -7.7      3.245      5.700
REMARK  Name = 73092145
REMARK  16 active torsions:
REMARK  status: ('A' for Active; 'I' for Inactive)
REMARK    1  A    between atoms: O_2  and  C_19
REMARK    2  A    between atoms: O_2  and  C_25
REMARK    3  A    between atoms: O_4  and  C_23
REMARK    4  A    between atoms: O_4  and  C_28
REMARK    5  A    between atoms: O_11  and  C_37
REMARK    6  A    between atoms: O_12  and  C_38
REMARK    7  A    between atoms: O_14  and  C_39
REMARK    8  A    between atoms: O_16  and  C_40
REMARK    9  A    between atoms: O_17  and  C_43
REMARK   10  A    between atoms: O_18  and  C_45
REMARK   11  A    between atoms: C_21  and  C_24
REMARK   12  A    between atoms: C_25  and  C_26
REMARK   13  A    between atoms: C_26  and  C_27
REMARK   14  A    between atoms: C_27  and  C_29
REMARK   15  A    between atoms: C_29  and  C_36
REMARK   16  A    between atoms: C_30  and  C_35
REMARK                            x       y       z     vdW  Elec       q    Type
REMARK                         _______ _______ _______ _____ _____    ______ ____
ROOT
ATOM      1  O   UNL     1     112.618 127.567 138.275  0.00  0.00    +0.000 OA
ATOM      2  O   UNL     1     110.183 127.900 138.575  0.00  0.00    +0.000 OA
ATOM      3  C   UNL     1     111.528 128.179 138.968  0.00  0.00    +0.000 A 
ATOM      4  C   UNL     1     112.340 128.068 138.868  0.00  0.00    +0.000 A 
ATOM      5  C   UNL     1     110.995 127.789 138.475  0.00  0.00    +0.000 A 
ATOM      6  C   UNL     1     111.272 127.287 137.882  0.00  0.00    +0.000 A 
ATOM      7  C   UNL     1     112.083 127.176 137.782  0.00  0.00    +0.000 A 
ATOM      8  C   UNL     1     110.706 126.886 137.375  0.00  0.00    +0.000 A 
ATOM      9  C   UNL     1     112.386 126.656 137.167  0.00  0.00    +0.000 A 
ATOM     10  C   UNL     1     110.989 126.362 136.755  0.00  0.00    +0.000 A 
ATOM     11  C   UNL     1     111.835 126.247 136.651  0.00  0.00    +0.000 A 
ENDROOT
BRANCH   4  12
ATOM     12  C   UNL     1     112.873 128.459 139.361  0.00  0.00    +0.000 A 
ATOM     13  C   UNL     1     113.298 128.034 139.927  0.00  0.00    +0.000 A 
ATOM     14  C   UNL     1     112.981 129.274 139.289  0.00  0.00    +0.000 A 
ATOM     15  C   UNL     1     113.831 128.425 140.421  0.00  0.00    +0.000 A 
ATOM     16  C   UNL     1     113.515 129.664 139.783  0.00  0.00    +0.000 A 
ATOM     17  C   UNL     1     113.940 129.240 140.349  0.00  0.00    +0.000 A 
BRANCH  17  18
ATOM     18  O   UNL     1     114.473 129.630 140.843  0.00  0.00    +0.000 OA
ATOM     19  C   UNL     1     114.569 130.447 140.783  0.00  0.00    +0.000 C 
ENDBRANCH  17  18
BRANCH  15  20
ATOM     20  O   UNL     1     114.257 128.001 140.987  0.00  0.00    +0.000 OA
ATOM     21  C   UNL     1     114.408 127.198 140.873  0.00  0.00    +0.000 C 
ENDBRANCH  15  20
ENDBRANCH   4  12
BRANCH   9  22
ATOM     22  O   UNL     1     113.199 126.551 137.074  0.00  0.00    +0.000 OA
ATOM     23  C   UNL     1     113.601 126.959 136.481  0.00  0.00    +0.000 C 
ENDBRANCH   9  22
BRANCH  11  24
ATOM     24  O   UNL     1     112.115 125.746 136.058  0.00  0.00    +0.000 OA
ATOM     25  C   UNL     1     112.259 124.950 136.224  0.00  0.00    +0.000 C 
ENDBRANCH  11  24
BRANCH  10  26
ATOM     26  O   UNL     1     110.453 125.973 136.263  0.00  0.00    +0.000 OA
ATOM     27  C   UNL     1     110.244 126.303 135.537  0.00  0.00    +0.000 C 
ENDBRANCH  10  26
BRANCH   8  28
ATOM     28  O   UNL     1     109.896 127.003 137.482  0.00  0.00    +0.000 OA
ATOM     29  C   UNL     1     109.425 126.388 137.767  0.00  0.00    +0.000 C 
ENDBRANCH   8  28
BRANCH   3  30
ATOM     30  O   UNL     1     111.250 128.681 139.562  0.00  0.00    +0.000 OA
BRANCH  30  38
ATOM     31  O   UNL     1     110.830 127.616 140.417  0.00  0.00    +0.000 OA
ATOM     32  O   UNL     1     109.053 129.064 141.348  0.00  0.00    +0.000 OA
ATOM     33  O   UNL     1     110.065 129.647 140.182  0.00  0.00    +0.000 OA
ATOM     34  C   UNL     1     109.732 127.808 141.310  0.00  0.00    +0.000 C 
ATOM     35  C   UNL     1     109.645 128.582 141.038  0.00  0.00    +0.000 C 
ATOM     36  C   UNL     1     110.325 127.325 140.999  0.00  0.00    +0.000 C 
ATOM     37  C   UNL     1     110.152 128.873 140.454  0.00  0.00    +0.000 C 
ATOM     38  C   UNL     1     110.745 128.390 140.144  0.00  0.00    +0.000 C 
BRANCH  36  40
ATOM     39  O   UNL     1     111.153 126.272 141.495  0.00  0.00    +0.000 OA
ATOM     40  C   UNL     1     110.411 126.551 141.272  0.00  0.00    +0.000 C 
ENDBRANCH  36  40
BRANCH  34  41
ATOM     41  O   UNL     1     109.225 127.517 141.893  0.00  0.00    +0.000 OA
BRANCH  41  43
ATOM     42  O   UNL     1     108.290 126.939 140.980  0.00  0.00    +0.000 OA
ATOM     43  C   UNL     1     108.451 127.309 141.700  0.00  0.00    +0.000 C 
BRANCH  43  44
ATOM     44  C   UNL     1     107.838 127.470 142.227  0.00  0.00    +0.000 C 
BRANCH  44  46
ATOM     45  O   UNL     1     107.847 126.640 143.046  0.00  0.00    +0.000 OA
ATOM     46  C   UNL     1     107.320 126.870 142.454  0.00  0.00    +0.000 C 
ATOM     47  C   UNL     1     106.793 127.099 141.863  0.00  0.00    +0.000 C 
BRANCH  46  48
ATOM     48  C   UNL     1     106.803 126.269 142.682  0.00  0.00    +0.000 C 
BRANCH  48  51
ATOM     49  O   UNL     1     105.625 126.683 143.378  0.00  0.00    +0.000 OA
ATOM     50  O   UNL     1     106.694 126.058 144.091  0.00  0.00    +0.000 OA
ATOM     51  C   UNL     1     106.373 126.337 143.384  0.00  0.00    +0.000 C 
ENDBRANCH  48  51
ENDBRANCH  46  48
ENDBRANCH  44  46
ENDBRANCH  43  44
ENDBRANCH  41  43
ENDBRANCH  34  41
ENDBRANCH  30  38
ENDBRANCH   3  30
TORSDOF 16
ENDMDL
