MODEL 1
REMARK VINA RESULT:      -8.5      0.000      0.000
REMARK  Name = 131753028
REMARK  5 active torsions:
REMARK  status: ('A' for Active; 'I' for Inactive)
REMARK    1  A    between atoms: O_2  and  C_14
REMARK    2  A    between atoms: C_7  and  C_11
REMARK    3  A    between atoms: C_16  and  C_23
REMARK    4  A    between atoms: C_17  and  C_22
REMARK    5  A    between atoms: C_22  and  C_24
REMARK                            x       y       z     vdW  Elec       q    Type
REMARK                         _______ _______ _______ _____ _____    ______ ____
ROOT
ATOM      1  O   UNL     1     103.553 130.356 142.633  0.00  0.00    +0.000 OA
ATOM      2  O   UNL     1     104.332 127.959 141.237  0.00  0.00    +0.000 OA
ATOM      3  C   UNL     1     102.544 131.263 142.030  0.00  0.00    +0.000 C 
ATOM      4  C   UNL     1     102.486 130.734 141.356  0.00  0.00    +0.000 C 
ATOM      5  C   UNL     1     103.082 131.073 142.673  0.00  0.00    +0.000 C 
ATOM      6  C   UNL     1     102.965 130.021 141.334  0.00  0.00    +0.000 A 
ATOM      7  C   UNL     1     103.481 129.838 141.951  0.00  0.00    +0.000 A 
ATOM      8  C   UNL     1     102.905 129.516 140.684  0.00  0.00    +0.000 A 
ATOM      9  C   UNL     1     103.937 129.151 141.919  0.00  0.00    +0.000 A 
ATOM     10  C   UNL     1     103.360 128.829 140.652  0.00  0.00    +0.000 A 
ATOM     11  C   UNL     1     103.876 128.647 141.269  0.00  0.00    +0.000 A 
ENDROOT
BRANCH   3  14
ATOM     12  O   UNL     1     103.230 132.726 141.692  0.00  0.00    +0.000 OA
ATOM     13  O   UNL     1     100.717 134.009 142.149  0.00  0.00    +0.000 OA
ATOM     14  C   UNL     1     102.087 131.949 142.059  0.00  0.00    +0.000 A 
ATOM     15  C   UNL     1     102.430 132.681 141.890  0.00  0.00    +0.000 A 
ATOM     16  C   UNL     1     101.288 131.905 142.258  0.00  0.00    +0.000 A 
ATOM     17  C   UNL     1     101.973 133.367 141.920  0.00  0.00    +0.000 A 
ATOM     18  C   UNL     1     100.831 132.591 142.288  0.00  0.00    +0.000 A 
ATOM     19  C   UNL     1     101.173 133.322 142.119  0.00  0.00    +0.000 A 
BRANCH  17  20
ATOM     20  C   UNL     1     102.315 134.098 141.751  0.00  0.00    +0.000 C 
BRANCH  20  21
ATOM     21  C   UNL     1     102.236 134.427 140.999  0.00  0.00    +0.000 C 
ATOM     22  C   UNL     1     102.597 135.148 140.824  0.00  0.00    +0.000 C 
ATOM     23  C   UNL     1     102.517 135.477 140.071  0.00  0.00    +0.000 C 
ATOM     24  C   UNL     1     103.038 135.540 141.400  0.00  0.00    +0.000 C 
ENDBRANCH  20  21
ENDBRANCH  17  20
ENDBRANCH   3  14
BRANCH   8  25
ATOM     25  O   UNL     1     102.389 129.698 140.067  0.00  0.00    +0.000 OA
ATOM     26  C   UNL     1     102.258 129.152 139.463  0.00  0.00    +0.000 C 
ENDBRANCH   8  25
BRANCH   9  28
ATOM     27  O   UNL     1     104.504 128.195 142.816  0.00  0.00    +0.000 OA
ATOM     28  C   UNL     1     104.453 128.969 142.537  0.00  0.00    +0.000 C 
ENDBRANCH   9  28
TORSDOF 5
ENDMDL
MODEL 2
REMARK VINA RESULT:      -8.5      9.800     11.952
REMARK  Name = 131753028
REMARK  5 active torsions:
REMARK  status: ('A' for Active; 'I' for Inactive)
REMARK    1  A    between atoms: O_2  and  C_14
REMARK    2  A    between atoms: C_7  and  C_11
REMARK    3  A    between atoms: C_16  and  C_23
REMARK    4  A    between atoms: C_17  and  C_22
REMARK    5  A    between atoms: C_22  and  C_24
REMARK                            x       y       z     vdW  Elec       q    Type
REMARK                         _______ _______ _______ _____ _____    ______ ____
ROOT
ATOM      1  O   UNL     1     113.684 126.608 139.046  0.00  0.00    +0.000 OA
ATOM      2  O   UNL     1     113.172 127.734 141.648  0.00  0.00    +0.000 OA
ATOM      3  C   UNL     1     112.621 125.832 138.359  0.00  0.00    +0.000 C 
ATOM      4  C   UNL     1     112.102 125.968 139.030  0.00  0.00    +0.000 C 
ATOM      5  C   UNL     1     113.418 126.155 138.367  0.00  0.00    +0.000 C 
ATOM      6  C   UNL     1     112.386 126.424 139.701  0.00  0.00    +0.000 A 
ATOM      7  C   UNL     1     113.151 126.734 139.708  0.00  0.00    +0.000 A 
ATOM      8  C   UNL     1     111.884 126.551 140.342  0.00  0.00    +0.000 A 
ATOM      9  C   UNL     1     113.413 127.170 140.357  0.00  0.00    +0.000 A 
ATOM     10  C   UNL     1     112.145 126.987 140.991  0.00  0.00    +0.000 A 
ATOM     11  C   UNL     1     112.910 127.297 140.998  0.00  0.00    +0.000 A 
ENDROOT
BRANCH   3  14
ATOM     12  O   UNL     1     111.873 126.593 137.099  0.00  0.00    +0.000 OA
ATOM     13  O   UNL     1     111.564 124.084 135.767  0.00  0.00    +0.000 OA
ATOM     14  C   UNL     1     112.357 125.395 137.711  0.00  0.00    +0.000 A 
ATOM     15  C   UNL     1     111.983 125.776 137.081  0.00  0.00    +0.000 A 
ATOM     16  C   UNL     1     112.466 124.578 137.693  0.00  0.00    +0.000 A 
ATOM     17  C   UNL     1     111.719 125.338 136.433  0.00  0.00    +0.000 A 
ATOM     18  C   UNL     1     112.201 124.141 137.045  0.00  0.00    +0.000 A 
ATOM     19  C   UNL     1     111.828 124.521 136.415  0.00  0.00    +0.000 A 
BRANCH  17  20
ATOM     20  C   UNL     1     111.345 125.719 135.804  0.00  0.00    +0.000 C 
BRANCH  20  21
ATOM     21  C   UNL     1     110.529 125.653 135.708  0.00  0.00    +0.000 C 
ATOM     22  C   UNL     1     110.148 126.078 135.112  0.00  0.00    +0.000 C 
ATOM     23  C   UNL     1     109.330 126.011 135.016  0.00  0.00    +0.000 C 
ATOM     24  C   UNL     1     110.583 126.569 134.612  0.00  0.00    +0.000 C 
ENDBRANCH  20  21
ENDBRANCH  17  20
ENDBRANCH   3  14
BRANCH   8  25
ATOM     25  O   UNL     1     111.119 126.241 140.334  0.00  0.00    +0.000 OA
ATOM     26  C   UNL     1     110.569 126.484 140.899  0.00  0.00    +0.000 C 
ENDBRANCH   8  25
BRANCH   9  28
ATOM     27  O   UNL     1     114.703 127.266 140.963  0.00  0.00    +0.000 OA
ATOM     28  C   UNL     1     114.178 127.480 140.365  0.00  0.00    +0.000 C 
ENDBRANCH   9  28
TORSDOF 5
ENDMDL
MODEL 3
REMARK VINA RESULT:      -8.5     10.539     12.433
REMARK  Name = 131753028
REMARK  5 active torsions:
REMARK  status: ('A' for Active; 'I' for Inactive)
REMARK    1  A    between atoms: O_2  and  C_14
REMARK    2  A    between atoms: C_7  and  C_11
REMARK    3  A    between atoms: C_16  and  C_23
REMARK    4  A    between atoms: C_17  and  C_22
REMARK    5  A    between atoms: C_22  and  C_24
REMARK                            x       y       z     vdW  Elec       q    Type
REMARK                         _______ _______ _______ _____ _____    ______ ____
ROOT
ATOM      1  O   UNL     1     111.661 129.490 136.852  0.00  0.00    +0.000 OA
ATOM      2  O   UNL     1     113.790 131.430 136.785  0.00  0.00    +0.000 OA
ATOM      3  C   UNL     1     111.773 128.249 136.044  0.00  0.00    +0.000 C 
ATOM      4  C   UNL     1     112.539 128.514 135.760  0.00  0.00    +0.000 C 
ATOM      5  C   UNL     1     111.331 128.741 136.594  0.00  0.00    +0.000 C 
ATOM      6  C   UNL     1     112.854 129.267 136.030  0.00  0.00    +0.000 A 
ATOM      7  C   UNL     1     112.430 129.739 136.557  0.00  0.00    +0.000 A 
ATOM      8  C   UNL     1     113.590 129.517 135.754  0.00  0.00    +0.000 A 
ATOM      9  C   UNL     1     112.741 130.460 136.809  0.00  0.00    +0.000 A 
ATOM     10  C   UNL     1     113.902 130.237 136.006  0.00  0.00    +0.000 A 
ATOM     11  C   UNL     1     113.478 130.709 136.533  0.00  0.00    +0.000 A 
ENDROOT
BRANCH   3  14
ATOM     12  O   UNL     1     112.040 126.880 136.926  0.00  0.00    +0.000 OA
ATOM     13  O   UNL     1     110.533 125.364 135.029  0.00  0.00    +0.000 OA
ATOM     14  C   UNL     1     111.463 127.528 135.790  0.00  0.00    +0.000 A 
ATOM     15  C   UNL     1     111.597 126.844 136.231  0.00  0.00    +0.000 A 
ATOM     16  C   UNL     1     111.020 127.491 135.095  0.00  0.00    +0.000 A 
ATOM     17  C   UNL     1     111.287 126.122 135.977  0.00  0.00    +0.000 A 
ATOM     18  C   UNL     1     110.710 126.769 134.842  0.00  0.00    +0.000 A 
ATOM     19  C   UNL     1     110.843 126.085 135.282  0.00  0.00    +0.000 A 
BRANCH  17  20
ATOM     20  C   UNL     1     111.420 125.438 136.418  0.00  0.00    +0.000 C 
BRANCH  20  21
ATOM     21  C   UNL     1     112.102 124.991 136.290  0.00  0.00    +0.000 C 
ATOM     22  C   UNL     1     112.245 124.318 136.746  0.00  0.00    +0.000 C 
ATOM     23  C   UNL     1     112.927 123.871 136.617  0.00  0.00    +0.000 C 
ATOM     24  C   UNL     1     111.708 124.093 137.330  0.00  0.00    +0.000 C 
ENDBRANCH  20  21
ENDBRANCH  17  20
ENDBRANCH   3  14
BRANCH   8  25
ATOM     25  O   UNL     1     114.014 129.046 135.226  0.00  0.00    +0.000 OA
ATOM     26  C   UNL     1     114.718 129.323 134.899  0.00  0.00    +0.000 C 
ENDBRANCH   8  25
BRANCH   9  28
ATOM     27  O   UNL     1     112.605 131.059 138.099  0.00  0.00    +0.000 OA
ATOM     28  C   UNL     1     112.317 130.931 137.337  0.00  0.00    +0.000 C 
ENDBRANCH   9  28
TORSDOF 5
ENDMDL
MODEL 4
REMARK VINA RESULT:      -8.4      8.015      9.712
REMARK  Name = 131753028
REMARK  5 active torsions:
REMARK  status: ('A' for Active; 'I' for Inactive)
REMARK    1  A    between atoms: O_2  and  C_14
REMARK    2  A    between atoms: C_7  and  C_11
REMARK    3  A    between atoms: C_16  and  C_23
REMARK    4  A    between atoms: C_17  and  C_22
REMARK    5  A    between atoms: C_22  and  C_24
REMARK                            x       y       z     vdW  Elec       q    Type
REMARK                         _______ _______ _______ _____ _____    ______ ____
ROOT
ATOM      1  O   UNL     1     105.732 124.549 148.782  0.00  0.00    +0.000 OA
ATOM      2  O   UNL     1     108.320 125.136 147.659  0.00  0.00    +0.000 OA
ATOM      3  C   UNL     1     104.508 125.040 148.100  0.00  0.00    +0.000 C 
ATOM      4  C   UNL     1     105.000 125.399 147.495  0.00  0.00    +0.000 C 
ATOM      5  C   UNL     1     104.877 124.612 148.748  0.00  0.00    +0.000 C 
ATOM      6  C   UNL     1     105.855 125.326 147.545  0.00  0.00    +0.000 A 
ATOM      7  C   UNL     1     106.209 124.916 148.167  0.00  0.00    +0.000 A 
ATOM      8  C   UNL     1     106.323 125.673 146.962  0.00  0.00    +0.000 A 
ATOM      9  C   UNL     1     107.030 124.852 148.205  0.00  0.00    +0.000 A 
ATOM     10  C   UNL     1     107.144 125.610 146.999  0.00  0.00    +0.000 A 
ATOM     11  C   UNL     1     107.498 125.199 147.621  0.00  0.00    +0.000 A 
ENDROOT
BRANCH   3  14
ATOM     12  O   UNL     1     103.615 123.824 147.430  0.00  0.00    +0.000 OA
ATOM     13  O   UNL     1     101.221 125.301 147.940  0.00  0.00    +0.000 OA
ATOM     14  C   UNL     1     103.686 125.105 148.060  0.00  0.00    +0.000 A 
ATOM     15  C   UNL     1     103.240 124.497 147.725  0.00  0.00    +0.000 A 
ATOM     16  C   UNL     1     103.311 125.778 148.355  0.00  0.00    +0.000 A 
ATOM     17  C   UNL     1     102.418 124.563 147.685  0.00  0.00    +0.000 A 
ATOM     18  C   UNL     1     102.489 125.843 148.315  0.00  0.00    +0.000 A 
ATOM     19  C   UNL     1     102.043 125.236 147.980  0.00  0.00    +0.000 A 
BRANCH  17  20
ATOM     20  C   UNL     1     101.972 123.955 147.350  0.00  0.00    +0.000 C 
BRANCH  20  21
ATOM     21  C   UNL     1     101.747 123.997 146.558  0.00  0.00    +0.000 C 
ATOM     22  C   UNL     1     101.300 123.389 146.223  0.00  0.00    +0.000 C 
ATOM     23  C   UNL     1     101.076 123.432 145.430  0.00  0.00    +0.000 C 
ATOM     24  C   UNL     1     101.079 122.740 146.681  0.00  0.00    +0.000 C 
ENDBRANCH  20  21
ENDBRANCH  17  20
ENDBRANCH   3  14
BRANCH   8  25
ATOM     25  O   UNL     1     105.969 126.084 146.340  0.00  0.00    +0.000 OA
ATOM     26  C   UNL     1     106.435 126.494 145.797  0.00  0.00    +0.000 C 
ENDBRANCH   8  25
BRANCH   9  28
ATOM     27  O   UNL     1     107.838 124.846 149.384  0.00  0.00    +0.000 OA
ATOM     28  C   UNL     1     107.384 124.441 148.827  0.00  0.00    +0.000 C 
ENDBRANCH   9  28
TORSDOF 5
ENDMDL
MODEL 5
REMARK VINA RESULT:      -8.4     10.998     12.172
REMARK  Name = 131753028
REMARK  5 active torsions:
REMARK  status: ('A' for Active; 'I' for Inactive)
REMARK    1  A    between atoms: O_2  and  C_14
REMARK    2  A    between atoms: C_7  and  C_11
REMARK    3  A    between atoms: C_16  and  C_23
REMARK    4  A    between atoms: C_17  and  C_22
REMARK    5  A    between atoms: C_22  and  C_24
REMARK                            x       y       z     vdW  Elec       q    Type
REMARK                         _______ _______ _______ _____ _____    ______ ____
ROOT
ATOM      1  O   UNL     1     113.035 125.965 137.215  0.00  0.00    +0.000 OA
ATOM      2  O   UNL     1     111.678 123.570 136.365  0.00  0.00    +0.000 OA
ATOM      3  C   UNL     1     112.556 127.288 136.741  0.00  0.00    +0.000 C 
ATOM      4  C   UNL     1     111.936 126.893 136.296  0.00  0.00    +0.000 C 
ATOM      5  C   UNL     1     113.109 126.820 137.204  0.00  0.00    +0.000 C 
ATOM      6  C   UNL     1     111.877 126.036 136.320  0.00  0.00    +0.000 A 
ATOM      7  C   UNL     1     112.408 125.587 136.764  0.00  0.00    +0.000 A 
ATOM      8  C   UNL     1     111.280 125.663 135.891  0.00  0.00    +0.000 A 
ATOM      9  C   UNL     1     112.342 124.765 136.779  0.00  0.00    +0.000 A 
ATOM     10  C   UNL     1     111.214 124.841 135.905  0.00  0.00    +0.000 A 
ATOM     11  C   UNL     1     111.745 124.392 136.350  0.00  0.00    +0.000 A 
ENDROOT
BRANCH   3  14
ATOM     12  O   UNL     1     113.622 128.012 135.710  0.00  0.00    +0.000 OA
ATOM     13  O   UNL     1     112.812 130.578 136.675  0.00  0.00    +0.000 OA
ATOM     14  C   UNL     1     112.620 128.110 136.725  0.00  0.00    +0.000 A 
ATOM     15  C   UNL     1     113.153 128.472 136.209  0.00  0.00    +0.000 A 
ATOM     16  C   UNL     1     112.152 128.570 137.223  0.00  0.00    +0.000 A 
ATOM     17  C   UNL     1     113.217 129.295 136.193  0.00  0.00    +0.000 A 
ATOM     18  C   UNL     1     112.216 129.393 137.207  0.00  0.00    +0.000 A 
ATOM     19  C   UNL     1     112.748 129.755 136.692  0.00  0.00    +0.000 A 
BRANCH  17  20
ATOM     20  C   UNL     1     113.750 129.657 135.677  0.00  0.00    +0.000 C 
BRANCH  20  21
ATOM     21  C   UNL     1     114.450 129.982 135.969  0.00  0.00    +0.000 C 
ATOM     22  C   UNL     1     115.009 130.292 135.448  0.00  0.00    +0.000 C 
ATOM     23  C   UNL     1     115.709 130.618 135.740  0.00  0.00    +0.000 C 
ATOM     24  C   UNL     1     114.869 130.277 134.635  0.00  0.00    +0.000 C 
ENDBRANCH  20  21
ENDBRANCH  17  20
ENDBRANCH   3  14
BRANCH   8  25
ATOM     25  O   UNL     1     110.749 126.112 135.446  0.00  0.00    +0.000 OA
ATOM     26  C   UNL     1     110.185 125.737 134.975  0.00  0.00    +0.000 C 
ENDBRANCH   8  25
BRANCH   9  28
ATOM     27  O   UNL     1     113.402 123.810 136.845  0.00  0.00    +0.000 OA
ATOM     28  C   UNL     1     112.873 124.316 137.223  0.00  0.00    +0.000 C 
ENDBRANCH   9  28
TORSDOF 5
ENDMDL
MODEL 6
REMARK VINA RESULT:      -8.3     11.028     12.324
REMARK  Name = 131753028
REMARK  5 active torsions:
REMARK  status: ('A' for Active; 'I' for Inactive)
REMARK    1  A    between atoms: O_2  and  C_14
REMARK    2  A    between atoms: C_7  and  C_11
REMARK    3  A    between atoms: C_16  and  C_23
REMARK    4  A    between atoms: C_17  and  C_22
REMARK    5  A    between atoms: C_22  and  C_24
REMARK                            x       y       z     vdW  Elec       q    Type
REMARK                         _______ _______ _______ _____ _____    ______ ____
ROOT
ATOM      1  O   UNL     1     111.762 126.569 136.178  0.00  0.00    +0.000 OA
ATOM      2  O   UNL     1     112.039 123.725 136.553  0.00  0.00    +0.000 OA
ATOM      3  C   UNL     1     112.928 127.457 136.411  0.00  0.00    +0.000 C 
ATOM      4  C   UNL     1     113.399 126.769 136.615  0.00  0.00    +0.000 C 
ATOM      5  C   UNL     1     112.103 127.356 136.191  0.00  0.00    +0.000 C 
ATOM      6  C   UNL     1     113.040 125.988 136.596  0.00  0.00    +0.000 A 
ATOM      7  C   UNL     1     112.249 125.891 136.385  0.00  0.00    +0.000 A 
ATOM      8  C   UNL     1     113.498 125.331 136.793  0.00  0.00    +0.000 A 
ATOM      9  C   UNL     1     111.915 125.137 136.370  0.00  0.00    +0.000 A 
ATOM     10  C   UNL     1     113.164 124.577 136.778  0.00  0.00    +0.000 A 
ATOM     11  C   UNL     1     112.373 124.480 136.567  0.00  0.00    +0.000 A 
ENDROOT
BRANCH   3  14
ATOM     12  O   UNL     1     112.727 128.425 137.734  0.00  0.00    +0.000 OA
ATOM     13  O   UNL     1     114.273 130.470 136.472  0.00  0.00    +0.000 OA
ATOM     14  C   UNL     1     113.264 128.210 136.427  0.00  0.00    +0.000 A 
ATOM     15  C   UNL     1     113.164 128.694 137.088  0.00  0.00    +0.000 A 
ATOM     16  C   UNL     1     113.701 128.480 135.781  0.00  0.00    +0.000 A 
ATOM     17  C   UNL     1     113.500 129.447 137.102  0.00  0.00    +0.000 A 
ATOM     18  C   UNL     1     114.037 129.233 135.796  0.00  0.00    +0.000 A 
ATOM     19  C   UNL     1     113.937 129.717 136.456  0.00  0.00    +0.000 A 
BRANCH  17  20
ATOM     20  C   UNL     1     113.400 129.930 137.763  0.00  0.00    +0.000 C 
BRANCH  20  21
ATOM     21  C   UNL     1     113.997 129.983 138.331  0.00  0.00    +0.000 C 
ATOM     22  C   UNL     1     113.860 130.385 139.038  0.00  0.00    +0.000 C 
ATOM     23  C   UNL     1     114.458 130.437 139.605  0.00  0.00    +0.000 C 
ATOM     24  C   UNL     1     113.126 130.735 139.178  0.00  0.00    +0.000 C 
ENDBRANCH  20  21
ENDBRANCH  17  20
ENDBRANCH   3  14
BRANCH   8  25
ATOM     25  O   UNL     1     114.289 125.428 137.004  0.00  0.00    +0.000 OA
ATOM     26  C   UNL     1     114.729 124.781 137.267  0.00  0.00    +0.000 C 
ENDBRANCH   8  25
BRANCH   9  28
ATOM     27  O   UNL     1     110.929 124.715 135.427  0.00  0.00    +0.000 OA
ATOM     28  C   UNL     1     111.123 125.040 136.159  0.00  0.00    +0.000 C 
ENDBRANCH   9  28
TORSDOF 5
ENDMDL
MODEL 7
REMARK VINA RESULT:      -8.2      9.374     12.055
REMARK  Name = 131753028
REMARK  5 active torsions:
REMARK  status: ('A' for Active; 'I' for Inactive)
REMARK    1  A    between atoms: O_2  and  C_14
REMARK    2  A    between atoms: C_7  and  C_11
REMARK    3  A    between atoms: C_16  and  C_23
REMARK    4  A    between atoms: C_17  and  C_22
REMARK    5  A    between atoms: C_22  and  C_24
REMARK                            x       y       z     vdW  Elec       q    Type
REMARK                         _______ _______ _______ _____ _____    ______ ____
ROOT
ATOM      1  O   UNL     1     110.603 127.873 134.959  0.00  0.00    +0.000 OA
ATOM      2  O   UNL     1     109.036 130.108 135.883  0.00  0.00    +0.000 OA
ATOM      3  C   UNL     1     110.885 126.743 135.880  0.00  0.00    +0.000 C 
ATOM      4  C   UNL     1     110.439 127.145 136.494  0.00  0.00    +0.000 C 
ATOM      5  C   UNL     1     110.968 127.110 135.107  0.00  0.00    +0.000 C 
ATOM      6  C   UNL     1     110.080 127.908 136.328  0.00  0.00    +0.000 A 
ATOM      7  C   UNL     1     110.160 128.260 135.586  0.00  0.00    +0.000 A 
ATOM      8  C   UNL     1     109.653 128.289 136.921  0.00  0.00    +0.000 A 
ATOM      9  C   UNL     1     109.812 128.993 135.437  0.00  0.00    +0.000 A 
ATOM     10  C   UNL     1     109.305 129.022 136.774  0.00  0.00    +0.000 A 
ATOM     11  C   UNL     1     109.384 129.374 136.032  0.00  0.00    +0.000 A 
ENDROOT
BRANCH   3  14
ATOM     12  O   UNL     1     112.393 126.665 136.546  0.00  0.00    +0.000 OA
ATOM     13  O   UNL     1     112.273 123.810 136.483  0.00  0.00    +0.000 OA
ATOM     14  C   UNL     1     111.232 126.010 136.031  0.00  0.00    +0.000 A 
ATOM     15  C   UNL     1     111.986 125.972 136.364  0.00  0.00    +0.000 A 
ATOM     16  C   UNL     1     110.825 125.316 135.848  0.00  0.00    +0.000 A 
ATOM     17  C   UNL     1     112.333 125.238 136.514  0.00  0.00    +0.000 A 
ATOM     18  C   UNL     1     111.173 124.583 135.999  0.00  0.00    +0.000 A 
ATOM     19  C   UNL     1     111.926 124.543 136.332  0.00  0.00    +0.000 A 
BRANCH  17  20
ATOM     20  C   UNL     1     113.087 125.199 136.847  0.00  0.00    +0.000 C 
BRANCH  20  21
ATOM     21  C   UNL     1     113.752 125.184 136.360  0.00  0.00    +0.000 C 
ATOM     22  C   UNL     1     114.506 125.143 136.693  0.00  0.00    +0.000 C 
ATOM     23  C   UNL     1     115.172 125.128 136.206  0.00  0.00    +0.000 C 
ATOM     24  C   UNL     1     114.594 125.116 137.513  0.00  0.00    +0.000 C 
ENDBRANCH  20  21
ENDBRANCH  17  20
ENDBRANCH   3  14
BRANCH   8  25
ATOM     25  O   UNL     1     109.574 127.937 137.663  0.00  0.00    +0.000 OA
ATOM     26  C   UNL     1     109.497 128.407 138.337  0.00  0.00    +0.000 C 
ENDBRANCH   8  25
BRANCH   9  28
ATOM     27  O   UNL     1     110.335 130.035 134.612  0.00  0.00    +0.000 OA
ATOM     28  C   UNL     1     109.891 129.345 134.696  0.00  0.00    +0.000 C 
ENDBRANCH   9  28
TORSDOF 5
ENDMDL
MODEL 8
REMARK VINA RESULT:      -8.2      7.334      8.978
REMARK  Name = 131753028
REMARK  5 active torsions:
REMARK  status: ('A' for Active; 'I' for Inactive)
REMARK    1  A    between atoms: O_2  and  C_14
REMARK    2  A    between atoms: C_7  and  C_11
REMARK    3  A    between atoms: C_16  and  C_23
REMARK    4  A    between atoms: C_17  and  C_22
REMARK    5  A    between atoms: C_22  and  C_24
REMARK                            x       y       z     vdW  Elec       q    Type
REMARK                         _______ _______ _______ _____ _____    ______ ____
ROOT
ATOM      1  O   UNL     1     103.279 124.775 147.610  0.00  0.00    +0.000 OA
ATOM      2  O   UNL     1     101.350 123.051 146.343  0.00  0.00    +0.000 OA
ATOM      3  C   UNL     1     104.686 124.776 147.136  0.00  0.00    +0.000 C 
ATOM      4  C   UNL     1     104.479 124.185 146.548  0.00  0.00    +0.000 C 
ATOM      5  C   UNL     1     104.082 125.074 147.671  0.00  0.00    +0.000 C 
ATOM      6  C   UNL     1     103.670 123.899 146.503  0.00  0.00    +0.000 A 
ATOM      7  C   UNL     1     103.090 124.184 147.016  0.00  0.00    +0.000 A 
ATOM      8  C   UNL     1     103.476 123.331 145.936  0.00  0.00    +0.000 A 
ATOM      9  C   UNL     1     102.317 123.901 146.963  0.00  0.00    +0.000 A 
ATOM     10  C   UNL     1     102.704 123.049 145.883  0.00  0.00    +0.000 A 
ATOM     11  C   UNL     1     102.124 123.334 146.396  0.00  0.00    +0.000 A 
ENDROOT
BRANCH   3  14
ATOM     12  O   UNL     1     105.139 126.112 146.278  0.00  0.00    +0.000 OA
ATOM     13  O   UNL     1     107.783 125.900 147.342  0.00  0.00    +0.000 OA
ATOM     14  C   UNL     1     105.460 125.057 147.187  0.00  0.00    +0.000 A 
ATOM     15  C   UNL     1     105.686 125.725 146.758  0.00  0.00    +0.000 A 
ATOM     16  C   UNL     1     106.009 124.671 147.668  0.00  0.00    +0.000 A 
ATOM     17  C   UNL     1     106.461 126.005 146.810  0.00  0.00    +0.000 A 
ATOM     18  C   UNL     1     106.782 124.952 147.719  0.00  0.00    +0.000 A 
ATOM     19  C   UNL     1     107.009 125.619 147.291  0.00  0.00    +0.000 A 
BRANCH  17  20
ATOM     20  C   UNL     1     106.687 126.673 146.381  0.00  0.00    +0.000 C 
BRANCH  20  21
ATOM     21  C   UNL     1     106.609 127.423 146.714  0.00  0.00    +0.000 C 
ATOM     22  C   UNL     1     106.797 128.093 146.271  0.00  0.00    +0.000 C 
ATOM     23  C   UNL     1     106.718 128.844 146.605  0.00  0.00    +0.000 C 
ATOM     24  C   UNL     1     107.062 128.013 145.494  0.00  0.00    +0.000 C 
ENDBRANCH  20  21
ENDBRANCH  17  20
ENDBRANCH   3  14
BRANCH   8  25
ATOM     25  O   UNL     1     104.056 123.046 145.423  0.00  0.00    +0.000 OA
ATOM     26  C   UNL     1     103.842 122.740 144.688  0.00  0.00    +0.000 C 
ENDBRANCH   8  25
BRANCH   9  28
ATOM     27  O   UNL     1     101.349 123.669 147.987  0.00  0.00    +0.000 OA
ATOM     28  C   UNL     1     101.737 124.186 147.476  0.00  0.00    +0.000 C 
ENDBRANCH   9  28
TORSDOF 5
ENDMDL
MODEL 9
REMARK VINA RESULT:      -8.2      1.030      4.949
REMARK  Name = 131753028
REMARK  5 active torsions:
REMARK  status: ('A' for Active; 'I' for Inactive)
REMARK    1  A    between atoms: O_2  and  C_14
REMARK    2  A    between atoms: C_7  and  C_11
REMARK    3  A    between atoms: C_16  and  C_23
REMARK    4  A    between atoms: C_17  and  C_22
REMARK    5  A    between atoms: C_22  and  C_24
REMARK                            x       y       z     vdW  Elec       q    Type
REMARK                         _______ _______ _______ _____ _____    ______ ____
ROOT
ATOM      1  O   UNL     1     101.253 132.155 142.106  0.00  0.00    +0.000 OA
ATOM      2  O   UNL     1     101.478 135.026 142.037  0.00  0.00    +0.000 OA
ATOM      3  C   UNL     1     102.239 131.323 141.371  0.00  0.00    +0.000 C 
ATOM      4  C   UNL     1     102.635 132.040 141.110  0.00  0.00    +0.000 C 
ATOM      5  C   UNL     1     101.543 131.381 141.872  0.00  0.00    +0.000 C 
ATOM      6  C   UNL     1     102.330 132.805 141.353  0.00  0.00    +0.000 A 
ATOM      7  C   UNL     1     101.662 132.861 141.835  0.00  0.00    +0.000 A 
ATOM      8  C   UNL     1     102.713 133.490 141.100  0.00  0.00    +0.000 A 
ATOM      9  C   UNL     1     101.378 133.601 142.063  0.00  0.00    +0.000 A 
ATOM     10  C   UNL     1     102.430 134.230 141.327  0.00  0.00    +0.000 A 
ATOM     11  C   UNL     1     101.762 134.285 141.809  0.00  0.00    +0.000 A 
ENDROOT
BRANCH   3  14
ATOM     12  O   UNL     1     103.286 130.503 142.349  0.00  0.00    +0.000 OA
ATOM     13  O   UNL     1     103.383 128.366 140.453  0.00  0.00    +0.000 OA
ATOM     14  C   UNL     1     102.525 130.584 141.141  0.00  0.00    +0.000 A 
ATOM     15  C   UNL     1     103.048 130.174 141.631  0.00  0.00    +0.000 A 
ATOM     16  C   UNL     1     102.289 130.255 140.423  0.00  0.00    +0.000 A 
ATOM     17  C   UNL     1     103.334 129.435 141.401  0.00  0.00    +0.000 A 
ATOM     18  C   UNL     1     102.574 129.516 140.194  0.00  0.00    +0.000 A 
ATOM     19  C   UNL     1     103.097 129.105 140.682  0.00  0.00    +0.000 A 
BRANCH  17  20
ATOM     20  C   UNL     1     103.857 129.025 141.890  0.00  0.00    +0.000 C 
BRANCH  20  21
ATOM     21  C   UNL     1     104.668 129.055 141.744  0.00  0.00    +0.000 C 
ATOM     22  C   UNL     1     105.194 128.685 142.261  0.00  0.00    +0.000 C 
ATOM     23  C   UNL     1     106.006 128.715 142.114  0.00  0.00    +0.000 C 
ATOM     24  C   UNL     1     104.909 128.285 142.923  0.00  0.00    +0.000 C 
ENDBRANCH  20  21
ENDBRANCH  17  20
ENDBRANCH   3  14
BRANCH   8  25
ATOM     25  O   UNL     1     103.381 133.434 140.619  0.00  0.00    +0.000 OA
ATOM     26  C   UNL     1     103.768 134.118 140.369  0.00  0.00    +0.000 C 
ENDBRANCH   8  25
BRANCH   9  28
ATOM     27  O   UNL     1     100.776 133.963 143.307  0.00  0.00    +0.000 OA
ATOM     28  C   UNL     1     100.710 133.657 142.544  0.00  0.00    +0.000 C 
ENDBRANCH   9  28
TORSDOF 5
ENDMDL
MODEL 10
REMARK VINA RESULT:      -8.0      6.711      8.729
REMARK  Name = 131753028
REMARK  5 active torsions:
REMARK  status: ('A' for Active; 'I' for Inactive)
REMARK    1  A    between atoms: O_2  and  C_14
REMARK    2  A    between atoms: C_7  and  C_11
REMARK    3  A    between atoms: C_16  and  C_23
REMARK    4  A    between atoms: C_17  and  C_22
REMARK    5  A    between atoms: C_22  and  C_24
REMARK                            x       y       z     vdW  Elec       q    Type
REMARK                         _______ _______ _______ _____ _____    ______ ____
ROOT
ATOM      1  O   UNL     1     105.627 124.752 144.100  0.00  0.00    +0.000 OA
ATOM      2  O   UNL     1     106.369 125.346 141.380  0.00  0.00    +0.000 OA
ATOM      3  C   UNL     1     105.994 125.697 145.184  0.00  0.00    +0.000 C 
ATOM      4  C   UNL     1     106.368 126.206 144.602  0.00  0.00    +0.000 C 
ATOM      5  C   UNL     1     105.621 124.964 144.931  0.00  0.00    +0.000 C 
ATOM      6  C   UNL     1     106.363 125.976 143.773  0.00  0.00    +0.000 A 
ATOM      7  C   UNL     1     106.005 125.274 143.531  0.00  0.00    +0.000 A 
ATOM      8  C   UNL     1     106.723 126.468 143.218  0.00  0.00    +0.000 A 
ATOM      9  C   UNL     1     106.007 125.063 142.733  0.00  0.00    +0.000 A 
ATOM     10  C   UNL     1     106.725 126.259 142.421  0.00  0.00    +0.000 A 
ATOM     11  C   UNL     1     106.367 125.556 142.178  0.00  0.00    +0.000 A 
ENDROOT
BRANCH   3  14
ATOM     12  O   UNL     1     107.090 125.023 146.219  0.00  0.00    +0.000 OA
ATOM     13  O   UNL     1     105.991 126.546 148.374  0.00  0.00    +0.000 OA
ATOM     14  C   UNL     1     105.994 125.909 145.982  0.00  0.00    +0.000 A 
ATOM     15  C   UNL     1     106.542 125.572 146.499  0.00  0.00    +0.000 A 
ATOM     16  C   UNL     1     105.445 126.458 146.262  0.00  0.00    +0.000 A 
ATOM     17  C   UNL     1     106.540 125.785 147.296  0.00  0.00    +0.000 A 
ATOM     18  C   UNL     1     105.445 126.670 147.059  0.00  0.00    +0.000 A 
ATOM     19  C   UNL     1     105.992 126.334 147.576  0.00  0.00    +0.000 A 
BRANCH  17  20
ATOM     20  C   UNL     1     107.088 125.448 147.813  0.00  0.00    +0.000 C 
BRANCH  20  21
ATOM     21  C   UNL     1     106.839 124.908 148.384  0.00  0.00    +0.000 C 
ATOM     22  C   UNL     1     107.393 124.531 148.866  0.00  0.00    +0.000 C 
ATOM     23  C   UNL     1     107.142 123.990 149.437  0.00  0.00    +0.000 C 
ATOM     24  C   UNL     1     108.196 124.695 148.777  0.00  0.00    +0.000 C 
ENDBRANCH  20  21
ENDBRANCH  17  20
ENDBRANCH   3  14
BRANCH   8  25
ATOM     25  O   UNL     1     107.081 127.171 143.461  0.00  0.00    +0.000 OA
ATOM     26  C   UNL     1     107.431 127.669 142.905  0.00  0.00    +0.000 C 
ENDBRANCH   8  25
BRANCH   9  28
ATOM     27  O   UNL     1     105.039 124.379 141.936  0.00  0.00    +0.000 OA
ATOM     28  C   UNL     1     105.649 124.361 142.490  0.00  0.00    +0.000 C 
ENDBRANCH   9  28
TORSDOF 5
ENDMDL
