MODEL 1
REMARK VINA RESULT:      -8.6      0.000      0.000
REMARK  Name = 
REMARK  5 active torsions:
REMARK  status: ('A' for Active; 'I' for Inactive)
REMARK    1  A    between atoms: O_2  and  C_13
REMARK    2  A    between atoms: O_2  and  C_15
REMARK    3  A    between atoms: O_8  and  C_21
REMARK    4  A    between atoms: C_22  and  O_31
REMARK    5  A    between atoms: C_23  and  C_24
REMARK                            x       y       z     vdW  Elec       q    Type
REMARK                         _______ _______ _______ _____ _____    ______ ____
ROOT
ATOM      1  O   UNL     1     106.408 124.979 146.164  0.00  0.00    +0.000 OA
ATOM      2  O   UNL     1     107.183 127.818 145.683  0.00  0.00    +0.000 OA
ATOM      3  C   UNL     1     106.431 126.759 144.168  0.00  0.00    +0.000 A 
ATOM      4  C   UNL     1     106.548 126.327 145.102  0.00  0.00    +0.000 A 
ATOM      5  C   UNL     1     106.290 125.380 145.262  0.00  0.00    +0.000 A 
ATOM      6  C   UNL     1     106.040 126.197 143.391  0.00  0.00    +0.000 A 
ATOM      7  C   UNL     1     106.925 126.872 145.844  0.00  0.00    +0.000 C 
ATOM      8  C   UNL     1     107.043 126.470 146.746  0.00  0.00    +0.000 C 
ATOM      9  C   UNL     1     105.771 125.211 143.558  0.00  0.00    +0.000 A 
ATOM     10  C   UNL     1     105.896 124.800 144.500  0.00  0.00    +0.000 A 
ATOM     11  C   UNL     1     106.784 125.524 146.906  0.00  0.00    +0.000 C 
ENDROOT
BRANCH  11  12
ATOM     12  C   UNL     1     106.902 125.123 147.808  0.00  0.00    +0.000 A 
ATOM     13  C   UNL     1     106.114 124.989 148.399  0.00  0.00    +0.000 A 
ATOM     14  C   UNL     1     107.808 124.855 148.118  0.00  0.00    +0.000 A 
ATOM     15  C   UNL     1     106.233 124.587 149.301  0.00  0.00    +0.000 A 
ATOM     16  C   UNL     1     107.925 124.454 149.020  0.00  0.00    +0.000 A 
ATOM     17  C   UNL     1     107.139 124.320 149.611  0.00  0.00    +0.000 A 
ENDBRANCH  11  12
BRANCH   9  18
ATOM     18  O   UNL     1     105.394 124.663 142.819  0.00  0.00    +0.000 OA
ATOM     19  C   UNL     1     105.709 124.804 141.887  0.00  0.00    +0.000 C 
ENDBRANCH   9  18
BRANCH  10  20
ATOM     20  O   UNL     1     105.641 123.855 144.672  0.00  0.00    +0.000 OA
ATOM     21  C   UNL     1     104.724 123.637 144.988  0.00  0.00    +0.000 C 
ENDBRANCH  10  20
BRANCH   3  22
ATOM     22  O   UNL     1     106.693 127.706 144.019  0.00  0.00    +0.000 OA
BRANCH  22  31
ATOM     23  O   UNL     1     107.954 127.510 142.862  0.00  0.00    +0.000 OA
ATOM     24  O   UNL     1     106.781 129.699 141.212  0.00  0.00    +0.000 OA
ATOM     25  O   UNL     1     108.433 128.773 140.606  0.00  0.00    +0.000 OA
ATOM     26  O   UNL     1     105.911 129.165 142.918  0.00  0.00    +0.000 OA
ATOM     27  C   UNL     1     107.172 128.969 141.762  0.00  0.00    +0.000 C 
ATOM     28  C   UNL     1     107.998 128.506 141.459  0.00  0.00    +0.000 C 
ATOM     29  C   UNL     1     106.737 128.702 142.615  0.00  0.00    +0.000 C 
ATOM     30  C   UNL     1     108.389 127.777 142.009  0.00  0.00    +0.000 C 
ATOM     31  C   UNL     1     107.128 127.973 143.166  0.00  0.00    +0.000 C 
ATOM     32  C   UNL     1     109.215 127.314 141.706  0.00  0.00    +0.000 C 
ENDBRANCH  22  31
ENDBRANCH   3  22
TORSDOF 5
ENDMDL
MODEL 2
REMARK VINA RESULT:      -8.5      7.708      9.797
REMARK  Name = 
REMARK  5 active torsions:
REMARK  status: ('A' for Active; 'I' for Inactive)
REMARK    1  A    between atoms: O_2  and  C_13
REMARK    2  A    between atoms: O_2  and  C_15
REMARK    3  A    between atoms: O_8  and  C_21
REMARK    4  A    between atoms: C_22  and  O_31
REMARK    5  A    between atoms: C_23  and  C_24
REMARK                            x       y       z     vdW  Elec       q    Type
REMARK                         _______ _______ _______ _____ _____    ______ ____
ROOT
ATOM      1  O   UNL     1     112.430 126.926 137.435  0.00  0.00    +0.000 OA
ATOM      2  O   UNL     1     113.970 127.193 139.974  0.00  0.00    +0.000 OA
ATOM      3  C   UNL     1     113.241 128.841 139.116  0.00  0.00    +0.000 A 
ATOM      4  C   UNL     1     113.085 127.912 138.685  0.00  0.00    +0.000 A 
ATOM      5  C   UNL     1     112.572 127.824 137.838  0.00  0.00    +0.000 A 
ATOM      6  C   UNL     1     112.857 129.687 138.661  0.00  0.00    +0.000 A 
ATOM      7  C   UNL     1     113.457 127.104 139.128  0.00  0.00    +0.000 C 
ATOM      8  C   UNL     1     113.315 126.206 138.725  0.00  0.00    +0.000 C 
ATOM      9  C   UNL     1     112.322 129.595 137.778  0.00  0.00    +0.000 A 
ATOM     10  C   UNL     1     112.178 128.656 137.365  0.00  0.00    +0.000 A 
ATOM     11  C   UNL     1     112.801 126.117 137.878  0.00  0.00    +0.000 C 
ENDROOT
BRANCH  11  12
ATOM     12  C   UNL     1     112.660 125.220 137.475  0.00  0.00    +0.000 A 
ATOM     13  C   UNL     1     111.803 124.737 137.624  0.00  0.00    +0.000 A 
ATOM     14  C   UNL     1     113.374 124.805 136.923  0.00  0.00    +0.000 A 
ATOM     15  C   UNL     1     111.663 123.840 137.221  0.00  0.00    +0.000 A 
ATOM     16  C   UNL     1     113.233 123.907 136.520  0.00  0.00    +0.000 A 
ATOM     17  C   UNL     1     112.377 123.424 136.668  0.00  0.00    +0.000 A 
ENDBRANCH  11  12
BRANCH   9  18
ATOM     18  O   UNL     1     111.949 130.401 137.332  0.00  0.00    +0.000 OA
ATOM     19  C   UNL     1     111.857 131.251 137.839  0.00  0.00    +0.000 C 
ENDBRANCH   9  18
BRANCH  10  20
ATOM     20  O   UNL     1     111.666 128.556 136.518  0.00  0.00    +0.000 OA
ATOM     21  C   UNL     1     112.140 128.583 135.645  0.00  0.00    +0.000 C 
ENDBRANCH  10  20
BRANCH   3  22
ATOM     22  O   UNL     1     113.756 128.918 139.963  0.00  0.00    +0.000 OA
BRANCH  22  31
ATOM     23  O   UNL     1     112.627 129.716 140.990  0.00  0.00    +0.000 OA
ATOM     24  O   UNL     1     114.734 131.669 141.789  0.00  0.00    +0.000 OA
ATOM     25  O   UNL     1     112.903 131.815 142.550  0.00  0.00    +0.000 OA
ATOM     26  O   UNL     1     115.161 130.220 140.496  0.00  0.00    +0.000 OA
ATOM     27  C   UNL     1     114.032 131.018 141.523  0.00  0.00    +0.000 C 
ATOM     28  C   UNL     1     113.117 131.091 141.903  0.00  0.00    +0.000 C 
ATOM     29  C   UNL     1     114.245 130.293 140.876  0.00  0.00    +0.000 C 
ATOM     30  C   UNL     1     112.414 130.440 141.637  0.00  0.00    +0.000 C 
ATOM     31  C   UNL     1     113.543 129.642 140.610  0.00  0.00    +0.000 C 
ATOM     32  C   UNL     1     111.499 130.513 142.017  0.00  0.00    +0.000 C 
ENDBRANCH  22  31
ENDBRANCH   3  22
TORSDOF 5
ENDMDL
MODEL 3
REMARK VINA RESULT:      -8.2      7.014      9.622
REMARK  Name = 
REMARK  5 active torsions:
REMARK  status: ('A' for Active; 'I' for Inactive)
REMARK    1  A    between atoms: O_2  and  C_13
REMARK    2  A    between atoms: O_2  and  C_15
REMARK    3  A    between atoms: O_8  and  C_21
REMARK    4  A    between atoms: C_22  and  O_31
REMARK    5  A    between atoms: C_23  and  C_24
REMARK                            x       y       z     vdW  Elec       q    Type
REMARK                         _______ _______ _______ _____ _____    ______ ____
ROOT
ATOM      1  O   UNL     1     111.978 126.885 137.914  0.00  0.00    +0.000 OA
ATOM      2  O   UNL     1     112.909 129.308 136.446  0.00  0.00    +0.000 OA
ATOM      3  C   UNL     1     111.300 129.455 137.616  0.00  0.00    +0.000 A 
ATOM      4  C   UNL     1     111.799 128.552 137.523  0.00  0.00    +0.000 A 
ATOM      5  C   UNL     1     111.488 127.745 138.013  0.00  0.00    +0.000 A 
ATOM      6  C   UNL     1     110.466 129.517 138.227  0.00  0.00    +0.000 A 
ATOM      7  C   UNL     1     112.599 128.500 136.935  0.00  0.00    +0.000 C 
ATOM      8  C   UNL     1     113.088 127.640 136.836  0.00  0.00    +0.000 C 
ATOM      9  C   UNL     1     110.142 128.676 138.737  0.00  0.00    +0.000 A 
ATOM     10  C   UNL     1     110.657 127.784 138.629  0.00  0.00    +0.000 A 
ATOM     11  C   UNL     1     112.777 126.833 137.325  0.00  0.00    +0.000 C 
ENDROOT
BRANCH  11  12
ATOM     12  C   UNL     1     113.266 125.973 137.226  0.00  0.00    +0.000 A 
ATOM     13  C   UNL     1     112.902 125.258 136.640  0.00  0.00    +0.000 A 
ATOM     14  C   UNL     1     114.121 125.829 137.714  0.00  0.00    +0.000 A 
ATOM     15  C   UNL     1     113.392 124.399 136.542  0.00  0.00    +0.000 A 
ATOM     16  C   UNL     1     114.610 124.969 137.615  0.00  0.00    +0.000 A 
ATOM     17  C   UNL     1     114.246 124.254 137.029  0.00  0.00    +0.000 A 
ENDBRANCH  11  12
BRANCH   9  18
ATOM     18  O   UNL     1     109.343 128.724 139.326  0.00  0.00    +0.000 OA
ATOM     19  C   UNL     1     109.082 129.590 139.739  0.00  0.00    +0.000 C 
ENDBRANCH   9  18
BRANCH  10  20
ATOM     20  O   UNL     1     110.355 126.970 139.114  0.00  0.00    +0.000 OA
ATOM     21  C   UNL     1     109.713 126.345 138.684  0.00  0.00    +0.000 C 
ENDBRANCH  10  20
BRANCH   3  22
ATOM     22  O   UNL     1     111.619 130.256 137.122  0.00  0.00    +0.000 OA
BRANCH  22  31
ATOM     23  O   UNL     1     110.286 130.540 136.070  0.00  0.00    +0.000 OA
ATOM     24  O   UNL     1     110.352 133.438 136.767  0.00  0.00    +0.000 OA
ATOM     25  O   UNL     1     108.997 132.755 135.482  0.00  0.00    +0.000 OA
ATOM     26  O   UNL     1     111.663 132.189 137.587  0.00  0.00    +0.000 OA
ATOM     27  C   UNL     1     110.330 132.472 136.534  0.00  0.00    +0.000 C 
ATOM     28  C   UNL     1     109.652 132.131 135.892  0.00  0.00    +0.000 C 
ATOM     29  C   UNL     1     110.986 131.847 136.944  0.00  0.00    +0.000 C 
ATOM     30  C   UNL     1     109.630 131.164 135.660  0.00  0.00    +0.000 C 
ATOM     31  C   UNL     1     110.964 130.881 136.712  0.00  0.00    +0.000 C 
ATOM     32  C   UNL     1     108.953 130.823 135.017  0.00  0.00    +0.000 C 
ENDBRANCH  22  31
ENDBRANCH   3  22
TORSDOF 5
ENDMDL
MODEL 4
REMARK VINA RESULT:      -8.2      6.555      9.377
REMARK  Name = 
REMARK  5 active torsions:
REMARK  status: ('A' for Active; 'I' for Inactive)
REMARK    1  A    between atoms: O_2  and  C_13
REMARK    2  A    between atoms: O_2  and  C_15
REMARK    3  A    between atoms: O_8  and  C_21
REMARK    4  A    between atoms: C_22  and  O_31
REMARK    5  A    between atoms: C_23  and  C_24
REMARK                            x       y       z     vdW  Elec       q    Type
REMARK                         _______ _______ _______ _____ _____    ______ ____
ROOT
ATOM      1  O   UNL     1     112.776 127.470 137.910  0.00  0.00    +0.000 OA
ATOM      2  O   UNL     1     113.545 127.812 140.771  0.00  0.00    +0.000 OA
ATOM      3  C   UNL     1     112.634 129.320 139.835  0.00  0.00    +0.000 A 
ATOM      4  C   UNL     1     112.834 128.437 139.333  0.00  0.00    +0.000 A 
ATOM      5  C   UNL     1     112.577 128.324 138.379  0.00  0.00    +0.000 A 
ATOM      6  C   UNL     1     112.160 130.095 139.338  0.00  0.00    +0.000 A 
ATOM      7  C   UNL     1     113.289 127.698 139.817  0.00  0.00    +0.000 C 
ATOM      8  C   UNL     1     113.488 126.844 139.348  0.00  0.00    +0.000 C 
ATOM      9  C   UNL     1     111.893 129.977 138.344  0.00  0.00    +0.000 A 
ATOM     10  C   UNL     1     112.103 129.084 137.862  0.00  0.00    +0.000 A 
ATOM     11  C   UNL     1     113.231 126.730 138.394  0.00  0.00    +0.000 C 
ENDROOT
BRANCH  11  12
ATOM     12  C   UNL     1     113.430 125.877 137.925  0.00  0.00    +0.000 A 
ATOM     13  C   UNL     1     112.686 125.312 137.584  0.00  0.00    +0.000 A 
ATOM     14  C   UNL     1     114.372 125.588 137.796  0.00  0.00    +0.000 A 
ATOM     15  C   UNL     1     112.886 124.459 137.115  0.00  0.00    +0.000 A 
ATOM     16  C   UNL     1     114.571 124.735 137.327  0.00  0.00    +0.000 A 
ATOM     17  C   UNL     1     113.828 124.170 136.986  0.00  0.00    +0.000 A 
ENDBRANCH  11  12
BRANCH   9  18
ATOM     18  O   UNL     1     111.438 130.714 137.857  0.00  0.00    +0.000 OA
ATOM     19  C   UNL     1     110.859 131.352 138.351  0.00  0.00    +0.000 C 
ENDBRANCH   9  18
BRANCH  10  20
ATOM     20  O   UNL     1     111.851 128.960 136.908  0.00  0.00    +0.000 OA
ATOM     21  C   UNL     1     112.490 129.208 136.188  0.00  0.00    +0.000 C 
ENDBRANCH  10  20
BRANCH   3  22
ATOM     22  O   UNL     1     112.894 129.424 140.789  0.00  0.00    +0.000 OA
BRANCH  22  31
ATOM     23  O   UNL     1     111.388 129.792 141.536  0.00  0.00    +0.000 OA
ATOM     24  O   UNL     1     112.644 132.114 142.923  0.00  0.00    +0.000 OA
ATOM     25  O   UNL     1     110.718 131.709 143.208  0.00  0.00    +0.000 OA
ATOM     26  O   UNL     1     113.732 130.972 141.713  0.00  0.00    +0.000 OA
ATOM     27  C   UNL     1     112.225 131.340 142.461  0.00  0.00    +0.000 C 
ATOM     28  C   UNL     1     111.262 131.138 142.604  0.00  0.00    +0.000 C 
ATOM     29  C   UNL     1     112.769 130.769 141.856  0.00  0.00    +0.000 C 
ATOM     30  C   UNL     1     110.844 130.364 142.141  0.00  0.00    +0.000 C 
ATOM     31  C   UNL     1     112.350 129.995 141.394  0.00  0.00    +0.000 C 
ATOM     32  C   UNL     1     109.881 130.161 142.284  0.00  0.00    +0.000 C 
ENDBRANCH  22  31
ENDBRANCH   3  22
TORSDOF 5
ENDMDL
MODEL 5
REMARK VINA RESULT:      -8.2      8.214      9.612
REMARK  Name = 
REMARK  5 active torsions:
REMARK  status: ('A' for Active; 'I' for Inactive)
REMARK    1  A    between atoms: O_2  and  C_13
REMARK    2  A    between atoms: O_2  and  C_15
REMARK    3  A    between atoms: O_8  and  C_21
REMARK    4  A    between atoms: C_22  and  O_31
REMARK    5  A    between atoms: C_23  and  C_24
REMARK                            x       y       z     vdW  Elec       q    Type
REMARK                         _______ _______ _______ _____ _____    ______ ____
ROOT
ATOM      1  O   UNL     1     112.001 126.649 136.448  0.00  0.00    +0.000 OA
ATOM      2  O   UNL     1     111.637 128.210 138.963  0.00  0.00    +0.000 OA
ATOM      3  C   UNL     1     110.600 128.743 137.344  0.00  0.00    +0.000 A 
ATOM      4  C   UNL     1     111.251 127.939 137.307  0.00  0.00    +0.000 A 
ATOM      5  C   UNL     1     111.372 127.419 136.468  0.00  0.00    +0.000 A 
ATOM      6  C   UNL     1     110.068 129.009 136.496  0.00  0.00    +0.000 A 
ATOM      7  C   UNL     1     111.758 127.689 138.125  0.00  0.00    +0.000 C 
ATOM      8  C   UNL     1     112.387 126.919 138.104  0.00  0.00    +0.000 C 
ATOM      9  C   UNL     1     110.194 128.467 135.622  0.00  0.00    +0.000 A 
ATOM     10  C   UNL     1     110.851 127.666 135.609  0.00  0.00    +0.000 A 
ATOM     11  C   UNL     1     112.508 126.399 137.265  0.00  0.00    +0.000 C 
ENDROOT
BRANCH  11  12
ATOM     12  C   UNL     1     113.137 125.629 137.245  0.00  0.00    +0.000 A 
ATOM     13  C   UNL     1     114.086 125.755 137.513  0.00  0.00    +0.000 A 
ATOM     14  C   UNL     1     112.815 124.733 136.957  0.00  0.00    +0.000 A 
ATOM     15  C   UNL     1     114.713 124.984 137.492  0.00  0.00    +0.000 A 
ATOM     16  C   UNL     1     113.444 123.963 136.936  0.00  0.00    +0.000 A 
ATOM     17  C   UNL     1     114.393 124.088 137.204  0.00  0.00    +0.000 A 
ENDBRANCH  11  12
BRANCH   9  18
ATOM     18  O   UNL     1     109.688 128.714 134.803  0.00  0.00    +0.000 OA
ATOM     19  C   UNL     1     109.390 129.652 134.667  0.00  0.00    +0.000 C 
ENDBRANCH   9  18
BRANCH  10  20
ATOM     20  O   UNL     1     110.979 127.139 134.776  0.00  0.00    +0.000 OA
ATOM     21  C   UNL     1     110.431 126.326 134.612  0.00  0.00    +0.000 C 
ENDBRANCH  10  20
BRANCH   3  22
ATOM     22  O   UNL     1     110.486 129.257 138.187  0.00  0.00    +0.000 OA
BRANCH  22  31
ATOM     23  O   UNL     1     110.789 130.886 137.720  0.00  0.00    +0.000 OA
ATOM     24  O   UNL     1     108.192 131.715 138.928  0.00  0.00    +0.000 OA
ATOM     25  O   UNL     1     109.361 133.068 138.058  0.00  0.00    +0.000 OA
ATOM     26  O   UNL     1     108.755 129.810 138.992  0.00  0.00    +0.000 OA
ATOM     27  C   UNL     1     109.058 131.439 138.525  0.00  0.00    +0.000 C 
ATOM     28  C   UNL     1     109.642 132.116 138.090  0.00  0.00    +0.000 C 
ATOM     29  C   UNL     1     109.339 130.486 138.558  0.00  0.00    +0.000 C 
ATOM     30  C   UNL     1     110.508 131.839 137.688  0.00  0.00    +0.000 C 
ATOM     31  C   UNL     1     110.205 130.210 138.155  0.00  0.00    +0.000 C 
ATOM     32  C   UNL     1     111.092 132.516 137.253  0.00  0.00    +0.000 C 
ENDBRANCH  22  31
ENDBRANCH   3  22
TORSDOF 5
ENDMDL
MODEL 6
REMARK VINA RESULT:      -8.2      7.964      9.683
REMARK  Name = 
REMARK  5 active torsions:
REMARK  status: ('A' for Active; 'I' for Inactive)
REMARK    1  A    between atoms: O_2  and  C_13
REMARK    2  A    between atoms: O_2  and  C_15
REMARK    3  A    between atoms: O_8  and  C_21
REMARK    4  A    between atoms: C_22  and  O_31
REMARK    5  A    between atoms: C_23  and  C_24
REMARK                            x       y       z     vdW  Elec       q    Type
REMARK                         _______ _______ _______ _____ _____    ______ ____
ROOT
ATOM      1  O   UNL     1     113.222 127.074 138.617  0.00  0.00    +0.000 OA
ATOM      2  O   UNL     1     112.300 128.968 136.506  0.00  0.00    +0.000 OA
ATOM      3  C   UNL     1     112.443 129.622 138.385  0.00  0.00    +0.000 A 
ATOM      4  C   UNL     1     112.685 128.642 138.152  0.00  0.00    +0.000 A 
ATOM      5  C   UNL     1     112.993 128.012 138.856  0.00  0.00    +0.000 A 
ATOM      6  C   UNL     1     112.522 129.948 139.365  0.00  0.00    +0.000 A 
ATOM      7  C   UNL     1     112.607 128.336 137.209  0.00  0.00    +0.000 C 
ATOM      8  C   UNL     1     112.837 127.399 136.970  0.00  0.00    +0.000 C 
ATOM      9  C   UNL     1     112.842 129.290 140.099  0.00  0.00    +0.000 A 
ATOM     10  C   UNL     1     113.079 128.315 139.842  0.00  0.00    +0.000 A 
ATOM     11  C   UNL     1     113.144 126.768 137.674  0.00  0.00    +0.000 C 
ENDROOT
BRANCH  11  12
ATOM     12  C   UNL     1     113.373 125.830 137.435  0.00  0.00    +0.000 A 
ATOM     13  C   UNL     1     112.662 125.206 137.131  0.00  0.00    +0.000 A 
ATOM     14  C   UNL     1     114.315 125.517 137.501  0.00  0.00    +0.000 A 
ATOM     15  C   UNL     1     112.892 124.269 136.893  0.00  0.00    +0.000 A 
ATOM     16  C   UNL     1     114.544 124.580 137.262  0.00  0.00    +0.000 A 
ATOM     17  C   UNL     1     113.833 123.956 136.958  0.00  0.00    +0.000 A 
ENDBRANCH  11  12
BRANCH   9  18
ATOM     18  O   UNL     1     112.921 129.593 141.042  0.00  0.00    +0.000 OA
ATOM     19  C   UNL     1     112.387 130.368 141.361  0.00  0.00    +0.000 C 
ENDBRANCH   9  18
BRANCH  10  20
ATOM     20  O   UNL     1     113.387 127.676 140.538  0.00  0.00    +0.000 OA
ATOM     21  C   UNL     1     114.358 127.574 140.724  0.00  0.00    +0.000 C 
ENDBRANCH  10  20
BRANCH   3  22
ATOM     22  O   UNL     1     112.137 130.244 137.674  0.00  0.00    +0.000 OA
BRANCH  22  31
ATOM     23  O   UNL     1     110.557 130.461 138.324  0.00  0.00    +0.000 OA
ATOM     24  O   UNL     1     110.508 133.253 137.279  0.00  0.00    +0.000 OA
ATOM     25  O   UNL     1     108.945 132.538 138.278  0.00  0.00    +0.000 OA
ATOM     26  O   UNL     1     112.104 132.106 136.977  0.00  0.00    +0.000 OA
ATOM     27  C   UNL     1     110.525 132.322 137.627  0.00  0.00    +0.000 C 
ATOM     28  C   UNL     1     109.743 131.965 138.127  0.00  0.00    +0.000 C 
ATOM     29  C   UNL     1     111.322 131.749 137.476  0.00  0.00    +0.000 C 
ATOM     30  C   UNL     1     109.759 131.034 138.475  0.00  0.00    +0.000 C 
ATOM     31  C   UNL     1     111.339 130.818 137.825  0.00  0.00    +0.000 C 
ATOM     32  C   UNL     1     108.977 130.677 138.975  0.00  0.00    +0.000 C 
ENDBRANCH  22  31
ENDBRANCH   3  22
TORSDOF 5
ENDMDL
MODEL 7
REMARK VINA RESULT:      -8.0      8.831     10.327
REMARK  Name = 
REMARK  5 active torsions:
REMARK  status: ('A' for Active; 'I' for Inactive)
REMARK    1  A    between atoms: O_2  and  C_13
REMARK    2  A    between atoms: O_2  and  C_15
REMARK    3  A    between atoms: O_8  and  C_21
REMARK    4  A    between atoms: C_22  and  O_31
REMARK    5  A    between atoms: C_23  and  C_24
REMARK                            x       y       z     vdW  Elec       q    Type
REMARK                         _______ _______ _______ _____ _____    ______ ____
ROOT
ATOM      1  O   UNL     1     113.226 127.660 136.889  0.00  0.00    +0.000 OA
ATOM      2  O   UNL     1     110.335 127.733 137.620  0.00  0.00    +0.000 OA
ATOM      3  C   UNL     1     111.259 129.448 137.185  0.00  0.00    +0.000 A 
ATOM      4  C   UNL     1     111.777 128.551 137.156  0.00  0.00    +0.000 A 
ATOM      5  C   UNL     1     112.741 128.528 136.913  0.00  0.00    +0.000 A 
ATOM      6  C   UNL     1     111.751 130.330 136.957  0.00  0.00    +0.000 A 
ATOM      7  C   UNL     1     111.299 127.708 137.376  0.00  0.00    +0.000 C 
ATOM      8  C   UNL     1     111.784 126.841 137.353  0.00  0.00    +0.000 C 
ATOM      9  C   UNL     1     112.755 130.305 136.703  0.00  0.00    +0.000 A 
ATOM     10  C   UNL     1     113.253 129.397 136.681  0.00  0.00    +0.000 A 
ATOM     11  C   UNL     1     112.747 126.817 137.109  0.00  0.00    +0.000 C 
ENDROOT
BRANCH  11  12
ATOM     12  C   UNL     1     113.232 125.949 137.085  0.00  0.00    +0.000 A 
ATOM     13  C   UNL     1     112.899 125.209 136.511  0.00  0.00    +0.000 A 
ATOM     14  C   UNL     1     114.049 125.822 137.636  0.00  0.00    +0.000 A 
ATOM     15  C   UNL     1     113.384 124.342 136.488  0.00  0.00    +0.000 A 
ATOM     16  C   UNL     1     114.534 124.954 137.612  0.00  0.00    +0.000 A 
ATOM     17  C   UNL     1     114.202 124.214 137.038  0.00  0.00    +0.000 A 
ENDBRANCH  11  12
BRANCH   9  18
ATOM     18  O   UNL     1     113.236 131.146 136.483  0.00  0.00    +0.000 OA
ATOM     19  C   UNL     1     112.887 132.018 136.808  0.00  0.00    +0.000 C 
ENDBRANCH   9  18
BRANCH  10  20
ATOM     20  O   UNL     1     114.216 129.361 136.438  0.00  0.00    +0.000 OA
ATOM     21  C   UNL     1     114.486 129.246 135.489  0.00  0.00    +0.000 C 
ENDBRANCH  10  20
BRANCH   3  22
ATOM     22  O   UNL     1     110.296 129.461 137.430  0.00  0.00    +0.000 OA
BRANCH  22  31
ATOM     23  O   UNL     1     109.684 130.238 136.021  0.00  0.00    +0.000 OA
ATOM     24  O   UNL     1     107.851 131.869 137.717  0.00  0.00    +0.000 OA
ATOM     25  O   UNL     1     107.850 132.103 135.742  0.00  0.00    +0.000 OA
ATOM     26  O   UNL     1     109.074 130.548 138.561  0.00  0.00    +0.000 OA
ATOM     27  C   UNL     1     108.462 131.325 137.152  0.00  0.00    +0.000 C 
ATOM     28  C   UNL     1     108.462 131.443 136.164  0.00  0.00    +0.000 C 
ATOM     29  C   UNL     1     109.074 130.665 137.574  0.00  0.00    +0.000 C 
ATOM     30  C   UNL     1     109.073 130.899 135.599  0.00  0.00    +0.000 C 
ATOM     31  C   UNL     1     109.685 130.121 137.008  0.00  0.00    +0.000 C 
ATOM     32  C   UNL     1     109.072 131.016 134.612  0.00  0.00    +0.000 C 
ENDBRANCH  22  31
ENDBRANCH   3  22
TORSDOF 5
ENDMDL
MODEL 8
REMARK VINA RESULT:      -8.0      6.844      9.363
REMARK  Name = 
REMARK  5 active torsions:
REMARK  status: ('A' for Active; 'I' for Inactive)
REMARK    1  A    between atoms: O_2  and  C_13
REMARK    2  A    between atoms: O_2  and  C_15
REMARK    3  A    between atoms: O_8  and  C_21
REMARK    4  A    between atoms: C_22  and  O_31
REMARK    5  A    between atoms: C_23  and  C_24
REMARK                            x       y       z     vdW  Elec       q    Type
REMARK                         _______ _______ _______ _____ _____    ______ ____
ROOT
ATOM      1  O   UNL     1     112.817 127.559 137.317  0.00  0.00    +0.000 OA
ATOM      2  O   UNL     1     110.616 127.269 139.309  0.00  0.00    +0.000 OA
ATOM      3  C   UNL     1     110.989 129.075 138.546  0.00  0.00    +0.000 A 
ATOM      4  C   UNL     1     111.551 128.256 138.253  0.00  0.00    +0.000 A 
ATOM      5  C   UNL     1     112.285 128.353 137.589  0.00  0.00    +0.000 A 
ATOM      6  C   UNL     1     111.192 130.007 138.142  0.00  0.00    +0.000 A 
ATOM      7  C   UNL     1     111.350 127.365 138.645  0.00  0.00    +0.000 C 
ATOM      8  C   UNL     1     111.882 126.571 138.373  0.00  0.00    +0.000 C 
ATOM      9  C   UNL     1     111.957 130.107 137.450  0.00  0.00    +0.000 A 
ATOM     10  C   UNL     1     112.507 129.275 137.172  0.00  0.00    +0.000 A 
ATOM     11  C   UNL     1     112.615 126.668 137.709  0.00  0.00    +0.000 C 
ENDROOT
BRANCH  11  12
ATOM     12  C   UNL     1     113.147 125.873 137.437  0.00  0.00    +0.000 A 
ATOM     13  C   UNL     1     112.760 125.207 136.809  0.00  0.00    +0.000 A 
ATOM     14  C   UNL     1     114.066 125.745 137.794  0.00  0.00    +0.000 A 
ATOM     15  C   UNL     1     113.293 124.412 136.538  0.00  0.00    +0.000 A 
ATOM     16  C   UNL     1     114.598 124.950 137.522  0.00  0.00    +0.000 A 
ATOM     17  C   UNL     1     114.212 124.284 136.895  0.00  0.00    +0.000 A 
ENDBRANCH  11  12
BRANCH   9  18
ATOM     18  O   UNL     1     112.161 130.996 137.056  0.00  0.00    +0.000 OA
ATOM     19  C   UNL     1     111.575 131.774 137.255  0.00  0.00    +0.000 C 
ENDBRANCH   9  18
BRANCH  10  20
ATOM     20  O   UNL     1     113.242 129.360 136.509  0.00  0.00    +0.000 OA
ATOM     21  C   UNL     1     113.060 129.216 135.542  0.00  0.00    +0.000 C 
ENDBRANCH  10  20
BRANCH   3  22
ATOM     22  O   UNL     1     110.257 128.967 139.211  0.00  0.00    +0.000 OA
BRANCH  22  31
ATOM     23  O   UNL     1     110.979 129.793 140.539  0.00  0.00    +0.000 OA
ATOM     24  O   UNL     1     108.370 131.106 141.139  0.00  0.00    +0.000 OA
ATOM     25  O   UNL     1     109.961 131.494 142.267  0.00  0.00    +0.000 OA
ATOM     26  O   UNL     1     108.518 129.843 139.611  0.00  0.00    +0.000 OA
ATOM     27  C   UNL     1     109.239 130.669 140.939  0.00  0.00    +0.000 C 
ATOM     28  C   UNL     1     110.035 130.863 141.503  0.00  0.00    +0.000 C 
ATOM     29  C   UNL     1     109.314 130.037 140.175  0.00  0.00    +0.000 C 
ATOM     30  C   UNL     1     110.904 130.425 141.303  0.00  0.00    +0.000 C 
ATOM     31  C   UNL     1     110.183 129.599 139.975  0.00  0.00    +0.000 C 
ATOM     32  C   UNL     1     111.700 130.619 141.867  0.00  0.00    +0.000 C 
ENDBRANCH  22  31
ENDBRANCH   3  22
TORSDOF 5
ENDMDL
