MODEL 1
REMARK VINA RESULT:      -8.3      0.000      0.000
REMARK  Name = 14583632
REMARK  3 active torsions:
REMARK  status: ('A' for Active; 'I' for Inactive)
REMARK    1  A    between atoms: O_2  and  C_11
REMARK    2  A    between atoms: O_4  and  C_14
REMARK    3  A    between atoms: C_5  and  C_10
REMARK                            x       y       z     vdW  Elec       q    Type
REMARK                         _______ _______ _______ _____ _____    ______ ____
ROOT
ATOM      1  O   UNL     1     105.452 124.311 147.191  0.00  0.00    +0.000 OA
ATOM      2  O   UNL     1     103.758 125.388 148.734  0.00  0.00    +0.000 OA
ATOM      3  C   UNL     1     105.725 124.729 147.890  0.00  0.00    +0.000 C 
ATOM      4  C   UNL     1     105.153 125.095 148.416  0.00  0.00    +0.000 C 
ATOM      5  C   UNL     1     104.060 124.617 147.531  0.00  0.00    +0.000 A 
ATOM      6  C   UNL     1     104.609 124.265 147.027  0.00  0.00    +0.000 A 
ATOM      7  C   UNL     1     104.315 125.039 148.236  0.00  0.00    +0.000 C 
ATOM      8  C   UNL     1     103.254 124.566 147.363  0.00  0.00    +0.000 A 
ATOM      9  C   UNL     1     102.997 124.164 146.690  0.00  0.00    +0.000 A 
ATOM     10  C   UNL     1     104.354 123.863 146.354  0.00  0.00    +0.000 A 
ATOM     11  C   UNL     1     103.547 123.812 146.186  0.00  0.00    +0.000 A 
ATOM     12  C   UNL     1     102.192 124.113 146.522  0.00  0.00    +0.000 C 
ENDROOT
BRANCH   3  13
ATOM     13  C   UNL     1     106.532 124.778 148.056  0.00  0.00    +0.000 A 
ATOM     14  C   UNL     1     106.836 124.418 148.733  0.00  0.00    +0.000 A 
ATOM     15  C   UNL     1     107.035 125.185 147.544  0.00  0.00    +0.000 A 
ATOM     16  C   UNL     1     107.643 124.467 148.899  0.00  0.00    +0.000 A 
ATOM     17  C   UNL     1     107.842 125.233 147.710  0.00  0.00    +0.000 A 
ATOM     18  C   UNL     1     108.146 124.874 148.387  0.00  0.00    +0.000 A 
ENDBRANCH   3  13
BRANCH   8  19
ATOM     19  O   UNL     1     102.705 124.918 147.868  0.00  0.00    +0.000 OA
ATOM     20  C   UNL     1     102.287 124.456 148.410  0.00  0.00    +0.000 C 
ENDBRANCH   8  19
BRANCH  11  21
ATOM     21  O   UNL     1     103.291 123.410 145.513  0.00  0.00    +0.000 OA
ATOM     22  C   UNL     1     103.726 122.771 145.223  0.00  0.00    +0.000 C 
ENDBRANCH  11  21
TORSDOF 3
ENDMDL
MODEL 2
REMARK VINA RESULT:      -8.1     13.188     13.804
REMARK  Name = 14583632
REMARK  3 active torsions:
REMARK  status: ('A' for Active; 'I' for Inactive)
REMARK    1  A    between atoms: O_2  and  C_11
REMARK    2  A    between atoms: O_4  and  C_14
REMARK    3  A    between atoms: C_5  and  C_10
REMARK                            x       y       z     vdW  Elec       q    Type
REMARK                         _______ _______ _______ _____ _____    ______ ____
ROOT
ATOM      1  O   UNL     1     112.640 126.560 136.241  0.00  0.00    +0.000 OA
ATOM      2  O   UNL     1     110.684 124.981 135.940  0.00  0.00    +0.000 OA
ATOM      3  C   UNL     1     112.714 125.744 136.500  0.00  0.00    +0.000 C 
ATOM      4  C   UNL     1     112.052 125.206 136.399  0.00  0.00    +0.000 C 
ATOM      5  C   UNL     1     111.269 126.310 135.789  0.00  0.00    +0.000 A 
ATOM      6  C   UNL     1     111.905 126.827 135.885  0.00  0.00    +0.000 A 
ATOM      7  C   UNL     1     111.325 125.490 136.041  0.00  0.00    +0.000 C 
ATOM      8  C   UNL     1     110.569 126.578 135.446  0.00  0.00    +0.000 A 
ATOM      9  C   UNL     1     110.503 127.363 135.200  0.00  0.00    +0.000 A 
ATOM     10  C   UNL     1     111.840 127.612 135.640  0.00  0.00    +0.000 A 
ATOM     11  C   UNL     1     111.139 127.880 135.296  0.00  0.00    +0.000 A 
ATOM     12  C   UNL     1     109.803 127.631 134.857  0.00  0.00    +0.000 C 
ENDROOT
BRANCH   3  13
ATOM     13  C   UNL     1     113.417 125.479 136.842  0.00  0.00    +0.000 A 
ATOM     14  C   UNL     1     113.950 125.033 136.397  0.00  0.00    +0.000 A 
ATOM     15  C   UNL     1     113.587 125.661 137.629  0.00  0.00    +0.000 A 
ATOM     16  C   UNL     1     114.652 124.769 136.739  0.00  0.00    +0.000 A 
ATOM     17  C   UNL     1     114.289 125.396 137.971  0.00  0.00    +0.000 A 
ATOM     18  C   UNL     1     114.822 124.950 137.526  0.00  0.00    +0.000 A 
ENDBRANCH   3  13
BRANCH   8  19
ATOM     19  O   UNL     1     109.933 126.061 135.349  0.00  0.00    +0.000 OA
ATOM     20  C   UNL     1     109.788 125.718 134.612  0.00  0.00    +0.000 C 
ENDBRANCH   8  19
BRANCH  11  21
ATOM     21  O   UNL     1     111.074 128.665 135.051  0.00  0.00    +0.000 OA
ATOM     22  C   UNL     1     111.676 129.202 135.221  0.00  0.00    +0.000 C 
ENDBRANCH  11  21
TORSDOF 3
ENDMDL
MODEL 3
REMARK VINA RESULT:      -8.0      1.178      4.268
REMARK  Name = 14583632
REMARK  3 active torsions:
REMARK  status: ('A' for Active; 'I' for Inactive)
REMARK    1  A    between atoms: O_2  and  C_11
REMARK    2  A    between atoms: O_4  and  C_14
REMARK    3  A    between atoms: C_5  and  C_10
REMARK                            x       y       z     vdW  Elec       q    Type
REMARK                         _______ _______ _______ _____ _____    ______ ____
ROOT
ATOM      1  O   UNL     1     104.868 124.205 147.261  0.00  0.00    +0.000 OA
ATOM      2  O   UNL     1     105.996 125.442 145.361  0.00  0.00    +0.000 OA
ATOM      3  C   UNL     1     104.459 124.287 146.510  0.00  0.00    +0.000 C 
ATOM      4  C   UNL     1     104.839 124.706 145.864  0.00  0.00    +0.000 C 
ATOM      5  C   UNL     1     106.017 124.946 146.735  0.00  0.00    +0.000 A 
ATOM      6  C   UNL     1     105.653 124.544 147.356  0.00  0.00    +0.000 A 
ATOM      7  C   UNL     1     105.623 125.038 145.976  0.00  0.00    +0.000 C 
ATOM      8  C   UNL     1     106.770 125.267 146.837  0.00  0.00    +0.000 A 
ATOM      9  C   UNL     1     107.159 125.186 147.561  0.00  0.00    +0.000 A 
ATOM     10  C   UNL     1     106.040 124.462 148.079  0.00  0.00    +0.000 A 
ATOM     11  C   UNL     1     106.794 124.783 148.182  0.00  0.00    +0.000 A 
ATOM     12  C   UNL     1     107.911 125.507 147.663  0.00  0.00    +0.000 C 
ENDROOT
BRANCH   3  13
ATOM     13  C   UNL     1     103.706 123.964 146.411  0.00  0.00    +0.000 A 
ATOM     14  C   UNL     1     103.048 124.351 146.724  0.00  0.00    +0.000 A 
ATOM     15  C   UNL     1     103.611 123.255 145.999  0.00  0.00    +0.000 A 
ATOM     16  C   UNL     1     102.295 124.029 146.626  0.00  0.00    +0.000 A 
ATOM     17  C   UNL     1     102.857 122.934 145.901  0.00  0.00    +0.000 A 
ATOM     18  C   UNL     1     102.199 123.321 146.214  0.00  0.00    +0.000 A 
ENDBRANCH   3  13
BRANCH   8  19
ATOM     19  O   UNL     1     107.135 125.670 146.216  0.00  0.00    +0.000 OA
ATOM     20  C   UNL     1     107.106 126.494 146.186  0.00  0.00    +0.000 C 
ENDBRANCH   8  19
BRANCH  11  21
ATOM     21  O   UNL     1     107.182 124.702 148.905  0.00  0.00    +0.000 OA
ATOM     22  C   UNL     1     106.909 124.155 149.460  0.00  0.00    +0.000 C 
ENDBRANCH  11  21
TORSDOF 3
ENDMDL
MODEL 4
REMARK VINA RESULT:      -7.9     13.405     13.998
REMARK  Name = 14583632
REMARK  3 active torsions:
REMARK  status: ('A' for Active; 'I' for Inactive)
REMARK    1  A    between atoms: O_2  and  C_11
REMARK    2  A    between atoms: O_4  and  C_14
REMARK    3  A    between atoms: C_5  and  C_10
REMARK                            x       y       z     vdW  Elec       q    Type
REMARK                         _______ _______ _______ _____ _____    ______ ____
ROOT
ATOM      1  O   UNL     1     112.339 126.148 136.147  0.00  0.00    +0.000 OA
ATOM      2  O   UNL     1     112.720 128.651 136.118  0.00  0.00    +0.000 OA
ATOM      3  C   UNL     1     113.052 126.469 136.502  0.00  0.00    +0.000 C 
ATOM      4  C   UNL     1     113.184 127.318 136.494  0.00  0.00    +0.000 C 
ATOM      5  C   UNL     1     111.894 127.495 135.780  0.00  0.00    +0.000 A 
ATOM      6  C   UNL     1     111.767 126.680 135.788  0.00  0.00    +0.000 A 
ATOM      7  C   UNL     1     112.602 127.834 136.130  0.00  0.00    +0.000 C 
ATOM      8  C   UNL     1     111.338 127.995 135.432  0.00  0.00    +0.000 A 
ATOM      9  C   UNL     1     110.655 127.681 135.092  0.00  0.00    +0.000 A 
ATOM     10  C   UNL     1     111.085 126.365 135.448  0.00  0.00    +0.000 A 
ATOM     11  C   UNL     1     110.528 126.866 135.100  0.00  0.00    +0.000 A 
ATOM     12  C   UNL     1     110.100 128.181 134.745  0.00  0.00    +0.000 C 
ENDROOT
BRANCH   3  13
ATOM     13  C   UNL     1     113.606 125.965 136.849  0.00  0.00    +0.000 A 
ATOM     14  C   UNL     1     113.631 125.883 137.670  0.00  0.00    +0.000 A 
ATOM     15  C   UNL     1     114.134 125.544 136.376  0.00  0.00    +0.000 A 
ATOM     16  C   UNL     1     114.185 125.380 138.017  0.00  0.00    +0.000 A 
ATOM     17  C   UNL     1     114.688 125.040 136.724  0.00  0.00    +0.000 A 
ATOM     18  C   UNL     1     114.713 124.958 137.544  0.00  0.00    +0.000 A 
ENDBRANCH   3  13
BRANCH   8  19
ATOM     19  O   UNL     1     111.465 128.810 135.424  0.00  0.00    +0.000 OA
ATOM     20  C   UNL     1     111.758 129.176 134.744  0.00  0.00    +0.000 C 
ENDBRANCH   8  19
BRANCH  11  21
ATOM     21  O   UNL     1     109.846 126.551 134.761  0.00  0.00    +0.000 OA
ATOM     22  C   UNL     1     109.724 125.735 134.759  0.00  0.00    +0.000 C 
ENDBRANCH  11  21
TORSDOF 3
ENDMDL
MODEL 5
REMARK VINA RESULT:      -7.9     13.110     14.389
REMARK  Name = 14583632
REMARK  3 active torsions:
REMARK  status: ('A' for Active; 'I' for Inactive)
REMARK    1  A    between atoms: O_2  and  C_11
REMARK    2  A    between atoms: O_4  and  C_14
REMARK    3  A    between atoms: C_5  and  C_10
REMARK                            x       y       z     vdW  Elec       q    Type
REMARK                         _______ _______ _______ _____ _____    ______ ____
ROOT
ATOM      1  O   UNL     1     113.834 127.331 136.409  0.00  0.00    +0.000 OA
ATOM      2  O   UNL     1     111.346 127.105 136.001  0.00  0.00    +0.000 OA
ATOM      3  C   UNL     1     113.389 128.012 136.133  0.00  0.00    +0.000 C 
ATOM      4  C   UNL     1     112.545 127.939 135.994  0.00  0.00    +0.000 C 
ATOM      5  C   UNL     1     112.618 126.514 136.408  0.00  0.00    +0.000 A 
ATOM      6  C   UNL     1     113.429 126.585 136.542  0.00  0.00    +0.000 A 
ATOM      7  C   UNL     1     112.156 127.185 136.132  0.00  0.00    +0.000 C 
ATOM      8  C   UNL     1     112.239 125.794 136.539  0.00  0.00    +0.000 A 
ATOM      9  C   UNL     1     112.671 125.142 136.804  0.00  0.00    +0.000 A 
ATOM     10  C   UNL     1     113.861 125.935 136.807  0.00  0.00    +0.000 A 
ATOM     11  C   UNL     1     113.482 125.213 136.938  0.00  0.00    +0.000 A 
ATOM     12  C   UNL     1     112.293 124.422 136.935  0.00  0.00    +0.000 C 
ENDROOT
BRANCH   3  13
ATOM     13  C   UNL     1     113.771 128.732 136.003  0.00  0.00    +0.000 A 
ATOM     14  C   UNL     1     114.196 128.853 135.306  0.00  0.00    +0.000 A 
ATOM     15  C   UNL     1     113.729 129.331 136.570  0.00  0.00    +0.000 A 
ATOM     16  C   UNL     1     114.578 129.573 135.176  0.00  0.00    +0.000 A 
ATOM     17  C   UNL     1     114.111 130.050 136.439  0.00  0.00    +0.000 A 
ATOM     18  C   UNL     1     114.535 130.171 135.742  0.00  0.00    +0.000 A 
ENDBRANCH   3  13
BRANCH   8  19
ATOM     19  O   UNL     1     111.428 125.723 136.405  0.00  0.00    +0.000 OA
ATOM     20  C   UNL     1     111.154 125.329 135.733  0.00  0.00    +0.000 C 
ENDBRANCH   8  19
BRANCH  11  21
ATOM     21  O   UNL     1     113.915 124.563 137.203  0.00  0.00    +0.000 OA
ATOM     22  C   UNL     1     114.715 124.646 137.386  0.00  0.00    +0.000 C 
ENDBRANCH  11  21
TORSDOF 3
ENDMDL
MODEL 6
REMARK VINA RESULT:      -7.9      0.754      1.987
REMARK  Name = 14583632
REMARK  3 active torsions:
REMARK  status: ('A' for Active; 'I' for Inactive)
REMARK    1  A    between atoms: O_2  and  C_11
REMARK    2  A    between atoms: O_4  and  C_14
REMARK    3  A    between atoms: C_5  and  C_10
REMARK                            x       y       z     vdW  Elec       q    Type
REMARK                         _______ _______ _______ _____ _____    ______ ____
ROOT
ATOM      1  O   UNL     1     104.741 124.954 147.860  0.00  0.00    +0.000 OA
ATOM      2  O   UNL     1     104.365 123.593 145.758  0.00  0.00    +0.000 OA
ATOM      3  C   UNL     1     105.419 124.650 147.428  0.00  0.00    +0.000 C 
ATOM      4  C   UNL     1     105.295 124.188 146.715  0.00  0.00    +0.000 C 
ATOM      5  C   UNL     1     103.828 124.348 146.887  0.00  0.00    +0.000 A 
ATOM      6  C   UNL     1     103.948 124.791 147.573  0.00  0.00    +0.000 A 
ATOM      7  C   UNL     1     104.494 124.035 146.443  0.00  0.00    +0.000 C 
ATOM      8  C   UNL     1     103.062 124.198 146.621  0.00  0.00    +0.000 A 
ATOM      9  C   UNL     1     102.415 124.493 147.040  0.00  0.00    +0.000 A 
ATOM     10  C   UNL     1     103.301 125.086 147.992  0.00  0.00    +0.000 A 
ATOM     11  C   UNL     1     102.534 124.936 147.725  0.00  0.00    +0.000 A 
ATOM     12  C   UNL     1     101.649 124.343 146.774  0.00  0.00    +0.000 C 
ENDROOT
BRANCH   3  13
ATOM     13  C   UNL     1     106.184 124.801 147.698  0.00  0.00    +0.000 A 
ATOM     14  C   UNL     1     106.450 124.457 148.399  0.00  0.00    +0.000 A 
ATOM     15  C   UNL     1     106.684 125.296 147.266  0.00  0.00    +0.000 A 
ATOM     16  C   UNL     1     107.214 124.608 148.669  0.00  0.00    +0.000 A 
ATOM     17  C   UNL     1     107.449 125.447 147.536  0.00  0.00    +0.000 A 
ATOM     18  C   UNL     1     107.714 125.103 148.238  0.00  0.00    +0.000 A 
ENDBRANCH   3  13
BRANCH   8  19
ATOM     19  O   UNL     1     102.943 123.755 145.936  0.00  0.00    +0.000 OA
ATOM     20  C   UNL     1     102.738 122.957 145.992  0.00  0.00    +0.000 C 
ENDBRANCH   8  19
BRANCH  11  21
ATOM     21  O   UNL     1     101.888 125.231 148.144  0.00  0.00    +0.000 OA
ATOM     22  C   UNL     1     102.008 125.701 148.811  0.00  0.00    +0.000 C 
ENDBRANCH  11  21
TORSDOF 3
ENDMDL
MODEL 7
REMARK VINA RESULT:      -7.8     13.167     14.096
REMARK  Name = 14583632
REMARK  3 active torsions:
REMARK  status: ('A' for Active; 'I' for Inactive)
REMARK    1  A    between atoms: O_2  and  C_11
REMARK    2  A    between atoms: O_4  and  C_14
REMARK    3  A    between atoms: C_5  and  C_10
REMARK                            x       y       z     vdW  Elec       q    Type
REMARK                         _______ _______ _______ _____ _____    ______ ____
ROOT
ATOM      1  O   UNL     1     112.511 127.321 136.013  0.00  0.00    +0.000 OA
ATOM      2  O   UNL     1     113.947 125.694 137.319  0.00  0.00    +0.000 OA
ATOM      3  C   UNL     1     113.254 127.591 136.350  0.00  0.00    +0.000 C 
ATOM      4  C   UNL     1     113.743 127.042 136.793  0.00  0.00    +0.000 C 
ATOM      5  C   UNL     1     112.738 125.976 136.550  0.00  0.00    +0.000 A 
ATOM      6  C   UNL     1     112.268 126.504 136.124  0.00  0.00    +0.000 A 
ATOM      7  C   UNL     1     113.484 126.229 136.894  0.00  0.00    +0.000 C 
ATOM      8  C   UNL     1     112.494 125.195 136.649  0.00  0.00    +0.000 A 
ATOM      9  C   UNL     1     111.780 124.940 136.324  0.00  0.00    +0.000 A 
ATOM     10  C   UNL     1     111.554 126.250 135.798  0.00  0.00    +0.000 A 
ATOM     11  C   UNL     1     111.310 125.468 135.898  0.00  0.00    +0.000 A 
ATOM     12  C   UNL     1     111.536 124.159 136.423  0.00  0.00    +0.000 C 
ENDROOT
BRANCH   3  13
ATOM     13  C   UNL     1     113.495 128.374 136.248  0.00  0.00    +0.000 A 
ATOM     14  C   UNL     1     113.981 128.575 135.613  0.00  0.00    +0.000 A 
ATOM     15  C   UNL     1     113.250 128.954 136.780  0.00  0.00    +0.000 A 
ATOM     16  C   UNL     1     114.223 129.358 135.510  0.00  0.00    +0.000 A 
ATOM     17  C   UNL     1     113.491 129.736 136.678  0.00  0.00    +0.000 A 
ATOM     18  C   UNL     1     113.978 129.938 136.043  0.00  0.00    +0.000 A 
ENDBRANCH   3  13
BRANCH   8  19
ATOM     19  O   UNL     1     112.964 124.667 137.075  0.00  0.00    +0.000 OA
ATOM     20  C   UNL     1     113.438 124.122 136.676  0.00  0.00    +0.000 C 
ENDBRANCH   8  19
BRANCH  11  21
ATOM     21  O   UNL     1     110.596 125.214 135.572  0.00  0.00    +0.000 OA
ATOM     22  C   UNL     1     110.174 125.710 135.065  0.00  0.00    +0.000 C 
ENDBRANCH  11  21
TORSDOF 3
ENDMDL
MODEL 8
REMARK VINA RESULT:      -7.7     13.167     14.459
REMARK  Name = 14583632
REMARK  3 active torsions:
REMARK  status: ('A' for Active; 'I' for Inactive)
REMARK    1  A    between atoms: O_2  and  C_11
REMARK    2  A    between atoms: O_4  and  C_14
REMARK    3  A    between atoms: C_5  and  C_10
REMARK                            x       y       z     vdW  Elec       q    Type
REMARK                         _______ _______ _______ _____ _____    ______ ____
ROOT
ATOM      1  O   UNL     1     113.768 127.173 136.359  0.00  0.00    +0.000 OA
ATOM      2  O   UNL     1     112.477 128.265 138.244  0.00  0.00    +0.000 OA
ATOM      3  C   UNL     1     113.451 126.685 136.991  0.00  0.00    +0.000 C 
ATOM      4  C   UNL     1     113.012 127.052 137.631  0.00  0.00    +0.000 C 
ATOM      5  C   UNL     1     113.222 128.377 136.993  0.00  0.00    +0.000 A 
ATOM      6  C   UNL     1     113.643 128.024 136.377  0.00  0.00    +0.000 A 
ATOM      7  C   UNL     1     112.897 127.903 137.633  0.00  0.00    +0.000 C 
ATOM      8  C   UNL     1     113.108 129.193 136.999  0.00  0.00    +0.000 A 
ATOM      9  C   UNL     1     113.415 129.658 136.391  0.00  0.00    +0.000 A 
ATOM     10  C   UNL     1     113.950 128.487 135.768  0.00  0.00    +0.000 A 
ATOM     11  C   UNL     1     113.836 129.305 135.775  0.00  0.00    +0.000 A 
ATOM     12  C   UNL     1     113.301 130.474 136.397  0.00  0.00    +0.000 C 
ENDROOT
BRANCH   3  13
ATOM     13  C   UNL     1     113.566 125.868 136.981  0.00  0.00    +0.000 A 
ATOM     14  C   UNL     1     114.241 125.543 137.327  0.00  0.00    +0.000 A 
ATOM     15  C   UNL     1     113.008 125.375 136.625  0.00  0.00    +0.000 A 
ATOM     16  C   UNL     1     114.358 124.727 137.318  0.00  0.00    +0.000 A 
ATOM     17  C   UNL     1     113.125 124.559 136.615  0.00  0.00    +0.000 A 
ATOM     18  C   UNL     1     113.799 124.234 136.962  0.00  0.00    +0.000 A 
ENDBRANCH   3  13
BRANCH   8  19
ATOM     19  O   UNL     1     112.687 129.546 137.615  0.00  0.00    +0.000 OA
ATOM     20  C   UNL     1     113.090 129.938 138.219  0.00  0.00    +0.000 C 
ENDBRANCH   8  19
BRANCH  11  21
ATOM     21  O   UNL     1     114.144 129.769 135.166  0.00  0.00    +0.000 OA
ATOM     22  C   UNL     1     114.661 129.437 134.615  0.00  0.00    +0.000 C 
ENDBRANCH  11  21
TORSDOF 3
ENDMDL
MODEL 9
REMARK VINA RESULT:      -7.7     11.539     12.663
REMARK  Name = 14583632
REMARK  3 active torsions:
REMARK  status: ('A' for Active; 'I' for Inactive)
REMARK    1  A    between atoms: O_2  and  C_11
REMARK    2  A    between atoms: O_4  and  C_14
REMARK    3  A    between atoms: C_5  and  C_10
REMARK                            x       y       z     vdW  Elec       q    Type
REMARK                         _______ _______ _______ _____ _____    ______ ____
ROOT
ATOM      1  O   UNL     1     113.850 126.362 138.604  0.00  0.00    +0.000 OA
ATOM      2  O   UNL     1     111.447 125.574 138.727  0.00  0.00    +0.000 OA
ATOM      3  C   UNL     1     113.336 126.673 139.219  0.00  0.00    +0.000 C 
ATOM      4  C   UNL     1     112.520 126.407 139.263  0.00  0.00    +0.000 C 
ATOM      5  C   UNL     1     112.758 125.535 138.085  0.00  0.00    +0.000 A 
ATOM      6  C   UNL     1     113.541 125.790 138.042  0.00  0.00    +0.000 A 
ATOM      7  C   UNL     1     112.229 125.835 138.693  0.00  0.00    +0.000 C 
ATOM      8  C   UNL     1     112.473 124.986 137.540  0.00  0.00    +0.000 A 
ATOM      9  C   UNL     1     112.971 124.691 136.951  0.00  0.00    +0.000 A 
ATOM     10  C   UNL     1     114.040 125.496 137.454  0.00  0.00    +0.000 A 
ATOM     11  C   UNL     1     113.754 124.946 136.909  0.00  0.00    +0.000 A 
ATOM     12  C   UNL     1     112.686 124.142 136.406  0.00  0.00    +0.000 C 
ENDROOT
BRANCH   3  13
ATOM     13  C   UNL     1     113.625 127.222 139.763  0.00  0.00    +0.000 A 
ATOM     14  C   UNL     1     114.077 126.968 140.404  0.00  0.00    +0.000 A 
ATOM     15  C   UNL     1     113.462 128.025 139.665  0.00  0.00    +0.000 A 
ATOM     16  C   UNL     1     114.366 127.517 140.948  0.00  0.00    +0.000 A 
ATOM     17  C   UNL     1     113.750 128.574 140.209  0.00  0.00    +0.000 A 
ATOM     18  C   UNL     1     114.202 128.320 140.851  0.00  0.00    +0.000 A 
ENDBRANCH   3  13
BRANCH   8  19
ATOM     19  O   UNL     1     111.690 124.731 137.582  0.00  0.00    +0.000 OA
ATOM     20  C   UNL     1     111.131 125.021 137.048  0.00  0.00    +0.000 C 
ENDBRANCH   8  19
BRANCH  11  21
ATOM     21  O   UNL     1     114.253 124.652 136.321  0.00  0.00    +0.000 OA
ATOM     22  C   UNL     1     114.929 125.072 136.105  0.00  0.00    +0.000 C 
ENDBRANCH  11  21
TORSDOF 3
ENDMDL
MODEL 10
REMARK VINA RESULT:      -7.7      2.556      3.200
REMARK  Name = 14583632
REMARK  3 active torsions:
REMARK  status: ('A' for Active; 'I' for Inactive)
REMARK    1  A    between atoms: O_2  and  C_11
REMARK    2  A    between atoms: O_4  and  C_14
REMARK    3  A    between atoms: C_5  and  C_10
REMARK                            x       y       z     vdW  Elec       q    Type
REMARK                         _______ _______ _______ _____ _____    ______ ____
ROOT
ATOM      1  O   UNL     1     106.599 125.114 146.779  0.00  0.00    +0.000 OA
ATOM      2  O   UNL     1     106.984 127.612 146.626  0.00  0.00    +0.000 OA
ATOM      3  C   UNL     1     106.941 125.530 147.449  0.00  0.00    +0.000 C 
ATOM      4  C   UNL     1     107.073 126.377 147.400  0.00  0.00    +0.000 C 
ATOM      5  C   UNL     1     106.520 126.366 146.021  0.00  0.00    +0.000 A 
ATOM      6  C   UNL     1     106.393 125.552 146.068  0.00  0.00    +0.000 A 
ATOM      7  C   UNL     1     106.861 126.798 146.682  0.00  0.00    +0.000 C 
ATOM      8  C   UNL     1     106.319 126.776 145.335  0.00  0.00    +0.000 A 
ATOM      9  C   UNL     1     105.991 126.372 144.694  0.00  0.00    +0.000 A 
ATOM     10  C   UNL     1     106.065 125.148 145.429  0.00  0.00    +0.000 A 
ATOM     11  C   UNL     1     105.864 125.558 144.741  0.00  0.00    +0.000 A 
ATOM     12  C   UNL     1     105.789 126.781 144.008  0.00  0.00    +0.000 C 
ENDROOT
BRANCH   3  13
ATOM     13  C   UNL     1     107.141 125.116 148.135  0.00  0.00    +0.000 A 
ATOM     14  C   UNL     1     106.554 124.905 148.674  0.00  0.00    +0.000 A 
ATOM     15  C   UNL     1     107.928 124.915 148.281  0.00  0.00    +0.000 A 
ATOM     16  C   UNL     1     106.753 124.492 149.360  0.00  0.00    +0.000 A 
ATOM     17  C   UNL     1     108.127 124.502 148.967  0.00  0.00    +0.000 A 
ATOM     18  C   UNL     1     107.540 124.290 149.506  0.00  0.00    +0.000 A 
ENDBRANCH   3  13
BRANCH   8  19
ATOM     19  O   UNL     1     106.446 127.589 145.288  0.00  0.00    +0.000 OA
ATOM     20  C   UNL     1     105.813 128.112 145.381  0.00  0.00    +0.000 C 
ENDBRANCH   8  19
BRANCH  11  21
ATOM     21  O   UNL     1     105.536 125.154 144.102  0.00  0.00    +0.000 OA
ATOM     22  C   UNL     1     105.498 124.330 144.110  0.00  0.00    +0.000 C 
ENDBRANCH  11  21
TORSDOF 3
ENDMDL
