MODEL 1
REMARK VINA RESULT:      -8.9      0.000      0.000
REMARK  Name = 44257611
REMARK  7 active torsions:
REMARK  status: ('A' for Active; 'I' for Inactive)
REMARK    1  A    between atoms: O_2  and  C_16
REMARK    2  A    between atoms: O_2  and  C_18
REMARK    3  A    between atoms: O_6  and  C_17
REMARK    4  A    between atoms: O_6  and  C_21
REMARK    5  A    between atoms: O_11  and  C_33
REMARK    6  A    between atoms: C_14  and  C_17
REMARK    7  A    between atoms: C_19  and  C_22
REMARK                            x       y       z     vdW  Elec       q    Type
REMARK                         _______ _______ _______ _____ _____    ______ ____
ROOT
ATOM      1  C   UNL     1     110.227 126.105 136.300  0.00  0.00    +0.000 A 
ATOM      2  C   UNL     1     110.682 125.629 135.803  0.00  0.00    +0.000 A 
ATOM      3  C   UNL     1     109.565 126.497 136.004  0.00  0.00    +0.000 A 
ATOM      4  C   UNL     1     110.474 125.545 135.009  0.00  0.00    +0.000 A 
ATOM      5  C   UNL     1     109.357 126.413 135.210  0.00  0.00    +0.000 A 
ATOM      6  C   UNL     1     109.811 125.937 134.712  0.00  0.00    +0.000 A 
ENDROOT
BRANCH   2  10
ATOM      7  O   UNL     1     112.088 125.593 136.058  0.00  0.00    +0.000 OA
ATOM      8  O   UNL     1     111.847 123.346 137.069  0.00  0.00    +0.000 OA
ATOM      9  O   UNL     1     113.262 123.285 137.338  0.00  0.00    +0.000 OA
ATOM     10  C   UNL     1     111.344 125.237 136.099  0.00  0.00    +0.000 A 
ATOM     11  C   UNL     1     111.264 124.488 136.435  0.00  0.00    +0.000 A 
ATOM     12  C   UNL     1     112.750 125.201 136.354  0.00  0.00    +0.000 A 
ATOM     13  C   UNL     1     112.670 124.452 136.691  0.00  0.00    +0.000 A 
ATOM     14  C   UNL     1     111.927 124.095 136.732  0.00  0.00    +0.000 A 
ATOM     15  C   UNL     1     113.353 124.033 137.003  0.00  0.00    +0.000 A 
ATOM     16  C   UNL     1     113.519 125.583 136.306  0.00  0.00    +0.000 A 
ATOM     17  C   UNL     1     114.212 125.179 136.613  0.00  0.00    +0.000 A 
ATOM     18  C   UNL     1     114.129 124.399 136.963  0.00  0.00    +0.000 A 
BRANCH  17  19
ATOM     19  O   UNL     1     114.954 125.538 136.571  0.00  0.00    +0.000 OA
ATOM     20  C   UNL     1     115.378 125.526 135.863  0.00  0.00    +0.000 C 
ENDBRANCH  17  19
ENDBRANCH   2  10
BRANCH   1  21
ATOM     21  O   UNL     1     110.436 126.189 137.094  0.00  0.00    +0.000 OA
BRANCH  21  30
ATOM     22  O   UNL     1     110.622 127.603 137.183  0.00  0.00    +0.000 OA
ATOM     23  O   UNL     1     109.898 129.050 138.648  0.00  0.00    +0.000 OA
ATOM     24  O   UNL     1     109.256 127.652 139.246  0.00  0.00    +0.000 OA
ATOM     25  O   UNL     1     109.525 126.222 138.469  0.00  0.00    +0.000 OA
ATOM     26  C   UNL     1     110.032 128.334 138.260  0.00  0.00    +0.000 C 
ATOM     27  C   UNL     1     109.711 127.636 138.559  0.00  0.00    +0.000 C 
ATOM     28  C   UNL     1     110.487 128.318 137.572  0.00  0.00    +0.000 C 
ATOM     29  C   UNL     1     109.846 126.920 138.170  0.00  0.00    +0.000 C 
ATOM     30  C   UNL     1     110.301 126.904 137.483  0.00  0.00    +0.000 C 
BRANCH  28  31
ATOM     31  C   UNL     1     110.808 129.017 137.272  0.00  0.00    +0.000 C 
BRANCH  31  32
ATOM     32  O   UNL     1     111.507 128.995 136.834  0.00  0.00    +0.000 OA
BRANCH  32  34
ATOM     33  O   UNL     1     112.099 130.295 136.848  0.00  0.00    +0.000 OA
ATOM     34  C   UNL     1     111.761 129.668 136.432  0.00  0.00    +0.000 C 
ATOM     35  C   UNL     1     111.679 129.714 135.611  0.00  0.00    +0.000 C 
ENDBRANCH  32  34
ENDBRANCH  31  32
ENDBRANCH  28  31
ENDBRANCH  21  30
ENDBRANCH   1  21
TORSDOF 7
ENDMDL
MODEL 2
REMARK VINA RESULT:      -8.7      2.092      3.476
REMARK  Name = 44257611
REMARK  7 active torsions:
REMARK  status: ('A' for Active; 'I' for Inactive)
REMARK    1  A    between atoms: O_2  and  C_16
REMARK    2  A    between atoms: O_2  and  C_18
REMARK    3  A    between atoms: O_6  and  C_17
REMARK    4  A    between atoms: O_6  and  C_21
REMARK    5  A    between atoms: O_11  and  C_33
REMARK    6  A    between atoms: C_14  and  C_17
REMARK    7  A    between atoms: C_19  and  C_22
REMARK                            x       y       z     vdW  Elec       q    Type
REMARK                         _______ _______ _______ _____ _____    ______ ____
ROOT
ATOM      1  C   UNL     1     113.038 126.028 137.808  0.00  0.00    +0.000 A 
ATOM      2  C   UNL     1     113.084 125.860 137.001  0.00  0.00    +0.000 A 
ATOM      3  C   UNL     1     113.708 125.955 138.283  0.00  0.00    +0.000 A 
ATOM      4  C   UNL     1     113.800 125.620 136.670  0.00  0.00    +0.000 A 
ATOM      5  C   UNL     1     114.424 125.714 137.952  0.00  0.00    +0.000 A 
ATOM      6  C   UNL     1     114.471 125.547 137.146  0.00  0.00    +0.000 A 
ENDROOT
BRANCH   2  10
ATOM      7  O   UNL     1     112.207 126.668 136.214  0.00  0.00    +0.000 OA
ATOM      8  O   UNL     1     110.816 124.681 135.722  0.00  0.00    +0.000 OA
ATOM      9  O   UNL     1     109.916 125.474 134.922  0.00  0.00    +0.000 OA
ATOM     10  C   UNL     1     112.414 125.933 136.526  0.00  0.00    +0.000 A 
ATOM     11  C   UNL     1     111.951 125.271 136.362  0.00  0.00    +0.000 A 
ATOM     12  C   UNL     1     111.537 126.741 135.738  0.00  0.00    +0.000 A 
ATOM     13  C   UNL     1     111.074 126.079 135.575  0.00  0.00    +0.000 A 
ATOM     14  C   UNL     1     111.280 125.343 135.886  0.00  0.00    +0.000 A 
ATOM     15  C   UNL     1     110.373 126.142 135.080  0.00  0.00    +0.000 A 
ATOM     16  C   UNL     1     111.332 127.513 135.419  0.00  0.00    +0.000 A 
ATOM     17  C   UNL     1     110.636 127.595 134.923  0.00  0.00    +0.000 A 
ATOM     18  C   UNL     1     110.153 126.905 134.753  0.00  0.00    +0.000 A 
BRANCH  17  19
ATOM     19  O   UNL     1     110.431 128.331 134.613  0.00  0.00    +0.000 OA
ATOM     20  C   UNL     1     109.930 128.832 135.035  0.00  0.00    +0.000 C 
ENDBRANCH  17  19
ENDBRANCH   2  10
BRANCH   1  21
ATOM     21  O   UNL     1     112.322 126.268 138.139  0.00  0.00    +0.000 OA
BRANCH  21  30
ATOM     22  O   UNL     1     112.651 127.508 138.768  0.00  0.00    +0.000 OA
ATOM     23  O   UNL     1     112.305 128.213 140.805  0.00  0.00    +0.000 OA
ATOM     24  O   UNL     1     111.639 126.705 140.880  0.00  0.00    +0.000 OA
ATOM     25  O   UNL     1     111.648 125.733 139.546  0.00  0.00    +0.000 OA
ATOM     26  C   UNL     1     112.309 127.726 140.139  0.00  0.00    +0.000 C 
ATOM     27  C   UNL     1     111.976 126.973 140.176  0.00  0.00    +0.000 C 
ATOM     28  C   UNL     1     112.646 127.994 139.435  0.00  0.00    +0.000 C 
ATOM     29  C   UNL     1     111.980 126.486 139.509  0.00  0.00    +0.000 C 
ATOM     30  C   UNL     1     112.317 126.754 138.806  0.00  0.00    +0.000 C 
BRANCH  28  31
ATOM     31  C   UNL     1     112.979 128.749 139.398  0.00  0.00    +0.000 C 
BRANCH  31  32
ATOM     32  O   UNL     1     112.918 129.192 138.705  0.00  0.00    +0.000 OA
BRANCH  32  34
ATOM     33  O   UNL     1     112.872 130.583 139.028  0.00  0.00    +0.000 OA
ATOM     34  C   UNL     1     113.251 129.945 138.668  0.00  0.00    +0.000 C 
ATOM     35  C   UNL     1     113.966 130.061 138.270  0.00  0.00    +0.000 C 
ENDBRANCH  32  34
ENDBRANCH  31  32
ENDBRANCH  28  31
ENDBRANCH  21  30
ENDBRANCH   1  21
TORSDOF 7
ENDMDL
MODEL 3
REMARK VINA RESULT:      -8.7      9.263     11.182
REMARK  Name = 44257611
REMARK  7 active torsions:
REMARK  status: ('A' for Active; 'I' for Inactive)
REMARK    1  A    between atoms: O_2  and  C_16
REMARK    2  A    between atoms: O_2  and  C_18
REMARK    3  A    between atoms: O_6  and  C_17
REMARK    4  A    between atoms: O_6  and  C_21
REMARK    5  A    between atoms: O_11  and  C_33
REMARK    6  A    between atoms: C_14  and  C_17
REMARK    7  A    between atoms: C_19  and  C_22
REMARK                            x       y       z     vdW  Elec       q    Type
REMARK                         _______ _______ _______ _____ _____    ______ ____
ROOT
ATOM      1  C   UNL     1     102.327 132.220 141.515  0.00  0.00    +0.000 A 
ATOM      2  C   UNL     1     102.015 131.482 141.712  0.00  0.00    +0.000 A 
ATOM      3  C   UNL     1     101.875 132.901 141.622  0.00  0.00    +0.000 A 
ATOM      4  C   UNL     1     101.251 131.426 142.017  0.00  0.00    +0.000 A 
ATOM      5  C   UNL     1     101.110 132.845 141.927  0.00  0.00    +0.000 A 
ATOM      6  C   UNL     1     100.798 132.108 142.124  0.00  0.00    +0.000 A 
ENDROOT
BRANCH   2  10
ATOM      7  O   UNL     1     102.957 130.530 142.211  0.00  0.00    +0.000 OA
ATOM      8  O   UNL     1     102.844 129.295 140.069  0.00  0.00    +0.000 OA
ATOM      9  O   UNL     1     103.794 128.321 140.548  0.00  0.00    +0.000 OA
ATOM     10  C   UNL     1     102.467 130.801 141.605  0.00  0.00    +0.000 A 
ATOM     11  C   UNL     1     102.429 130.389 140.891  0.00  0.00    +0.000 A 
ATOM     12  C   UNL     1     103.409 129.849 142.104  0.00  0.00    +0.000 A 
ATOM     13  C   UNL     1     103.371 129.438 141.390  0.00  0.00    +0.000 A 
ATOM     14  C   UNL     1     102.882 129.707 140.783  0.00  0.00    +0.000 A 
ATOM     15  C   UNL     1     103.838 128.726 141.266  0.00  0.00    +0.000 A 
ATOM     16  C   UNL     1     103.916 129.578 142.743  0.00  0.00    +0.000 A 
ATOM     17  C   UNL     1     104.389 128.869 142.637  0.00  0.00    +0.000 A 
ATOM     18  C   UNL     1     104.350 128.440 141.894  0.00  0.00    +0.000 A 
BRANCH  17  19
ATOM     19  O   UNL     1     104.878 128.601 143.245  0.00  0.00    +0.000 OA
ATOM     20  C   UNL     1     105.664 128.850 143.282  0.00  0.00    +0.000 C 
ENDBRANCH  17  19
ENDBRANCH   2  10
BRANCH   1  21
ATOM     21  O   UNL     1     103.091 132.276 141.210  0.00  0.00    +0.000 OA
BRANCH  21  30
ATOM     22  O   UNL     1     103.672 133.258 142.071  0.00  0.00    +0.000 OA
ATOM     23  O   UNL     1     104.830 135.052 141.616  0.00  0.00    +0.000 OA
ATOM     24  O   UNL     1     104.539 134.475 140.097  0.00  0.00    +0.000 OA
ATOM     25  O   UNL     1     103.669 133.087 139.895  0.00  0.00    +0.000 OA
ATOM     26  C   UNL     1     104.396 134.358 141.514  0.00  0.00    +0.000 C 
ATOM     27  C   UNL     1     104.250 134.069 140.755  0.00  0.00    +0.000 C 
ATOM     28  C   UNL     1     104.107 133.952 142.171  0.00  0.00    +0.000 C 
ATOM     29  C   UNL     1     103.815 133.376 140.653  0.00  0.00    +0.000 C 
ATOM     30  C   UNL     1     103.526 132.970 141.311  0.00  0.00    +0.000 C 
BRANCH  28  31
ATOM     31  C   UNL     1     104.252 134.241 142.931  0.00  0.00    +0.000 C 
BRANCH  31  32
ATOM     32  O   UNL     1     104.180 133.740 143.583  0.00  0.00    +0.000 OA
BRANCH  32  34
ATOM     33  O   UNL     1     105.042 134.150 144.647  0.00  0.00    +0.000 OA
ATOM     34  C   UNL     1     104.282 134.039 144.345  0.00  0.00    +0.000 C 
ATOM     35  C   UNL     1     103.623 134.227 144.805  0.00  0.00    +0.000 C 
ENDBRANCH  32  34
ENDBRANCH  31  32
ENDBRANCH  28  31
ENDBRANCH  21  30
ENDBRANCH   1  21
TORSDOF 7
ENDMDL
MODEL 4
REMARK VINA RESULT:      -8.7      2.409      4.458
REMARK  Name = 44257611
REMARK  7 active torsions:
REMARK  status: ('A' for Active; 'I' for Inactive)
REMARK    1  A    between atoms: O_2  and  C_16
REMARK    2  A    between atoms: O_2  and  C_18
REMARK    3  A    between atoms: O_6  and  C_17
REMARK    4  A    between atoms: O_6  and  C_21
REMARK    5  A    between atoms: O_11  and  C_33
REMARK    6  A    between atoms: C_14  and  C_17
REMARK    7  A    between atoms: C_19  and  C_22
REMARK                            x       y       z     vdW  Elec       q    Type
REMARK                         _______ _______ _______ _____ _____    ______ ____
ROOT
ATOM      1  C   UNL     1     113.590 126.552 137.345  0.00  0.00    +0.000 A 
ATOM      2  C   UNL     1     113.655 126.059 138.004  0.00  0.00    +0.000 A 
ATOM      3  C   UNL     1     113.878 126.304 136.614  0.00  0.00    +0.000 A 
ATOM      4  C   UNL     1     114.009 125.317 137.930  0.00  0.00    +0.000 A 
ATOM      5  C   UNL     1     114.231 125.562 136.539  0.00  0.00    +0.000 A 
ATOM      6  C   UNL     1     114.297 125.068 137.197  0.00  0.00    +0.000 A 
ENDROOT
BRANCH   2  10
ATOM      7  O   UNL     1     112.575 126.186 138.930  0.00  0.00    +0.000 OA
ATOM      8  O   UNL     1     114.089 127.295 140.544  0.00  0.00    +0.000 OA
ATOM      9  O   UNL     1     113.016 127.435 141.497  0.00  0.00    +0.000 OA
ATOM     10  C   UNL     1     113.367 126.307 138.735  0.00  0.00    +0.000 A 
ATOM     11  C   UNL     1     113.872 126.676 139.273  0.00  0.00    +0.000 A 
ATOM     12  C   UNL     1     112.287 126.434 139.662  0.00  0.00    +0.000 A 
ATOM     13  C   UNL     1     112.792 126.803 140.200  0.00  0.00    +0.000 A 
ATOM     14  C   UNL     1     113.584 126.925 140.006  0.00  0.00    +0.000 A 
ATOM     15  C   UNL     1     112.504 127.066 140.966  0.00  0.00    +0.000 A 
ATOM     16  C   UNL     1     111.459 126.301 139.853  0.00  0.00    +0.000 A 
ATOM     17  C   UNL     1     111.154 126.558 140.614  0.00  0.00    +0.000 A 
ATOM     18  C   UNL     1     111.679 126.943 141.174  0.00  0.00    +0.000 A 
BRANCH  17  19
ATOM     19  O   UNL     1     110.361 126.435 140.806  0.00  0.00    +0.000 OA
ATOM     20  C   UNL     1     109.812 127.041 140.696  0.00  0.00    +0.000 C 
ENDBRANCH  17  19
ENDBRANCH   2  10
BRANCH   1  21
ATOM     21  O   UNL     1     113.237 127.293 137.419  0.00  0.00    +0.000 OA
BRANCH  21  30
ATOM     22  O   UNL     1     112.218 127.237 136.418  0.00  0.00    +0.000 OA
ATOM     23  O   UNL     1     111.685 128.648 134.841  0.00  0.00    +0.000 OA
ATOM     24  O   UNL     1     112.946 129.439 135.553  0.00  0.00    +0.000 OA
ATOM     25  O   UNL     1     113.722 128.761 136.842  0.00  0.00    +0.000 OA
ATOM     26  C   UNL     1     112.074 128.310 135.486  0.00  0.00    +0.000 C 
ATOM     27  C   UNL     1     112.704 128.705 135.842  0.00  0.00    +0.000 C 
ATOM     28  C   UNL     1     111.831 127.576 135.774  0.00  0.00    +0.000 C 
ATOM     29  C   UNL     1     113.092 128.366 136.486  0.00  0.00    +0.000 C 
ATOM     30  C   UNL     1     112.849 127.633 136.775  0.00  0.00    +0.000 C 
BRANCH  28  31
ATOM     31  C   UNL     1     111.200 127.181 135.418  0.00  0.00    +0.000 C 
BRANCH  31  32
ATOM     32  O   UNL     1     110.771 126.620 135.845  0.00  0.00    +0.000 OA
BRANCH  32  34
ATOM     33  O   UNL     1     109.413 126.512 135.414  0.00  0.00    +0.000 OA
ATOM     34  C   UNL     1     110.171 126.192 135.475  0.00  0.00    +0.000 C 
ATOM     35  C   UNL     1     110.329 125.443 135.166  0.00  0.00    +0.000 C 
ENDBRANCH  32  34
ENDBRANCH  31  32
ENDBRANCH  28  31
ENDBRANCH  21  30
ENDBRANCH   1  21
TORSDOF 7
ENDMDL
MODEL 5
REMARK VINA RESULT:      -8.6     10.672     13.495
REMARK  Name = 44257611
REMARK  7 active torsions:
REMARK  status: ('A' for Active; 'I' for Inactive)
REMARK    1  A    between atoms: O_2  and  C_16
REMARK    2  A    between atoms: O_2  and  C_18
REMARK    3  A    between atoms: O_6  and  C_17
REMARK    4  A    between atoms: O_6  and  C_21
REMARK    5  A    between atoms: O_11  and  C_33
REMARK    6  A    between atoms: C_14  and  C_17
REMARK    7  A    between atoms: C_19  and  C_22
REMARK                            x       y       z     vdW  Elec       q    Type
REMARK                         _______ _______ _______ _____ _____    ______ ____
ROOT
ATOM      1  C   UNL     1     106.063 124.971 148.206  0.00  0.00    +0.000 A 
ATOM      2  C   UNL     1     105.798 125.122 148.973  0.00  0.00    +0.000 A 
ATOM      3  C   UNL     1     106.846 124.749 148.076  0.00  0.00    +0.000 A 
ATOM      4  C   UNL     1     106.318 125.050 149.610  0.00  0.00    +0.000 A 
ATOM      5  C   UNL     1     107.366 124.678 148.713  0.00  0.00    +0.000 A 
ATOM      6  C   UNL     1     107.103 124.829 149.480  0.00  0.00    +0.000 A 
ENDROOT
BRANCH   2  10
ATOM      7  O   UNL     1     104.424 124.769 149.142  0.00  0.00    +0.000 OA
ATOM      8  O   UNL     1     103.844 127.159 149.417  0.00  0.00    +0.000 OA
ATOM      9  O   UNL     1     102.451 126.830 149.591  0.00  0.00    +0.000 OA
ATOM     10  C   UNL     1     105.015 125.343 149.103  0.00  0.00    +0.000 A 
ATOM     11  C   UNL     1     104.822 126.140 149.195  0.00  0.00    +0.000 A 
ATOM     12  C   UNL     1     103.641 124.990 149.273  0.00  0.00    +0.000 A 
ATOM     13  C   UNL     1     103.447 125.787 149.364  0.00  0.00    +0.000 A 
ATOM     14  C   UNL     1     104.037 126.362 149.325  0.00  0.00    +0.000 A 
ATOM     15  C   UNL     1     102.634 126.031 149.501  0.00  0.00    +0.000 A 
ATOM     16  C   UNL     1     103.034 124.382 149.311  0.00  0.00    +0.000 A 
ATOM     17  C   UNL     1     102.217 124.607 149.447  0.00  0.00    +0.000 A 
ATOM     18  C   UNL     1     102.015 125.437 149.542  0.00  0.00    +0.000 A 
BRANCH  17  19
ATOM     19  O   UNL     1     101.628 124.030 149.485  0.00  0.00    +0.000 OA
ATOM     20  C   UNL     1     101.196 123.836 148.810  0.00  0.00    +0.000 C 
ENDBRANCH  17  19
ENDBRANCH   2  10
BRANCH   1  21
ATOM     21  O   UNL     1     105.544 125.042 147.570  0.00  0.00    +0.000 OA
BRANCH  21  30
ATOM     22  O   UNL     1     106.208 125.969 146.709  0.00  0.00    +0.000 OA
ATOM     23  O   UNL     1     106.692 125.851 144.583  0.00  0.00    +0.000 OA
ATOM     24  O   UNL     1     105.938 124.402 144.812  0.00  0.00    +0.000 OA
ATOM     25  O   UNL     1     105.363 123.997 146.306  0.00  0.00    +0.000 OA
ATOM     26  C   UNL     1     106.404 125.648 145.330  0.00  0.00    +0.000 C 
ATOM     27  C   UNL     1     106.028 124.924 145.444  0.00  0.00    +0.000 C 
ATOM     28  C   UNL     1     106.495 126.171 145.962  0.00  0.00    +0.000 C 
ATOM     29  C   UNL     1     105.740 124.721 146.191  0.00  0.00    +0.000 C 
ATOM     30  C   UNL     1     105.830 125.244 146.823  0.00  0.00    +0.000 C 
BRANCH  28  31
ATOM     31  C   UNL     1     106.872 126.896 145.847  0.00  0.00    +0.000 C 
BRANCH  31  32
ATOM     32  O   UNL     1     106.795 127.494 146.411  0.00  0.00    +0.000 OA
BRANCH  32  34
ATOM     33  O   UNL     1     108.036 128.196 146.312  0.00  0.00    +0.000 OA
ATOM     34  C   UNL     1     107.211 128.200 146.320  0.00  0.00    +0.000 C 
ATOM     35  C   UNL     1     106.801 128.912 146.238  0.00  0.00    +0.000 C 
ENDBRANCH  32  34
ENDBRANCH  31  32
ENDBRANCH  28  31
ENDBRANCH  21  30
ENDBRANCH   1  21
TORSDOF 7
ENDMDL
MODEL 6
REMARK VINA RESULT:      -8.5      2.815      4.175
REMARK  Name = 44257611
REMARK  7 active torsions:
REMARK  status: ('A' for Active; 'I' for Inactive)
REMARK    1  A    between atoms: O_2  and  C_16
REMARK    2  A    between atoms: O_2  and  C_18
REMARK    3  A    between atoms: O_6  and  C_17
REMARK    4  A    between atoms: O_6  and  C_21
REMARK    5  A    between atoms: O_11  and  C_33
REMARK    6  A    between atoms: C_14  and  C_17
REMARK    7  A    between atoms: C_19  and  C_22
REMARK                            x       y       z     vdW  Elec       q    Type
REMARK                         _______ _______ _______ _____ _____    ______ ____
ROOT
ATOM      1  C   UNL     1     113.205 126.412 137.354  0.00  0.00    +0.000 A 
ATOM      2  C   UNL     1     113.565 126.193 138.063  0.00  0.00    +0.000 A 
ATOM      3  C   UNL     1     113.468 126.092 136.641  0.00  0.00    +0.000 A 
ATOM      4  C   UNL     1     114.188 125.652 138.059  0.00  0.00    +0.000 A 
ATOM      5  C   UNL     1     114.090 125.551 136.637  0.00  0.00    +0.000 A 
ATOM      6  C   UNL     1     114.451 125.330 137.345  0.00  0.00    +0.000 A 
ENDROOT
BRANCH   2  10
ATOM      7  O   UNL     1     113.667 127.186 139.086  0.00  0.00    +0.000 OA
ATOM      8  O   UNL     1     111.787 126.130 140.300  0.00  0.00    +0.000 OA
ATOM      9  O   UNL     1     111.869 127.120 141.345  0.00  0.00    +0.000 OA
ATOM     10  C   UNL     1     113.303 126.513 138.776  0.00  0.00    +0.000 A 
ATOM     11  C   UNL     1     112.677 126.161 139.181  0.00  0.00    +0.000 A 
ATOM     12  C   UNL     1     113.405 127.506 139.798  0.00  0.00    +0.000 A 
ATOM     13  C   UNL     1     112.779 127.154 140.203  0.00  0.00    +0.000 A 
ATOM     14  C   UNL     1     112.414 126.482 139.895  0.00  0.00    +0.000 A 
ATOM     15  C   UNL     1     112.496 127.479 140.947  0.00  0.00    +0.000 A 
ATOM     16  C   UNL     1     113.793 128.208 140.110  0.00  0.00    +0.000 A 
ATOM     17  C   UNL     1     113.524 128.546 140.852  0.00  0.00    +0.000 A 
ATOM     18  C   UNL     1     112.872 128.179 141.274  0.00  0.00    +0.000 A 
BRANCH  17  19
ATOM     19  O   UNL     1     113.890 129.219 141.159  0.00  0.00    +0.000 OA
ATOM     20  C   UNL     1     113.616 129.968 140.951  0.00  0.00    +0.000 C 
ENDBRANCH  17  19
ENDBRANCH   2  10
BRANCH   1  21
ATOM     21  O   UNL     1     112.583 126.954 137.359  0.00  0.00    +0.000 OA
BRANCH  21  30
ATOM     22  O   UNL     1     113.021 127.947 136.430  0.00  0.00    +0.000 OA
ATOM     23  O   UNL     1     112.015 128.840 134.711  0.00  0.00    +0.000 OA
ATOM     24  O   UNL     1     110.853 127.797 135.246  0.00  0.00    +0.000 OA
ATOM     25  O   UNL     1     111.137 126.854 136.570  0.00  0.00    +0.000 OA
ATOM     26  C   UNL     1     112.156 128.368 135.373  0.00  0.00    +0.000 C 
ATOM     27  C   UNL     1     111.576 127.847 135.640  0.00  0.00    +0.000 C 
ATOM     28  C   UNL     1     112.879 128.418 135.768  0.00  0.00    +0.000 C 
ATOM     29  C   UNL     1     111.717 127.375 136.302  0.00  0.00    +0.000 C 
ATOM     30  C   UNL     1     112.440 127.425 136.697  0.00  0.00    +0.000 C 
BRANCH  28  31
ATOM     31  C   UNL     1     113.460 128.940 135.500  0.00  0.00    +0.000 C 
BRANCH  31  32
ATOM     32  O   UNL     1     114.019 129.238 136.028  0.00  0.00    +0.000 OA
BRANCH  32  34
ATOM     33  O   UNL     1     115.075 129.542 135.113  0.00  0.00    +0.000 OA
ATOM     34  C   UNL     1     114.606 129.752 135.758  0.00  0.00    +0.000 C 
ATOM     35  C   UNL     1     114.723 130.478 136.135  0.00  0.00    +0.000 C 
ENDBRANCH  32  34
ENDBRANCH  31  32
ENDBRANCH  28  31
ENDBRANCH  21  30
ENDBRANCH   1  21
TORSDOF 7
ENDMDL
MODEL 7
REMARK VINA RESULT:      -8.5      2.019      2.762
REMARK  Name = 44257611
REMARK  7 active torsions:
REMARK  status: ('A' for Active; 'I' for Inactive)
REMARK    1  A    between atoms: O_2  and  C_16
REMARK    2  A    between atoms: O_2  and  C_18
REMARK    3  A    between atoms: O_6  and  C_17
REMARK    4  A    between atoms: O_6  and  C_21
REMARK    5  A    between atoms: O_11  and  C_33
REMARK    6  A    between atoms: C_14  and  C_17
REMARK    7  A    between atoms: C_19  and  C_22
REMARK                            x       y       z     vdW  Elec       q    Type
REMARK                         _______ _______ _______ _____ _____    ______ ____
ROOT
ATOM      1  C   UNL     1     110.467 126.169 136.477  0.00  0.00    +0.000 A 
ATOM      2  C   UNL     1     111.016 125.708 136.886  0.00  0.00    +0.000 A 
ATOM      3  C   UNL     1     110.289 125.999 135.690  0.00  0.00    +0.000 A 
ATOM      4  C   UNL     1     111.386 125.076 136.507  0.00  0.00    +0.000 A 
ATOM      5  C   UNL     1     110.660 125.367 135.311  0.00  0.00    +0.000 A 
ATOM      6  C   UNL     1     111.208 124.905 135.719  0.00  0.00    +0.000 A 
ENDROOT
BRANCH   2  10
ATOM      7  O   UNL     1     111.834 126.366 137.856  0.00  0.00    +0.000 OA
ATOM      8  O   UNL     1     110.448 125.412 139.671  0.00  0.00    +0.000 OA
ATOM      9  O   UNL     1     111.258 126.065 140.670  0.00  0.00    +0.000 OA
ATOM     10  C   UNL     1     111.194 125.878 137.673  0.00  0.00    +0.000 A 
ATOM     11  C   UNL     1     110.732 125.560 138.278  0.00  0.00    +0.000 A 
ATOM     12  C   UNL     1     112.012 126.536 138.642  0.00  0.00    +0.000 A 
ATOM     13  C   UNL     1     111.550 126.218 139.248  0.00  0.00    +0.000 A 
ATOM     14  C   UNL     1     110.910 125.730 139.066  0.00  0.00    +0.000 A 
ATOM     15  C   UNL     1     111.725 126.388 140.072  0.00  0.00    +0.000 A 
ATOM     16  C   UNL     1     112.681 127.046 138.820  0.00  0.00    +0.000 A 
ATOM     17  C   UNL     1     112.871 127.226 139.638  0.00  0.00    +0.000 A 
ATOM     18  C   UNL     1     112.390 126.895 140.268  0.00  0.00    +0.000 A 
BRANCH  17  19
ATOM     19  O   UNL     1     113.511 127.715 139.817  0.00  0.00    +0.000 OA
ATOM     20  C   UNL     1     113.386 128.510 139.994  0.00  0.00    +0.000 C 
ENDBRANCH  17  19
ENDBRANCH   2  10
BRANCH   1  21
ATOM     21  O   UNL     1     110.097 126.802 136.856  0.00  0.00    +0.000 OA
BRANCH  21  30
ATOM     22  O   UNL     1     110.514 127.945 136.108  0.00  0.00    +0.000 OA
ATOM     23  O   UNL     1     109.354 129.536 135.165  0.00  0.00    +0.000 OA
ATOM     24  O   UNL     1     108.149 128.616 135.817  0.00  0.00    +0.000 OA
ATOM     25  O   UNL     1     108.521 127.249 136.662  0.00  0.00    +0.000 OA
ATOM     26  C   UNL     1     109.539 128.852 135.588  0.00  0.00    +0.000 C 
ATOM     27  C   UNL     1     108.937 128.393 135.914  0.00  0.00    +0.000 C 
ATOM     28  C   UNL     1     110.327 128.629 135.685  0.00  0.00    +0.000 C 
ATOM     29  C   UNL     1     109.122 127.709 136.337  0.00  0.00    +0.000 C 
ATOM     30  C   UNL     1     109.911 127.485 136.434  0.00  0.00    +0.000 C 
BRANCH  28  31
ATOM     31  C   UNL     1     110.930 129.089 135.359  0.00  0.00    +0.000 C 
BRANCH  31  32
ATOM     32  O   UNL     1     111.711 128.977 135.602  0.00  0.00    +0.000 OA
BRANCH  32  34
ATOM     33  O   UNL     1     112.504 130.165 135.649  0.00  0.00    +0.000 OA
ATOM     34  C   UNL     1     112.311 129.449 135.289  0.00  0.00    +0.000 C 
ATOM     35  C   UNL     1     112.717 129.203 134.613  0.00  0.00    +0.000 C 
ENDBRANCH  32  34
ENDBRANCH  31  32
ENDBRANCH  28  31
ENDBRANCH  21  30
ENDBRANCH   1  21
TORSDOF 7
ENDMDL
MODEL 8
REMARK VINA RESULT:      -8.4      2.533      4.229
REMARK  Name = 44257611
REMARK  7 active torsions:
REMARK  status: ('A' for Active; 'I' for Inactive)
REMARK    1  A    between atoms: O_2  and  C_16
REMARK    2  A    between atoms: O_2  and  C_18
REMARK    3  A    between atoms: O_6  and  C_17
REMARK    4  A    between atoms: O_6  and  C_21
REMARK    5  A    between atoms: O_11  and  C_33
REMARK    6  A    between atoms: C_14  and  C_17
REMARK    7  A    between atoms: C_19  and  C_22
REMARK                            x       y       z     vdW  Elec       q    Type
REMARK                         _______ _______ _______ _____ _____    ______ ____
ROOT
ATOM      1  C   UNL     1     113.057 126.069 137.468  0.00  0.00    +0.000 A 
ATOM      2  C   UNL     1     113.450 126.408 136.827  0.00  0.00    +0.000 A 
ATOM      3  C   UNL     1     113.336 125.368 137.799  0.00  0.00    +0.000 A 
ATOM      4  C   UNL     1     114.122 126.045 136.516  0.00  0.00    +0.000 A 
ATOM      5  C   UNL     1     114.008 125.004 137.489  0.00  0.00    +0.000 A 
ATOM      6  C   UNL     1     114.402 125.342 136.848  0.00  0.00    +0.000 A 
ENDROOT
BRANCH   2  10
ATOM      7  O   UNL     1     113.510 127.831 136.710  0.00  0.00    +0.000 OA
ATOM      8  O   UNL     1     111.656 127.775 135.072  0.00  0.00    +0.000 OA
ATOM      9  O   UNL     1     111.695 129.210 134.935  0.00  0.00    +0.000 OA
ATOM     10  C   UNL     1     113.171 127.110 136.496  0.00  0.00    +0.000 A 
ATOM     11  C   UNL     1     112.553 127.091 135.950  0.00  0.00    +0.000 A 
ATOM     12  C   UNL     1     113.231 128.533 136.379  0.00  0.00    +0.000 A 
ATOM     13  C   UNL     1     112.613 128.514 135.833  0.00  0.00    +0.000 A 
ATOM     14  C   UNL     1     112.274 127.794 135.618  0.00  0.00    +0.000 A 
ATOM     15  C   UNL     1     112.314 129.239 135.481  0.00  0.00    +0.000 A 
ATOM     16  C   UNL     1     113.593 129.278 136.610  0.00  0.00    +0.000 A 
ATOM     17  C   UNL     1     113.306 130.012 136.269  0.00  0.00    +0.000 A 
ATOM     18  C   UNL     1     112.663 129.992 135.700  0.00  0.00    +0.000 A 
BRANCH  17  19
ATOM     19  O   UNL     1     113.647 130.731 136.485  0.00  0.00    +0.000 OA
ATOM     20  C   UNL     1     113.383 131.127 137.159  0.00  0.00    +0.000 C 
ENDBRANCH  17  19
ENDBRANCH   2  10
BRANCH   1  21
ATOM     21  O   UNL     1     112.385 126.433 137.779  0.00  0.00    +0.000 OA
BRANCH  21  30
ATOM     22  O   UNL     1     112.815 126.728 139.109  0.00  0.00    +0.000 OA
ATOM     23  O   UNL     1     111.840 126.394 141.033  0.00  0.00    +0.000 OA
ATOM     24  O   UNL     1     110.707 125.785 140.000  0.00  0.00    +0.000 OA
ATOM     25  O   UNL     1     110.980 125.804 138.373  0.00  0.00    +0.000 OA
ATOM     26  C   UNL     1     111.976 126.404 140.219  0.00  0.00    +0.000 C 
ATOM     27  C   UNL     1     111.410 126.099 139.703  0.00  0.00    +0.000 C 
ATOM     28  C   UNL     1     112.678 126.718 139.922  0.00  0.00    +0.000 C 
ATOM     29  C   UNL     1     111.546 126.109 138.889  0.00  0.00    +0.000 C 
ATOM     30  C   UNL     1     112.248 126.423 138.592  0.00  0.00    +0.000 C 
BRANCH  28  31
ATOM     31  C   UNL     1     113.245 127.023 140.439  0.00  0.00    +0.000 C 
BRANCH  31  32
ATOM     32  O   UNL     1     113.761 127.613 140.183  0.00  0.00    +0.000 OA
BRANCH  32  34
ATOM     33  O   UNL     1     114.871 127.334 141.039  0.00  0.00    +0.000 OA
ATOM     34  C   UNL     1     114.365 127.877 140.680  0.00  0.00    +0.000 C 
ATOM     35  C   UNL     1     114.461 128.685 140.819  0.00  0.00    +0.000 C 
ENDBRANCH  32  34
ENDBRANCH  31  32
ENDBRANCH  28  31
ENDBRANCH  21  30
ENDBRANCH   1  21
TORSDOF 7
ENDMDL
MODEL 9
REMARK VINA RESULT:      -8.4      1.856      4.712
REMARK  Name = 44257611
REMARK  7 active torsions:
REMARK  status: ('A' for Active; 'I' for Inactive)
REMARK    1  A    between atoms: O_2  and  C_16
REMARK    2  A    between atoms: O_2  and  C_18
REMARK    3  A    between atoms: O_6  and  C_17
REMARK    4  A    between atoms: O_6  and  C_21
REMARK    5  A    between atoms: O_11  and  C_33
REMARK    6  A    between atoms: C_14  and  C_17
REMARK    7  A    between atoms: C_19  and  C_22
REMARK                            x       y       z     vdW  Elec       q    Type
REMARK                         _______ _______ _______ _____ _____    ______ ____
ROOT
ATOM      1  C   UNL     1     110.167 126.688 136.104  0.00  0.00    +0.000 A 
ATOM      2  C   UNL     1     110.240 127.180 135.446  0.00  0.00    +0.000 A 
ATOM      3  C   UNL     1     110.223 125.870 136.017  0.00  0.00    +0.000 A 
ATOM      4  C   UNL     1     110.370 126.853 134.700  0.00  0.00    +0.000 A 
ATOM      5  C   UNL     1     110.352 125.543 135.271  0.00  0.00    +0.000 A 
ATOM      6  C   UNL     1     110.426 126.034 134.612  0.00  0.00    +0.000 A 
ENDROOT
BRANCH   2  10
ATOM      7  O   UNL     1     109.444 128.359 135.577  0.00  0.00    +0.000 OA
ATOM      8  O   UNL     1     111.498 129.733 135.708  0.00  0.00    +0.000 OA
ATOM      9  O   UNL     1     110.718 130.938 135.842  0.00  0.00    +0.000 OA
ATOM     10  C   UNL     1     110.184 127.998 135.533  0.00  0.00    +0.000 A 
ATOM     11  C   UNL     1     110.869 128.456 135.577  0.00  0.00    +0.000 A 
ATOM     12  C   UNL     1     109.388 129.177 135.665  0.00  0.00    +0.000 A 
ATOM     13  C   UNL     1     110.073 129.635 135.708  0.00  0.00    +0.000 A 
ATOM     14  C   UNL     1     110.814 129.275 135.664  0.00  0.00    +0.000 A 
ATOM     15  C   UNL     1     110.027 130.488 135.799  0.00  0.00    +0.000 A 
ATOM     16  C   UNL     1     108.610 129.541 135.709  0.00  0.00    +0.000 A 
ATOM     17  C   UNL     1     108.546 130.393 135.800  0.00  0.00    +0.000 A 
ATOM     18  C   UNL     1     109.259 130.869 135.845  0.00  0.00    +0.000 A 
BRANCH  17  19
ATOM     19  O   UNL     1     107.804 130.751 135.844  0.00  0.00    +0.000 OA
ATOM     20  C   UNL     1     107.719 131.548 135.649  0.00  0.00    +0.000 C 
ENDBRANCH  17  19
ENDBRANCH   2  10
BRANCH   1  21
ATOM     21  O   UNL     1     110.037 127.015 136.851  0.00  0.00    +0.000 OA
BRANCH  21  30
ATOM     22  O   UNL     1     111.073 126.399 137.619  0.00  0.00    +0.000 OA
ATOM     23  O   UNL     1     111.011 125.395 139.556  0.00  0.00    +0.000 OA
ATOM     24  O   UNL     1     109.427 125.816 139.372  0.00  0.00    +0.000 OA
ATOM     25  O   UNL     1     108.939 126.627 138.020  0.00  0.00    +0.000 OA
ATOM     26  C   UNL     1     110.767 125.800 138.879  0.00  0.00    +0.000 C 
ATOM     27  C   UNL     1     109.975 126.011 138.788  0.00  0.00    +0.000 C 
ATOM     28  C   UNL     1     111.316 125.994 138.295  0.00  0.00    +0.000 C 
ATOM     29  C   UNL     1     109.731 126.416 138.112  0.00  0.00    +0.000 C 
ATOM     30  C   UNL     1     110.280 126.610 137.527  0.00  0.00    +0.000 C 
BRANCH  28  31
ATOM     31  C   UNL     1     112.109 125.783 138.386  0.00  0.00    +0.000 C 
BRANCH  31  32
ATOM     32  O   UNL     1     112.693 126.188 137.968  0.00  0.00    +0.000 OA
BRANCH  32  34
ATOM     33  O   UNL     1     113.928 126.144 138.687  0.00  0.00    +0.000 OA
ATOM     34  C   UNL     1     113.480 125.946 138.023  0.00  0.00    +0.000 C 
ATOM     35  C   UNL     1     113.819 125.506 137.412  0.00  0.00    +0.000 C 
ENDBRANCH  32  34
ENDBRANCH  31  32
ENDBRANCH  28  31
ENDBRANCH  21  30
ENDBRANCH   1  21
TORSDOF 7
ENDMDL
MODEL 10
REMARK VINA RESULT:      -8.4      2.253      3.672
REMARK  Name = 44257611
REMARK  7 active torsions:
REMARK  status: ('A' for Active; 'I' for Inactive)
REMARK    1  A    between atoms: O_2  and  C_16
REMARK    2  A    between atoms: O_2  and  C_18
REMARK    3  A    between atoms: O_6  and  C_17
REMARK    4  A    between atoms: O_6  and  C_21
REMARK    5  A    between atoms: O_11  and  C_33
REMARK    6  A    between atoms: C_14  and  C_17
REMARK    7  A    between atoms: C_19  and  C_22
REMARK                            x       y       z     vdW  Elec       q    Type
REMARK                         _______ _______ _______ _____ _____    ______ ____
ROOT
ATOM      1  C   UNL     1     112.937 128.907 136.650  0.00  0.00    +0.000 A 
ATOM      2  C   UNL     1     113.261 128.244 136.279  0.00  0.00    +0.000 A 
ATOM      3  C   UNL     1     113.286 129.648 136.549  0.00  0.00    +0.000 A 
ATOM      4  C   UNL     1     113.933 128.323 135.808  0.00  0.00    +0.000 A 
ATOM      5  C   UNL     1     113.958 129.726 136.077  0.00  0.00    +0.000 A 
ATOM      6  C   UNL     1     114.282 129.064 135.707  0.00  0.00    +0.000 A 
ENDROOT
BRANCH   2  10
ATOM      7  O   UNL     1     112.279 127.277 135.902  0.00  0.00    +0.000 OA
ATOM      8  O   UNL     1     113.131 125.735 137.641  0.00  0.00    +0.000 OA
ATOM      9  O   UNL     1     112.150 124.741 137.280  0.00  0.00    +0.000 OA
ATOM     10  C   UNL     1     112.912 127.504 136.380  0.00  0.00    +0.000 A 
ATOM     11  C   UNL     1     113.196 126.990 136.960  0.00  0.00    +0.000 A 
ATOM     12  C   UNL     1     111.931 126.536 136.003  0.00  0.00    +0.000 A 
ATOM     13  C   UNL     1     112.215 126.023 136.583  0.00  0.00    +0.000 A 
ATOM     14  C   UNL     1     112.847 126.249 137.061  0.00  0.00    +0.000 A 
ATOM     15  C   UNL     1     111.860 125.248 136.697  0.00  0.00    +0.000 A 
ATOM     16  C   UNL     1     111.272 126.311 135.498  0.00  0.00    +0.000 A 
ATOM     17  C   UNL     1     110.905 125.541 135.599  0.00  0.00    +0.000 A 
ATOM     18  C   UNL     1     111.201 125.006 136.202  0.00  0.00    +0.000 A 
BRANCH  17  19
ATOM     19  O   UNL     1     110.273 125.317 135.119  0.00  0.00    +0.000 OA
ATOM     20  C   UNL     1     109.673 125.857 134.948  0.00  0.00    +0.000 C 
ENDBRANCH  17  19
ENDBRANCH   2  10
BRANCH   1  21
ATOM     21  O   UNL     1     112.265 128.829 137.121  0.00  0.00    +0.000 OA
BRANCH  21  30
ATOM     22  O   UNL     1     112.644 129.472 138.340  0.00  0.00    +0.000 OA
ATOM     23  O   UNL     1     111.652 131.031 139.501  0.00  0.00    +0.000 OA
ATOM     24  O   UNL     1     110.587 130.846 138.255  0.00  0.00    +0.000 OA
ATOM     25  O   UNL     1     110.894 129.745 137.064  0.00  0.00    +0.000 OA
ATOM     26  C   UNL     1     111.804 130.481 138.906  0.00  0.00    +0.000 C 
ATOM     27  C   UNL     1     111.273 130.388 138.283  0.00  0.00    +0.000 C 
ATOM     28  C   UNL     1     112.490 130.023 138.934  0.00  0.00    +0.000 C 
ATOM     29  C   UNL     1     111.425 129.837 137.687  0.00  0.00    +0.000 C 
ATOM     30  C   UNL     1     112.111 129.380 137.716  0.00  0.00    +0.000 C 
BRANCH  28  31
ATOM     31  C   UNL     1     113.023 130.115 139.558  0.00  0.00    +0.000 C 
BRANCH  31  32
ATOM     32  O   UNL     1     113.582 129.529 139.713  0.00  0.00    +0.000 OA
BRANCH  32  34
ATOM     33  O   UNL     1     113.919 129.202 141.063  0.00  0.00    +0.000 OA
ATOM     34  C   UNL     1     114.087 129.602 140.361  0.00  0.00    +0.000 C 
ATOM     35  C   UNL     1     114.761 130.076 140.306  0.00  0.00    +0.000 C 
ENDBRANCH  32  34
ENDBRANCH  31  32
ENDBRANCH  28  31
ENDBRANCH  21  30
ENDBRANCH   1  21
TORSDOF 7
ENDMDL
