MODEL 1
REMARK VINA RESULT:      -8.8      0.000      0.000
REMARK  Name = 73829950
REMARK  8 active torsions:
REMARK  status: ('A' for Active; 'I' for Inactive)
REMARK    1  A    between atoms: O_2  and  C_13
REMARK    2  A    between atoms: O_2  and  C_20
REMARK    3  A    between atoms: O_3  and  C_15
REMARK    4  A    between atoms: O_3  and  C_21
REMARK    5  A    between atoms: O_5  and  C_17
REMARK    6  A    between atoms: O_5  and  C_19
REMARK    7  A    between atoms: C_16  and  C_18
REMARK    8  A    between atoms: C_30  and  C_32
REMARK                            x       y       z     vdW  Elec       q    Type
REMARK                         _______ _______ _______ _____ _____    ______ ____
ROOT
ATOM      1  O   UNL     1     112.458 127.338 137.172  0.00  0.00    +0.000 OA
ATOM      2  O   UNL     1     112.864 129.906 135.912  0.00  0.00    +0.000 OA
ATOM      3  O   UNL     1     113.802 128.826 135.720  0.00  0.00    +0.000 OA
ATOM      4  C   UNL     1     111.220 129.198 137.257  0.00  0.00    +0.000 A 
ATOM      5  C   UNL     1     111.484 128.391 137.398  0.00  0.00    +0.000 A 
ATOM      6  C   UNL     1     111.687 129.713 136.753  0.00  0.00    +0.000 A 
ATOM      7  C   UNL     1     112.210 128.113 137.033  0.00  0.00    +0.000 A 
ATOM      8  C   UNL     1     112.658 128.609 136.549  0.00  0.00    +0.000 A 
ATOM      9  C   UNL     1     112.410 129.417 136.397  0.00  0.00    +0.000 A 
ATOM     10  C   UNL     1     113.353 128.330 136.204  0.00  0.00    +0.000 A 
ATOM     11  C   UNL     1     113.153 127.060 136.827  0.00  0.00    +0.000 A 
ATOM     12  C   UNL     1     113.601 127.556 136.343  0.00  0.00    +0.000 A 
ENDROOT
BRANCH  11  14
ATOM     13  O   UNL     1     114.141 123.960 137.382  0.00  0.00    +0.000 OA
ATOM     14  C   UNL     1     113.401 126.285 136.966  0.00  0.00    +0.000 A 
ATOM     15  C   UNL     1     113.116 125.671 136.494  0.00  0.00    +0.000 A 
ATOM     16  C   UNL     1     113.931 126.125 137.577  0.00  0.00    +0.000 A 
ATOM     17  C   UNL     1     113.363 124.896 136.633  0.00  0.00    +0.000 A 
ATOM     18  C   UNL     1     114.178 125.350 137.716  0.00  0.00    +0.000 A 
ATOM     19  C   UNL     1     113.894 124.735 137.244  0.00  0.00    +0.000 A 
ENDBRANCH  11  14
BRANCH   4  20
ATOM     20  O   UNL     1     110.524 129.473 137.603  0.00  0.00    +0.000 OA
BRANCH  20  27
ATOM     21  O   UNL     1     109.631 128.965 136.610  0.00  0.00    +0.000 OA
ATOM     22  O   UNL     1     107.791 129.797 135.782  0.00  0.00    +0.000 OA
ATOM     23  C   UNL     1     108.683 130.305 136.775  0.00  0.00    +0.000 C 
ATOM     24  C   UNL     1     108.475 129.715 136.237  0.00  0.00    +0.000 C 
ATOM     25  C   UNL     1     109.367 130.224 137.231  0.00  0.00    +0.000 C 
ATOM     26  C   UNL     1     108.949 129.045 136.155  0.00  0.00    +0.000 C 
ATOM     27  C   UNL     1     109.841 129.554 137.148  0.00  0.00    +0.000 C 
BRANCH  26  29
ATOM     28  O   UNL     1     108.493 127.717 135.889  0.00  0.00    +0.000 OA
ATOM     29  C   UNL     1     108.739 128.456 135.617  0.00  0.00    +0.000 C 
ENDBRANCH  26  29
BRANCH  23  30
ATOM     30  O   UNL     1     108.209 130.975 136.858  0.00  0.00    +0.000 OA
BRANCH  30  32
ATOM     31  O   UNL     1     108.791 131.820 135.865  0.00  0.00    +0.000 OA
ATOM     32  C   UNL     1     108.124 131.500 136.228  0.00  0.00    +0.000 C 
ATOM     33  C   UNL     1     107.371 131.705 135.961  0.00  0.00    +0.000 C 
ENDBRANCH  30  32
ENDBRANCH  23  30
BRANCH  25  34
ATOM     34  O   UNL     1     109.576 130.814 137.769  0.00  0.00    +0.000 OA
BRANCH  34  36
ATOM     35  O   UNL     1     108.786 130.185 138.779  0.00  0.00    +0.000 OA
ATOM     36  C   UNL     1     109.332 130.760 138.555  0.00  0.00    +0.000 C 
ATOM     37  C   UNL     1     109.636 131.283 139.117  0.00  0.00    +0.000 C 
ENDBRANCH  34  36
ENDBRANCH  25  34
ENDBRANCH  20  27
ENDBRANCH   4  20
TORSDOF 8
ENDMDL
MODEL 2
REMARK VINA RESULT:      -8.7      6.597      8.659
REMARK  Name = 73829950
REMARK  8 active torsions:
REMARK  status: ('A' for Active; 'I' for Inactive)
REMARK    1  A    between atoms: O_2  and  C_13
REMARK    2  A    between atoms: O_2  and  C_20
REMARK    3  A    between atoms: O_3  and  C_15
REMARK    4  A    between atoms: O_3  and  C_21
REMARK    5  A    between atoms: O_5  and  C_17
REMARK    6  A    between atoms: O_5  and  C_19
REMARK    7  A    between atoms: C_16  and  C_18
REMARK    8  A    between atoms: C_30  and  C_32
REMARK                            x       y       z     vdW  Elec       q    Type
REMARK                         _______ _______ _______ _____ _____    ______ ____
ROOT
ATOM      1  O   UNL     1     104.763 124.407 139.413  0.00  0.00    +0.000 OA
ATOM      2  O   UNL     1     105.469 123.543 142.078  0.00  0.00    +0.000 OA
ATOM      3  O   UNL     1     104.499 122.819 141.293  0.00  0.00    +0.000 OA
ATOM      4  C   UNL     1     106.205 125.285 140.877  0.00  0.00    +0.000 A 
ATOM      5  C   UNL     1     105.746 125.172 140.159  0.00  0.00    +0.000 A 
ATOM      6  C   UNL     1     106.113 124.733 141.530  0.00  0.00    +0.000 A 
ATOM      7  C   UNL     1     105.201 124.510 140.104  0.00  0.00    +0.000 A 
ATOM      8  C   UNL     1     105.113 123.981 140.731  0.00  0.00    +0.000 A 
ATOM      9  C   UNL     1     105.563 124.077 141.456  0.00  0.00    +0.000 A 
ATOM     10  C   UNL     1     104.587 123.348 140.666  0.00  0.00    +0.000 A 
ATOM     11  C   UNL     1     104.237 123.774 139.348  0.00  0.00    +0.000 A 
ATOM     12  C   UNL     1     104.149 123.245 139.975  0.00  0.00    +0.000 A 
ENDROOT
BRANCH  11  14
ATOM     13  O   UNL     1     102.484 123.365 136.582  0.00  0.00    +0.000 OA
ATOM     14  C   UNL     1     103.799 123.672 138.656  0.00  0.00    +0.000 A 
ATOM     15  C   UNL     1     102.986 123.818 138.658  0.00  0.00    +0.000 A 
ATOM     16  C   UNL     1     104.173 123.424 137.964  0.00  0.00    +0.000 A 
ATOM     17  C   UNL     1     102.549 123.715 137.966  0.00  0.00    +0.000 A 
ATOM     18  C   UNL     1     103.735 123.322 137.272  0.00  0.00    +0.000 A 
ATOM     19  C   UNL     1     102.922 123.468 137.274  0.00  0.00    +0.000 A 
ENDBRANCH  11  14
BRANCH   4  20
ATOM     20  O   UNL     1     106.730 125.918 140.939  0.00  0.00    +0.000 OA
BRANCH  20  27
ATOM     21  O   UNL     1     105.761 126.879 141.360  0.00  0.00    +0.000 OA
ATOM     22  O   UNL     1     105.923 128.561 142.741  0.00  0.00    +0.000 OA
ATOM     23  C   UNL     1     106.892 127.600 142.321  0.00  0.00    +0.000 C 
ATOM     24  C   UNL     1     106.125 127.900 142.291  0.00  0.00    +0.000 C 
ATOM     25  C   UNL     1     107.094 126.939 141.870  0.00  0.00    +0.000 C 
ATOM     26  C   UNL     1     105.559 127.540 141.811  0.00  0.00    +0.000 C 
ATOM     27  C   UNL     1     106.528 126.578 141.389  0.00  0.00    +0.000 C 
BRANCH  26  29
ATOM     28  O   UNL     1     104.482 128.113 141.067  0.00  0.00    +0.000 OA
ATOM     29  C   UNL     1     104.792 127.840 141.781  0.00  0.00    +0.000 C 
ENDBRANCH  26  29
BRANCH  23  30
ATOM     30  O   UNL     1     107.458 127.960 142.801  0.00  0.00    +0.000 OA
BRANCH  30  32
ATOM     31  O   UNL     1     107.212 127.259 144.020  0.00  0.00    +0.000 OA
ATOM     32  C   UNL     1     107.362 127.963 143.620  0.00  0.00    +0.000 C 
ATOM     33  C   UNL     1     107.417 128.672 144.039  0.00  0.00    +0.000 C 
ENDBRANCH  30  32
ENDBRANCH  23  30
BRANCH  25  34
ATOM     34  O   UNL     1     107.862 126.639 141.900  0.00  0.00    +0.000 OA
BRANCH  34  36
ATOM     35  O   UNL     1     108.246 127.492 140.821  0.00  0.00    +0.000 OA
ATOM     36  C   UNL     1     108.422 126.880 141.344  0.00  0.00    +0.000 C 
ATOM     37  C   UNL     1     109.158 126.509 141.313  0.00  0.00    +0.000 C 
ENDBRANCH  34  36
ENDBRANCH  25  34
ENDBRANCH  20  27
ENDBRANCH   4  20
TORSDOF 8
ENDMDL
MODEL 3
REMARK VINA RESULT:      -8.7      2.067      3.928
REMARK  Name = 73829950
REMARK  8 active torsions:
REMARK  status: ('A' for Active; 'I' for Inactive)
REMARK    1  A    between atoms: O_2  and  C_13
REMARK    2  A    between atoms: O_2  and  C_20
REMARK    3  A    between atoms: O_3  and  C_15
REMARK    4  A    between atoms: O_3  and  C_21
REMARK    5  A    between atoms: O_5  and  C_17
REMARK    6  A    between atoms: O_5  and  C_19
REMARK    7  A    between atoms: C_16  and  C_18
REMARK    8  A    between atoms: C_30  and  C_32
REMARK                            x       y       z     vdW  Elec       q    Type
REMARK                         _______ _______ _______ _____ _____    ______ ____
ROOT
ATOM      1  O   UNL     1     112.145 126.762 136.318  0.00  0.00    +0.000 OA
ATOM      2  O   UNL     1     110.516 128.432 134.614  0.00  0.00    +0.000 OA
ATOM      3  O   UNL     1     110.269 127.014 134.722  0.00  0.00    +0.000 OA
ATOM      4  C   UNL     1     112.253 128.959 135.925  0.00  0.00    +0.000 A 
ATOM      5  C   UNL     1     112.436 128.183 136.245  0.00  0.00    +0.000 A 
ATOM      6  C   UNL     1     111.602 129.047 135.372  0.00  0.00    +0.000 A 
ATOM      7  C   UNL     1     111.965 127.505 136.007  0.00  0.00    +0.000 A 
ATOM      8  C   UNL     1     111.340 127.589 135.476  0.00  0.00    +0.000 A 
ATOM      9  C   UNL     1     111.142 128.357 135.145  0.00  0.00    +0.000 A 
ATOM     10  C   UNL     1     110.895 126.931 135.254  0.00  0.00    +0.000 A 
ATOM     11  C   UNL     1     111.700 126.103 136.097  0.00  0.00    +0.000 A 
ATOM     12  C   UNL     1     111.075 126.188 135.565  0.00  0.00    +0.000 A 
ENDROOT
BRANCH  11  14
ATOM     13  O   UNL     1     112.424 123.133 137.339  0.00  0.00    +0.000 OA
ATOM     14  C   UNL     1     111.880 125.361 136.407  0.00  0.00    +0.000 A 
ATOM     15  C   UNL     1     112.561 124.965 136.160  0.00  0.00    +0.000 A 
ATOM     16  C   UNL     1     111.381 125.014 136.965  0.00  0.00    +0.000 A 
ATOM     17  C   UNL     1     112.742 124.223 136.471  0.00  0.00    +0.000 A 
ATOM     18  C   UNL     1     111.562 124.271 137.275  0.00  0.00    +0.000 A 
ATOM     19  C   UNL     1     112.243 123.876 137.028  0.00  0.00    +0.000 A 
ENDBRANCH  11  14
BRANCH   4  20
ATOM     20  O   UNL     1     112.700 129.616 136.148  0.00  0.00    +0.000 OA
BRANCH  20  27
ATOM     21  O   UNL     1     111.880 130.000 137.254  0.00  0.00    +0.000 OA
ATOM     22  O   UNL     1     112.404 130.857 139.191  0.00  0.00    +0.000 OA
ATOM     23  C   UNL     1     113.223 130.473 138.086  0.00  0.00    +0.000 C 
ATOM     24  C   UNL     1     112.477 130.547 138.430  0.00  0.00    +0.000 C 
ATOM     25  C   UNL     1     113.297 130.163 137.325  0.00  0.00    +0.000 C 
ATOM     26  C   UNL     1     111.805 130.310 138.014  0.00  0.00    +0.000 C 
ATOM     27  C   UNL     1     112.626 129.926 136.908  0.00  0.00    +0.000 C 
BRANCH  26  29
ATOM     28  O   UNL     1     110.462 130.795 137.965  0.00  0.00    +0.000 OA
ATOM     29  C   UNL     1     111.060 130.384 138.358  0.00  0.00    +0.000 C 
ENDBRANCH  26  29
BRANCH  23  30
ATOM     30  O   UNL     1     113.895 130.710 138.503  0.00  0.00    +0.000 OA
BRANCH  30  32
ATOM     31  O   UNL     1     114.058 129.481 139.211  0.00  0.00    +0.000 OA
ATOM     32  C   UNL     1     114.124 130.302 139.181  0.00  0.00    +0.000 C 
ATOM     33  C   UNL     1     114.420 130.716 139.831  0.00  0.00    +0.000 C 
ENDBRANCH  30  32
ENDBRANCH  23  30
BRANCH  25  34
ATOM     34  O   UNL     1     114.044 130.089 136.981  0.00  0.00    +0.000 OA
BRANCH  34  36
ATOM     35  O   UNL     1     113.934 131.404 136.432  0.00  0.00    +0.000 OA
ATOM     36  C   UNL     1     114.329 130.682 136.482  0.00  0.00    +0.000 C 
ATOM     37  C   UNL     1     115.009 130.551 136.034  0.00  0.00    +0.000 C 
ENDBRANCH  34  36
ENDBRANCH  25  34
ENDBRANCH  20  27
ENDBRANCH   4  20
TORSDOF 8
ENDMDL
MODEL 4
REMARK VINA RESULT:      -8.5      2.098      5.596
REMARK  Name = 73829950
REMARK  8 active torsions:
REMARK  status: ('A' for Active; 'I' for Inactive)
REMARK    1  A    between atoms: O_2  and  C_13
REMARK    2  A    between atoms: O_2  and  C_20
REMARK    3  A    between atoms: O_3  and  C_15
REMARK    4  A    between atoms: O_3  and  C_21
REMARK    5  A    between atoms: O_5  and  C_17
REMARK    6  A    between atoms: O_5  and  C_19
REMARK    7  A    between atoms: C_16  and  C_18
REMARK    8  A    between atoms: C_30  and  C_32
REMARK                            x       y       z     vdW  Elec       q    Type
REMARK                         _______ _______ _______ _____ _____    ______ ____
ROOT
ATOM      1  O   UNL     1     111.340 130.074 136.968  0.00  0.00    +0.000 OA
ATOM      2  O   UNL     1     113.820 128.993 135.953  0.00  0.00    +0.000 OA
ATOM      3  O   UNL     1     113.731 130.364 136.395  0.00  0.00    +0.000 OA
ATOM      4  C   UNL     1     111.817 128.026 136.212  0.00  0.00    +0.000 A 
ATOM      5  C   UNL     1     111.375 128.688 136.536  0.00  0.00    +0.000 A 
ATOM      6  C   UNL     1     112.646 128.127 136.013  0.00  0.00    +0.000 A 
ATOM      7  C   UNL     1     111.769 129.442 136.657  0.00  0.00    +0.000 A 
ATOM      8  C   UNL     1     112.566 129.538 136.466  0.00  0.00    +0.000 A 
ATOM      9  C   UNL     1     113.023 128.888 136.141  0.00  0.00    +0.000 A 
ATOM     10  C   UNL     1     112.934 130.267 136.586  0.00  0.00    +0.000 A 
ATOM     11  C   UNL     1     111.708 130.803 137.088  0.00  0.00    +0.000 A 
ATOM     12  C   UNL     1     112.505 130.899 136.897  0.00  0.00    +0.000 A 
ENDROOT
BRANCH  11  14
ATOM     13  O   UNL     1     109.989 133.328 138.336  0.00  0.00    +0.000 OA
ATOM     14  C   UNL     1     111.278 131.434 137.400  0.00  0.00    +0.000 A 
ATOM     15  C   UNL     1     110.962 131.383 138.161  0.00  0.00    +0.000 A 
ATOM     16  C   UNL     1     111.164 132.117 136.951  0.00  0.00    +0.000 A 
ATOM     17  C   UNL     1     110.533 132.014 138.472  0.00  0.00    +0.000 A 
ATOM     18  C   UNL     1     110.735 132.749 137.263  0.00  0.00    +0.000 A 
ATOM     19  C   UNL     1     110.419 132.697 138.024  0.00  0.00    +0.000 A 
ENDBRANCH  11  14
BRANCH   4  20
ATOM     20  O   UNL     1     111.446 127.298 136.093  0.00  0.00    +0.000 OA
BRANCH  20  27
ATOM     21  O   UNL     1     111.787 126.852 137.407  0.00  0.00    +0.000 OA
ATOM     22  O   UNL     1     111.904 124.841 138.247  0.00  0.00    +0.000 OA
ATOM     23  C   UNL     1     111.564 125.287 136.933  0.00  0.00    +0.000 C 
ATOM     24  C   UNL     1     111.790 125.456 137.709  0.00  0.00    +0.000 C 
ATOM     25  C   UNL     1     111.449 125.902 136.394  0.00  0.00    +0.000 C 
ATOM     26  C   UNL     1     111.901 126.238 137.945  0.00  0.00    +0.000 C 
ATOM     27  C   UNL     1     111.561 126.684 136.631  0.00  0.00    +0.000 C 
BRANCH  26  29
ATOM     28  O   UNL     1     111.611 126.808 139.223  0.00  0.00    +0.000 OA
ATOM     29  C   UNL     1     112.127 126.406 138.720  0.00  0.00    +0.000 C 
ENDBRANCH  26  29
BRANCH  23  30
ATOM     30  O   UNL     1     111.452 124.505 136.697  0.00  0.00    +0.000 OA
BRANCH  30  32
ATOM     31  O   UNL     1     112.788 124.127 136.362  0.00  0.00    +0.000 OA
ATOM     32  C   UNL     1     112.076 123.967 136.744  0.00  0.00    +0.000 C 
ATOM     33  C   UNL     1     111.986 123.268 137.173  0.00  0.00    +0.000 C 
ENDBRANCH  30  32
ENDBRANCH  23  30
BRANCH  25  34
ATOM     34  O   UNL     1     111.223 125.733 135.619  0.00  0.00    +0.000 OA
BRANCH  34  36
ATOM     35  O   UNL     1     109.845 125.735 135.992  0.00  0.00    +0.000 OA
ATOM     36  C   UNL     1     110.426 125.751 135.408  0.00  0.00    +0.000 C 
ATOM     37  C   UNL     1     110.211 125.786 134.612  0.00  0.00    +0.000 C 
ENDBRANCH  34  36
ENDBRANCH  25  34
ENDBRANCH  20  27
ENDBRANCH   4  20
TORSDOF 8
ENDMDL
MODEL 5
REMARK VINA RESULT:      -8.5      6.400     10.043
REMARK  Name = 73829950
REMARK  8 active torsions:
REMARK  status: ('A' for Active; 'I' for Inactive)
REMARK    1  A    between atoms: O_2  and  C_13
REMARK    2  A    between atoms: O_2  and  C_20
REMARK    3  A    between atoms: O_3  and  C_15
REMARK    4  A    between atoms: O_3  and  C_21
REMARK    5  A    between atoms: O_5  and  C_17
REMARK    6  A    between atoms: O_5  and  C_19
REMARK    7  A    between atoms: C_16  and  C_18
REMARK    8  A    between atoms: C_30  and  C_32
REMARK                            x       y       z     vdW  Elec       q    Type
REMARK                         _______ _______ _______ _____ _____    ______ ____
ROOT
ATOM      1  O   UNL     1     103.004 130.374 141.927  0.00  0.00    +0.000 OA
ATOM      2  O   UNL     1     103.452 128.165 140.120  0.00  0.00    +0.000 OA
ATOM      3  O   UNL     1     102.453 129.168 139.837  0.00  0.00    +0.000 OA
ATOM      4  C   UNL     1     104.448 128.673 142.060  0.00  0.00    +0.000 A 
ATOM      5  C   UNL     1     104.021 129.393 142.260  0.00  0.00    +0.000 A 
ATOM      6  C   UNL     1     104.256 128.255 141.335  0.00  0.00    +0.000 A 
ATOM      7  C   UNL     1     103.410 129.683 141.731  0.00  0.00    +0.000 A 
ATOM      8  C   UNL     1     103.226 129.281 141.034  0.00  0.00    +0.000 A 
ATOM      9  C   UNL     1     103.642 128.561 140.819  0.00  0.00    +0.000 A 
ATOM     10  C   UNL     1     102.637 129.570 140.534  0.00  0.00    +0.000 A 
ATOM     11  C   UNL     1     102.415 130.663 141.427  0.00  0.00    +0.000 A 
ATOM     12  C   UNL     1     102.231 130.261 140.731  0.00  0.00    +0.000 A 
ENDROOT
BRANCH  11  14
ATOM     13  O   UNL     1     100.795 133.428 142.214  0.00  0.00    +0.000 OA
ATOM     14  C   UNL     1     102.010 131.354 141.624  0.00  0.00    +0.000 A 
ATOM     15  C   UNL     1     102.349 132.090 141.466  0.00  0.00    +0.000 A 
ATOM     16  C   UNL     1     101.266 131.310 141.978  0.00  0.00    +0.000 A 
ATOM     17  C   UNL     1     101.944 132.781 141.663  0.00  0.00    +0.000 A 
ATOM     18  C   UNL     1     100.861 132.001 142.175  0.00  0.00    +0.000 A 
ATOM     19  C   UNL     1     101.200 132.737 142.018  0.00  0.00    +0.000 A 
ENDBRANCH  11  14
BRANCH   4  20
ATOM     20  O   UNL     1     105.037 128.387 142.562  0.00  0.00    +0.000 OA
BRANCH  20  27
ATOM     21  O   UNL     1     106.094 129.217 142.076  0.00  0.00    +0.000 OA
ATOM     22  O   UNL     1     108.215 128.800 141.780  0.00  0.00    +0.000 OA
ATOM     23  C   UNL     1     107.159 127.971 142.266  0.00  0.00    +0.000 C 
ATOM     24  C   UNL     1     107.421 128.697 141.975  0.00  0.00    +0.000 C 
ATOM     25  C   UNL     1     106.363 127.867 142.461  0.00  0.00    +0.000 C 
ATOM     26  C   UNL     1     106.888 129.320 141.881  0.00  0.00    +0.000 C 
ATOM     27  C   UNL     1     105.831 128.490 142.367  0.00  0.00    +0.000 C 
BRANCH  26  29
ATOM     28  O   UNL     1     106.934 130.291 140.833  0.00  0.00    +0.000 OA
ATOM     29  C   UNL     1     107.151 130.046 141.591  0.00  0.00    +0.000 C 
ENDBRANCH  26  29
BRANCH  23  30
ATOM     30  O   UNL     1     107.691 127.348 142.360  0.00  0.00    +0.000 OA
BRANCH  30  32
ATOM     31  O   UNL     1     107.617 126.766 141.058  0.00  0.00    +0.000 OA
ATOM     32  C   UNL     1     108.064 127.021 141.702  0.00  0.00    +0.000 C 
ATOM     33  C   UNL     1     108.886 126.948 141.687  0.00  0.00    +0.000 C 
ENDBRANCH  30  32
ENDBRANCH  23  30
BRANCH  25  34
ATOM     34  O   UNL     1     106.102 127.141 142.751  0.00  0.00    +0.000 OA
BRANCH  34  36
ATOM     35  O   UNL     1     106.336 127.589 144.087  0.00  0.00    +0.000 OA
ATOM     36  C   UNL     1     106.094 126.999 143.564  0.00  0.00    +0.000 C 
ATOM     37  C   UNL     1     105.845 126.267 143.852  0.00  0.00    +0.000 C 
ENDBRANCH  34  36
ENDBRANCH  25  34
ENDBRANCH  20  27
ENDBRANCH   4  20
TORSDOF 8
ENDMDL
MODEL 6
REMARK VINA RESULT:      -8.5      3.015      5.420
REMARK  Name = 73829950
REMARK  8 active torsions:
REMARK  status: ('A' for Active; 'I' for Inactive)
REMARK    1  A    between atoms: O_2  and  C_13
REMARK    2  A    between atoms: O_2  and  C_20
REMARK    3  A    between atoms: O_3  and  C_15
REMARK    4  A    between atoms: O_3  and  C_21
REMARK    5  A    between atoms: O_5  and  C_17
REMARK    6  A    between atoms: O_5  and  C_19
REMARK    7  A    between atoms: C_16  and  C_18
REMARK    8  A    between atoms: C_30  and  C_32
REMARK                            x       y       z     vdW  Elec       q    Type
REMARK                         _______ _______ _______ _____ _____    ______ ____
ROOT
ATOM      1  O   UNL     1     112.797 128.829 138.529  0.00  0.00    +0.000 OA
ATOM      2  O   UNL     1     113.804 129.542 135.916  0.00  0.00    +0.000 OA
ATOM      3  O   UNL     1     114.101 130.350 137.075  0.00  0.00    +0.000 OA
ATOM      4  C   UNL     1     112.530 127.814 136.555  0.00  0.00    +0.000 A 
ATOM      5  C   UNL     1     112.468 127.981 137.396  0.00  0.00    +0.000 A 
ATOM      6  C   UNL     1     112.983 128.343 136.051  0.00  0.00    +0.000 A 
ATOM      7  C   UNL     1     112.860 128.674 137.721  0.00  0.00    +0.000 A 
ATOM      8  C   UNL     1     113.294 129.180 137.236  0.00  0.00    +0.000 A 
ATOM      9  C   UNL     1     113.368 129.030 136.394  0.00  0.00    +0.000 A 
ATOM     10  C   UNL     1     113.666 129.842 137.559  0.00  0.00    +0.000 A 
ATOM     11  C   UNL     1     113.169 129.491 138.852  0.00  0.00    +0.000 A 
ATOM     12  C   UNL     1     113.603 129.997 138.367  0.00  0.00    +0.000 A 
ENDROOT
BRANCH  11  14
ATOM     13  O   UNL     1     112.917 130.107 142.084  0.00  0.00    +0.000 OA
ATOM     14  C   UNL     1     113.105 129.645 139.659  0.00  0.00    +0.000 A 
ATOM     15  C   UNL     1     113.705 129.404 140.174  0.00  0.00    +0.000 A 
ATOM     16  C   UNL     1     112.444 130.040 139.954  0.00  0.00    +0.000 A 
ATOM     17  C   UNL     1     113.641 129.558 140.981  0.00  0.00    +0.000 A 
ATOM     18  C   UNL     1     112.381 130.194 140.762  0.00  0.00    +0.000 A 
ATOM     19  C   UNL     1     112.980 129.953 141.276  0.00  0.00    +0.000 A 
ENDBRANCH  11  14
BRANCH   4  20
ATOM     20  O   UNL     1     112.157 127.152 136.234  0.00  0.00    +0.000 OA
BRANCH  20  27
ATOM     21  O   UNL     1     113.293 126.305 136.420  0.00  0.00    +0.000 OA
ATOM     22  O   UNL     1     113.432 124.147 136.716  0.00  0.00    +0.000 OA
ATOM     23  C   UNL     1     112.297 124.994 136.531  0.00  0.00    +0.000 C 
ATOM     24  C   UNL     1     113.114 124.899 136.596  0.00  0.00    +0.000 C 
ATOM     25  C   UNL     1     111.978 125.746 136.410  0.00  0.00    +0.000 C 
ATOM     26  C   UNL     1     113.612 125.554 136.540  0.00  0.00    +0.000 C 
ATOM     27  C   UNL     1     112.476 126.401 136.355  0.00  0.00    +0.000 C 
BRANCH  26  29
ATOM     28  O   UNL     1     114.922 125.699 135.990  0.00  0.00    +0.000 OA
ATOM     29  C   UNL     1     114.428 125.458 136.605  0.00  0.00    +0.000 C 
ENDBRANCH  26  29
BRANCH  23  30
ATOM     30  O   UNL     1     111.799 124.338 136.587  0.00  0.00    +0.000 OA
BRANCH  30  32
ATOM     31  O   UNL     1     111.563 124.290 137.994  0.00  0.00    +0.000 OA
ATOM     32  C   UNL     1     111.759 123.910 137.290  0.00  0.00    +0.000 C 
ATOM     33  C   UNL     1     111.915 123.100 137.288  0.00  0.00    +0.000 C 
ENDBRANCH  30  32
ENDBRANCH  23  30
BRANCH  25  34
ATOM     34  O   UNL     1     111.161 125.841 136.346  0.00  0.00    +0.000 OA
BRANCH  34  36
ATOM     35  O   UNL     1     111.231 125.608 134.938  0.00  0.00    +0.000 OA
ATOM     36  C   UNL     1     110.803 125.844 135.603  0.00  0.00    +0.000 C 
ATOM     37  C   UNL     1     110.017 126.082 135.525  0.00  0.00    +0.000 C 
ENDBRANCH  34  36
ENDBRANCH  25  34
ENDBRANCH  20  27
ENDBRANCH   4  20
TORSDOF 8
ENDMDL
MODEL 7
REMARK VINA RESULT:      -8.5      7.802     10.377
REMARK  Name = 73829950
REMARK  8 active torsions:
REMARK  status: ('A' for Active; 'I' for Inactive)
REMARK    1  A    between atoms: O_2  and  C_13
REMARK    2  A    between atoms: O_2  and  C_20
REMARK    3  A    between atoms: O_3  and  C_15
REMARK    4  A    between atoms: O_3  and  C_21
REMARK    5  A    between atoms: O_5  and  C_17
REMARK    6  A    between atoms: O_5  and  C_19
REMARK    7  A    between atoms: C_16  and  C_18
REMARK    8  A    between atoms: C_30  and  C_32
REMARK                            x       y       z     vdW  Elec       q    Type
REMARK                         _______ _______ _______ _____ _____    ______ ____
ROOT
ATOM      1  O   UNL     1     104.982 128.628 143.042  0.00  0.00    +0.000 OA
ATOM      2  O   UNL     1     107.663 128.036 142.141  0.00  0.00    +0.000 OA
ATOM      3  O   UNL     1     106.818 128.951 141.412  0.00  0.00    +0.000 OA
ATOM      4  C   UNL     1     106.533 127.279 143.920  0.00  0.00    +0.000 A 
ATOM      5  C   UNL     1     105.791 127.700 143.812  0.00  0.00    +0.000 A 
ATOM      6  C   UNL     1     107.169 127.391 143.354  0.00  0.00    +0.000 A 
ATOM      7  C   UNL     1     105.696 128.227 143.140  0.00  0.00    +0.000 A 
ATOM      8  C   UNL     1     106.308 128.334 142.597  0.00  0.00    +0.000 A 
ATOM      9  C   UNL     1     107.056 127.922 142.689  0.00  0.00    +0.000 A 
ATOM     10  C   UNL     1     106.206 128.843 141.956  0.00  0.00    +0.000 A 
ATOM     11  C   UNL     1     104.880 129.137 142.400  0.00  0.00    +0.000 A 
ATOM     12  C   UNL     1     105.492 129.244 141.858  0.00  0.00    +0.000 A 
ENDROOT
BRANCH  11  14
ATOM     13  O   UNL     1     102.023 130.742 142.012  0.00  0.00    +0.000 OA
ATOM     14  C   UNL     1     104.166 129.538 142.303  0.00  0.00    +0.000 A 
ATOM     15  C   UNL     1     103.931 130.102 142.858  0.00  0.00    +0.000 A 
ATOM     16  C   UNL     1     103.687 129.375 141.651  0.00  0.00    +0.000 A 
ATOM     17  C   UNL     1     103.217 130.503 142.760  0.00  0.00    +0.000 A 
ATOM     18  C   UNL     1     102.972 129.777 141.554  0.00  0.00    +0.000 A 
ATOM     19  C   UNL     1     102.737 130.341 142.109  0.00  0.00    +0.000 A 
ENDBRANCH  11  14
BRANCH   4  20
ATOM     20  O   UNL     1     106.632 126.771 144.563  0.00  0.00    +0.000 OA
BRANCH  20  27
ATOM     21  O   UNL     1     106.198 125.612 143.849  0.00  0.00    +0.000 OA
ATOM     22  O   UNL     1     105.217 123.791 144.544  0.00  0.00    +0.000 OA
ATOM     23  C   UNL     1     105.651 124.949 145.257  0.00  0.00    +0.000 C 
ATOM     24  C   UNL     1     105.571 124.536 144.548  0.00  0.00    +0.000 C 
ATOM     25  C   UNL     1     106.005 125.695 145.262  0.00  0.00    +0.000 C 
ATOM     26  C   UNL     1     105.844 124.867 143.844  0.00  0.00    +0.000 C 
ATOM     27  C   UNL     1     106.279 126.026 144.558  0.00  0.00    +0.000 C 
BRANCH  26  29
ATOM     28  O   UNL     1     106.414 124.359 142.635  0.00  0.00    +0.000 OA
ATOM     29  C   UNL     1     105.764 124.454 143.135  0.00  0.00    +0.000 C 
ENDBRANCH  26  29
BRANCH  23  30
ATOM     30  O   UNL     1     105.378 124.617 145.962  0.00  0.00    +0.000 OA
BRANCH  30  32
ATOM     31  O   UNL     1     104.041 125.117 145.936  0.00  0.00    +0.000 OA
ATOM     32  C   UNL     1     104.570 124.501 146.076  0.00  0.00    +0.000 C 
ATOM     33  C   UNL     1     104.291 123.768 146.331  0.00  0.00    +0.000 C 
ENDBRANCH  30  32
ENDBRANCH  23  30
BRANCH  25  34
ATOM     34  O   UNL     1     106.086 126.108 145.971  0.00  0.00    +0.000 OA
BRANCH  34  36
ATOM     35  O   UNL     1     107.322 125.447 146.245  0.00  0.00    +0.000 OA
ATOM     36  C   UNL     1     106.785 126.052 146.405  0.00  0.00    +0.000 C 
ATOM     37  C   UNL     1     106.947 126.602 146.998  0.00  0.00    +0.000 C 
ENDBRANCH  34  36
ENDBRANCH  25  34
ENDBRANCH  20  27
ENDBRANCH   4  20
TORSDOF 8
ENDMDL
MODEL 8
REMARK VINA RESULT:      -8.4      8.230      9.950
REMARK  Name = 73829950
REMARK  8 active torsions:
REMARK  status: ('A' for Active; 'I' for Inactive)
REMARK    1  A    between atoms: O_2  and  C_13
REMARK    2  A    between atoms: O_2  and  C_20
REMARK    3  A    between atoms: O_3  and  C_15
REMARK    4  A    between atoms: O_3  and  C_21
REMARK    5  A    between atoms: O_5  and  C_17
REMARK    6  A    between atoms: O_5  and  C_19
REMARK    7  A    between atoms: C_16  and  C_18
REMARK    8  A    between atoms: C_30  and  C_32
REMARK                            x       y       z     vdW  Elec       q    Type
REMARK                         _______ _______ _______ _____ _____    ______ ____
ROOT
ATOM      1  O   UNL     1     104.752 124.412 140.632  0.00  0.00    +0.000 OA
ATOM      2  O   UNL     1     107.421 123.691 141.469  0.00  0.00    +0.000 OA
ATOM      3  O   UNL     1     106.838 123.128 140.275  0.00  0.00    +0.000 OA
ATOM      4  C   UNL     1     105.940 125.088 142.401  0.00  0.00    +0.000 A 
ATOM      5  C   UNL     1     105.292 125.008 141.841  0.00  0.00    +0.000 A 
ATOM      6  C   UNL     1     106.663 124.641 142.276  0.00  0.00    +0.000 A 
ATOM      7  C   UNL     1     105.377 124.484 141.165  0.00  0.00    +0.000 A 
ATOM      8  C   UNL     1     106.072 124.056 141.047  0.00  0.00    +0.000 A 
ATOM      9  C   UNL     1     106.730 124.123 141.595  0.00  0.00    +0.000 A 
ATOM     10  C   UNL     1     106.142 123.556 140.394  0.00  0.00    +0.000 A 
ATOM     11  C   UNL     1     104.822 123.912 139.979  0.00  0.00    +0.000 A 
ATOM     12  C   UNL     1     105.517 123.484 139.861  0.00  0.00    +0.000 A 
ENDROOT
BRANCH  11  14
ATOM     13  O   UNL     1     102.322 123.628 137.845  0.00  0.00    +0.000 OA
ATOM     14  C   UNL     1     104.197 123.841 139.446  0.00  0.00    +0.000 A 
ATOM     15  C   UNL     1     104.245 124.200 138.704  0.00  0.00    +0.000 A 
ATOM     16  C   UNL     1     103.524 123.411 139.654  0.00  0.00    +0.000 A 
ATOM     17  C   UNL     1     103.620 124.129 138.171  0.00  0.00    +0.000 A 
ATOM     18  C   UNL     1     102.899 123.340 139.120  0.00  0.00    +0.000 A 
ATOM     19  C   UNL     1     102.947 123.699 138.379  0.00  0.00    +0.000 A 
ENDBRANCH  11  14
BRANCH   4  20
ATOM     20  O   UNL     1     105.867 125.588 143.052  0.00  0.00    +0.000 OA
BRANCH  20  27
ATOM     21  O   UNL     1     105.290 124.571 143.874  0.00  0.00    +0.000 OA
ATOM     22  O   UNL     1     105.267 124.329 146.042  0.00  0.00    +0.000 OA
ATOM     23  C   UNL     1     105.844 125.345 145.221  0.00  0.00    +0.000 C 
ATOM     24  C   UNL     1     105.417 124.643 145.294  0.00  0.00    +0.000 C 
ATOM     25  C   UNL     1     105.994 125.661 144.473  0.00  0.00    +0.000 C 
ATOM     26  C   UNL     1     105.140 124.256 144.621  0.00  0.00    +0.000 C 
ATOM     27  C   UNL     1     105.717 125.273 143.799  0.00  0.00    +0.000 C 
BRANCH  26  29
ATOM     28  O   UNL     1     103.932 123.516 144.431  0.00  0.00    +0.000 OA
ATOM     29  C   UNL     1     104.713 123.555 144.694  0.00  0.00    +0.000 C 
ENDBRANCH  26  29
BRANCH  23  30
ATOM     30  O   UNL     1     106.120 125.732 145.895  0.00  0.00    +0.000 OA
BRANCH  30  32
ATOM     31  O   UNL     1     107.340 125.015 146.092  0.00  0.00    +0.000 OA
ATOM     32  C   UNL     1     106.653 125.354 146.398  0.00  0.00    +0.000 C 
ATOM     33  C   UNL     1     106.500 125.315 147.208  0.00  0.00    +0.000 C 
ENDBRANCH  30  32
ENDBRANCH  23  30
BRANCH  25  34
ATOM     34  O   UNL     1     106.420 126.363 144.400  0.00  0.00    +0.000 OA
BRANCH  34  36
ATOM     35  O   UNL     1     105.211 127.118 144.479  0.00  0.00    +0.000 OA
ATOM     36  C   UNL     1     106.023 127.083 144.342  0.00  0.00    +0.000 C 
ATOM     37  C   UNL     1     106.440 127.769 144.147  0.00  0.00    +0.000 C 
ENDBRANCH  34  36
ENDBRANCH  25  34
ENDBRANCH  20  27
ENDBRANCH   4  20
TORSDOF 8
ENDMDL
MODEL 9
REMARK VINA RESULT:      -8.4      1.397      2.418
REMARK  Name = 73829950
REMARK  8 active torsions:
REMARK  status: ('A' for Active; 'I' for Inactive)
REMARK    1  A    between atoms: O_2  and  C_13
REMARK    2  A    between atoms: O_2  and  C_20
REMARK    3  A    between atoms: O_3  and  C_15
REMARK    4  A    between atoms: O_3  and  C_21
REMARK    5  A    between atoms: O_5  and  C_17
REMARK    6  A    between atoms: O_5  and  C_19
REMARK    7  A    between atoms: C_16  and  C_18
REMARK    8  A    between atoms: C_30  and  C_32
REMARK                            x       y       z     vdW  Elec       q    Type
REMARK                         _______ _______ _______ _____ _____    ______ ____
ROOT
ATOM      1  O   UNL     1     112.962 127.289 136.524  0.00  0.00    +0.000 OA
ATOM      2  O   UNL     1     113.960 129.639 135.171  0.00  0.00    +0.000 OA
ATOM      3  O   UNL     1     114.785 128.467 135.334  0.00  0.00    +0.000 OA
ATOM      4  C   UNL     1     111.963 129.245 136.106  0.00  0.00    +0.000 A 
ATOM      5  C   UNL     1     112.089 128.442 136.388  0.00  0.00    +0.000 A 
ATOM      6  C   UNL     1     112.596 129.653 135.693  0.00  0.00    +0.000 A 
ATOM      7  C   UNL     1     112.847 128.060 136.252  0.00  0.00    +0.000 A 
ATOM      8  C   UNL     1     113.454 128.452 135.855  0.00  0.00    +0.000 A 
ATOM      9  C   UNL     1     113.347 129.254 135.567  0.00  0.00    +0.000 A 
ATOM     10  C   UNL     1     114.177 128.074 135.730  0.00  0.00    +0.000 A 
ATOM     11  C   UNL     1     113.685 126.911 136.399  0.00  0.00    +0.000 A 
ATOM     12  C   UNL     1     114.292 127.304 136.002  0.00  0.00    +0.000 A 
ENDROOT
BRANCH  11  14
ATOM     13  O   UNL     1     114.144 123.831 137.490  0.00  0.00    +0.000 OA
ATOM     14  C   UNL     1     113.799 126.141 136.671  0.00  0.00    +0.000 A 
ATOM     15  C   UNL     1     114.217 126.009 137.371  0.00  0.00    +0.000 A 
ATOM     16  C   UNL     1     113.496 125.503 136.245  0.00  0.00    +0.000 A 
ATOM     17  C   UNL     1     114.332 125.239 137.643  0.00  0.00    +0.000 A 
ATOM     18  C   UNL     1     113.611 124.733 136.518  0.00  0.00    +0.000 A 
ATOM     19  C   UNL     1     114.029 124.601 137.217  0.00  0.00    +0.000 A 
ENDBRANCH  11  14
BRANCH   4  20
ATOM     20  O   UNL     1     111.239 129.620 136.232  0.00  0.00    +0.000 OA
BRANCH  20  27
ATOM     21  O   UNL     1     111.569 130.079 137.545  0.00  0.00    +0.000 OA
ATOM     22  O   UNL     1     110.939 131.861 138.635  0.00  0.00    +0.000 OA
ATOM     23  C   UNL     1     110.610 131.403 137.323  0.00  0.00    +0.000 C 
ATOM     24  C   UNL     1     111.015 131.301 138.035  0.00  0.00    +0.000 C 
ATOM     25  C   UNL     1     110.685 130.842 136.722  0.00  0.00    +0.000 C 
ATOM     26  C   UNL     1     111.495 130.639 138.145  0.00  0.00    +0.000 C 
ATOM     27  C   UNL     1     111.165 130.180 136.833  0.00  0.00    +0.000 C 
BRANCH  26  29
ATOM     28  O   UNL     1     112.717 130.643 138.886  0.00  0.00    +0.000 OA
ATOM     29  C   UNL     1     111.899 130.537 138.857  0.00  0.00    +0.000 C 
ENDBRANCH  26  29
BRANCH  23  30
ATOM     30  O   UNL     1     110.130 132.065 137.213  0.00  0.00    +0.000 OA
BRANCH  30  32
ATOM     31  O   UNL     1     111.098 132.989 136.714  0.00  0.00    +0.000 OA
ATOM     32  C   UNL     1     110.463 132.819 137.211  0.00  0.00    +0.000 C 
ATOM     33  C   UNL     1     110.160 133.404 137.708  0.00  0.00    +0.000 C 
ENDBRANCH  30  32
ENDBRANCH  23  30
BRANCH  25  34
ATOM     34  O   UNL     1     110.280 130.944 136.011  0.00  0.00    +0.000 OA
BRANCH  34  36
ATOM     35  O   UNL     1     109.141 130.264 136.539  0.00  0.00    +0.000 OA
ATOM     36  C   UNL     1     109.547 130.582 135.897  0.00  0.00    +0.000 C 
ATOM     37  C   UNL     1     109.222 130.539 135.140  0.00  0.00    +0.000 C 
ENDBRANCH  34  36
ENDBRANCH  25  34
ENDBRANCH  20  27
ENDBRANCH   4  20
TORSDOF 8
ENDMDL
MODEL 10
REMARK VINA RESULT:      -8.4      3.112      5.447
REMARK  Name = 73829950
REMARK  8 active torsions:
REMARK  status: ('A' for Active; 'I' for Inactive)
REMARK    1  A    between atoms: O_2  and  C_13
REMARK    2  A    between atoms: O_2  and  C_20
REMARK    3  A    between atoms: O_3  and  C_15
REMARK    4  A    between atoms: O_3  and  C_21
REMARK    5  A    between atoms: O_5  and  C_17
REMARK    6  A    between atoms: O_5  and  C_19
REMARK    7  A    between atoms: C_16  and  C_18
REMARK    8  A    between atoms: C_30  and  C_32
REMARK                            x       y       z     vdW  Elec       q    Type
REMARK                         _______ _______ _______ _____ _____    ______ ____
ROOT
ATOM      1  O   UNL     1     113.703 128.474 139.799  0.00  0.00    +0.000 OA
ATOM      2  O   UNL     1     111.952 126.329 140.623  0.00  0.00    +0.000 OA
ATOM      3  O   UNL     1     112.282 127.408 141.523  0.00  0.00    +0.000 OA
ATOM      4  C   UNL     1     112.997 126.676 138.673  0.00  0.00    +0.000 A 
ATOM      5  C   UNL     1     113.404 127.412 138.854  0.00  0.00    +0.000 A 
ATOM      6  C   UNL     1     112.504 126.307 139.272  0.00  0.00    +0.000 A 
ATOM      7  C   UNL     1     113.311 127.768 139.631  0.00  0.00    +0.000 A 
ATOM      8  C   UNL     1     112.837 127.412 140.205  0.00  0.00    +0.000 A 
ATOM      9  C   UNL     1     112.423 126.677 140.043  0.00  0.00    +0.000 A 
ATOM     10  C   UNL     1     112.756 127.763 140.947  0.00  0.00    +0.000 A 
ATOM     11  C   UNL     1     113.622 128.825 140.541  0.00  0.00    +0.000 A 
ATOM     12  C   UNL     1     113.148 128.469 141.115  0.00  0.00    +0.000 A 
ENDROOT
BRANCH  11  14
ATOM     13  O   UNL     1     115.190 131.650 141.210  0.00  0.00    +0.000 OA
ATOM     14  C   UNL     1     114.014 129.530 140.708  0.00  0.00    +0.000 A 
ATOM     15  C   UNL     1     113.616 130.142 141.096  0.00  0.00    +0.000 A 
ATOM     16  C   UNL     1     114.804 129.626 140.488  0.00  0.00    +0.000 A 
ATOM     17  C   UNL     1     114.009 130.847 141.262  0.00  0.00    +0.000 A 
ATOM     18  C   UNL     1     115.196 130.333 140.655  0.00  0.00    +0.000 A 
ATOM     19  C   UNL     1     114.798 130.943 141.043  0.00  0.00    +0.000 A 
ENDBRANCH  11  14
BRANCH   4  20
ATOM     20  O   UNL     1     113.080 126.328 137.930  0.00  0.00    +0.000 OA
BRANCH  20  27
ATOM     21  O   UNL     1     112.410 127.356 137.199  0.00  0.00    +0.000 OA
ATOM     22  O   UNL     1     111.115 127.250 135.446  0.00  0.00    +0.000 OA
ATOM     23  C   UNL     1     111.785 126.222 136.176  0.00  0.00    +0.000 C 
ATOM     24  C   UNL     1     111.607 127.020 136.067  0.00  0.00    +0.000 C 
ATOM     25  C   UNL     1     112.277 125.991 136.798  0.00  0.00    +0.000 C 
ATOM     26  C   UNL     1     111.919 127.587 136.578  0.00  0.00    +0.000 C 
ATOM     27  C   UNL     1     112.589 126.558 137.309  0.00  0.00    +0.000 C 
BRANCH  26  29
ATOM     28  O   UNL     1     112.339 128.920 136.282  0.00  0.00    +0.000 OA
ATOM     29  C   UNL     1     111.740 128.384 136.468  0.00  0.00    +0.000 C 
ENDBRANCH  26  29
BRANCH  23  30
ATOM     30  O   UNL     1     111.473 125.655 135.665  0.00  0.00    +0.000 OA
BRANCH  30  32
ATOM     31  O   UNL     1     110.224 125.411 136.314  0.00  0.00    +0.000 OA
ATOM     32  C   UNL     1     110.657 125.541 135.625  0.00  0.00    +0.000 C 
ATOM     33  C   UNL     1     110.274 125.558 134.894  0.00  0.00    +0.000 C 
ENDBRANCH  30  32
ENDBRANCH  23  30
BRANCH  25  34
ATOM     34  O   UNL     1     112.455 125.194 136.907  0.00  0.00    +0.000 OA
BRANCH  34  36
ATOM     35  O   UNL     1     113.623 125.342 136.098  0.00  0.00    +0.000 OA
ATOM     36  C   UNL     1     113.137 124.873 136.571  0.00  0.00    +0.000 C 
ATOM     37  C   UNL     1     113.332 124.083 136.708  0.00  0.00    +0.000 C 
ENDBRANCH  34  36
ENDBRANCH  25  34
ENDBRANCH  20  27
ENDBRANCH   4  20
TORSDOF 8
ENDMDL
