MODEL 1
REMARK VINA RESULT:      -9.2      0.000      0.000
REMARK  Name = 44257832
REMARK  7 active torsions:
REMARK  status: ('A' for Active; 'I' for Inactive)
REMARK    1  A    between atoms: O_2  and  C_14
REMARK    2  A    between atoms: O_2  and  C_20
REMARK    3  A    between atoms: O_3  and  C_17
REMARK    4  A    between atoms: O_3  and  C_19
REMARK    5  A    between atoms: O_6  and  C_18
REMARK    6  A    between atoms: C_16  and  C_18
REMARK    7  A    between atoms: C_29  and  C_31
REMARK                            x       y       z     vdW  Elec       q    Type
REMARK                         _______ _______ _______ _____ _____    ______ ____
ROOT
ATOM      1  O   UNL     1     104.849 124.287 139.307  0.00  0.00    +0.000 OA
ATOM      2  O   UNL     1     105.554 123.377 141.957  0.00  0.00    +0.000 OA
ATOM      3  O   UNL     1     104.478 122.760 141.219  0.00  0.00    +0.000 OA
ATOM      4  C   UNL     1     106.435 125.011 140.703  0.00  0.00    +0.000 A 
ATOM      5  C   UNL     1     105.940 124.943 140.005  0.00  0.00    +0.000 A 
ATOM      6  C   UNL     1     106.307 124.481 141.368  0.00  0.00    +0.000 A 
ATOM      7  C   UNL     1     105.321 124.346 139.980  0.00  0.00    +0.000 A 
ATOM      8  C   UNL     1     105.198 123.838 140.617  0.00  0.00    +0.000 A 
ATOM      9  C   UNL     1     105.684 123.890 141.324  0.00  0.00    +0.000 A 
ATOM     10  C   UNL     1     104.601 123.269 140.581  0.00  0.00    +0.000 A 
ATOM     11  C   UNL     1     104.252 123.718 139.271  0.00  0.00    +0.000 A 
ATOM     12  C   UNL     1     104.128 123.208 139.908  0.00  0.00    +0.000 A 
ENDROOT
BRANCH  11  14
ATOM     13  O   UNL     1     102.360 123.477 136.578  0.00  0.00    +0.000 OA
ATOM     14  C   UNL     1     103.779 123.658 138.597  0.00  0.00    +0.000 A 
ATOM     15  C   UNL     1     102.981 123.864 138.634  0.00  0.00    +0.000 A 
ATOM     16  C   UNL     1     104.104 123.391 137.887  0.00  0.00    +0.000 A 
ATOM     17  C   UNL     1     102.508 123.804 137.961  0.00  0.00    +0.000 A 
ATOM     18  C   UNL     1     103.630 123.331 137.214  0.00  0.00    +0.000 A 
ATOM     19  C   UNL     1     102.833 123.537 137.251  0.00  0.00    +0.000 A 
ENDBRANCH  11  14
BRANCH   4  20
ATOM     20  O   UNL     1     107.031 125.581 140.736  0.00  0.00    +0.000 OA
BRANCH  20  28
ATOM     21  O   UNL     1     106.229 126.574 141.380  0.00  0.00    +0.000 OA
ATOM     22  O   UNL     1     108.230 127.419 142.566  0.00  0.00    +0.000 OA
ATOM     23  O   UNL     1     106.762 128.130 142.814  0.00  0.00    +0.000 OA
ATOM     24  C   UNL     1     107.563 127.137 142.171  0.00  0.00    +0.000 C 
ATOM     25  C   UNL     1     107.630 126.500 141.652  0.00  0.00    +0.000 C 
ATOM     26  C   UNL     1     106.829 127.493 142.295  0.00  0.00    +0.000 C 
ATOM     27  C   UNL     1     106.162 127.211 141.900  0.00  0.00    +0.000 C 
ATOM     28  C   UNL     1     106.964 126.218 141.256  0.00  0.00    +0.000 C 
BRANCH  27  30
ATOM     29  O   UNL     1     105.003 127.408 142.712  0.00  0.00    +0.000 OA
ATOM     30  C   UNL     1     105.428 127.567 142.023  0.00  0.00    +0.000 C 
BRANCH  30  31
ATOM     31  O   UNL     1     105.119 128.081 141.456  0.00  0.00    +0.000 OA
ATOM     32  C   UNL     1     104.322 128.295 141.485  0.00  0.00    +0.000 C 
ENDBRANCH  30  31
ENDBRANCH  27  30
BRANCH  25  33
ATOM     33  O   UNL     1     108.364 126.144 141.527  0.00  0.00    +0.000 OA
BRANCH  33  35
ATOM     34  O   UNL     1     108.725 126.980 140.425  0.00  0.00    +0.000 OA
ATOM     35  C   UNL     1     108.942 126.534 141.085  0.00  0.00    +0.000 C 
ATOM     36  C   UNL     1     109.736 126.479 141.303  0.00  0.00    +0.000 C 
ENDBRANCH  33  35
ENDBRANCH  25  33
ENDBRANCH  20  28
ENDBRANCH   4  20
TORSDOF 7
ENDMDL
MODEL 2
REMARK VINA RESULT:      -9.1      3.758      5.890
REMARK  Name = 44257832
REMARK  7 active torsions:
REMARK  status: ('A' for Active; 'I' for Inactive)
REMARK    1  A    between atoms: O_2  and  C_14
REMARK    2  A    between atoms: O_2  and  C_20
REMARK    3  A    between atoms: O_3  and  C_17
REMARK    4  A    between atoms: O_3  and  C_19
REMARK    5  A    between atoms: O_6  and  C_18
REMARK    6  A    between atoms: C_16  and  C_18
REMARK    7  A    between atoms: C_29  and  C_31
REMARK                            x       y       z     vdW  Elec       q    Type
REMARK                         _______ _______ _______ _____ _____    ______ ____
ROOT
ATOM      1  O   UNL     1     103.106 130.276 141.986  0.00  0.00    +0.000 OA
ATOM      2  O   UNL     1     103.664 128.046 140.236  0.00  0.00    +0.000 OA
ATOM      3  O   UNL     1     102.749 129.090 139.843  0.00  0.00    +0.000 OA
ATOM      4  C   UNL     1     104.450 128.516 142.280  0.00  0.00    +0.000 A 
ATOM      5  C   UNL     1     104.035 129.253 142.431  0.00  0.00    +0.000 A 
ATOM      6  C   UNL     1     104.327 128.104 141.537  0.00  0.00    +0.000 A 
ATOM      7  C   UNL     1     103.502 129.568 141.835  0.00  0.00    +0.000 A 
ATOM      8  C   UNL     1     103.383 129.174 141.122  0.00  0.00    +0.000 A 
ATOM      9  C   UNL     1     103.789 128.435 140.953  0.00  0.00    +0.000 A 
ATOM     10  C   UNL     1     102.868 129.486 140.557  0.00  0.00    +0.000 A 
ATOM     11  C   UNL     1     102.592 130.590 141.422  0.00  0.00    +0.000 A 
ATOM     12  C   UNL     1     102.472 130.194 140.707  0.00  0.00    +0.000 A 
ENDROOT
BRANCH  11  14
ATOM     13  O   UNL     1     101.009 133.423 142.022  0.00  0.00    +0.000 OA
ATOM     14  C   UNL     1     102.196 131.298 141.572  0.00  0.00    +0.000 A 
ATOM     15  C   UNL     1     101.436 131.286 141.894  0.00  0.00    +0.000 A 
ATOM     16  C   UNL     1     102.560 132.018 141.400  0.00  0.00    +0.000 A 
ATOM     17  C   UNL     1     101.041 131.994 142.044  0.00  0.00    +0.000 A 
ATOM     18  C   UNL     1     102.164 132.726 141.550  0.00  0.00    +0.000 A 
ATOM     19  C   UNL     1     101.405 132.714 141.872  0.00  0.00    +0.000 A 
ENDBRANCH  11  14
BRANCH   4  20
ATOM     20  O   UNL     1     104.964 128.206 142.846  0.00  0.00    +0.000 OA
BRANCH  20  28
ATOM     21  O   UNL     1     106.137 128.801 142.287  0.00  0.00    +0.000 OA
ATOM     22  O   UNL     1     107.487 126.884 143.079  0.00  0.00    +0.000 OA
ATOM     23  O   UNL     1     108.210 128.118 142.256  0.00  0.00    +0.000 OA
ATOM     24  C   UNL     1     107.037 127.523 142.815  0.00  0.00    +0.000 C 
ATOM     25  C   UNL     1     106.226 127.545 142.963  0.00  0.00    +0.000 C 
ATOM     26  C   UNL     1     107.399 128.139 142.404  0.00  0.00    +0.000 C 
ATOM     27  C   UNL     1     106.949 128.778 142.139  0.00  0.00    +0.000 C 
ATOM     28  C   UNL     1     105.776 128.184 142.699  0.00  0.00    +0.000 C 
BRANCH  27  30
ATOM     29  O   UNL     1     107.477 129.313 140.924  0.00  0.00    +0.000 OA
ATOM     30  C   UNL     1     107.309 129.396 141.728  0.00  0.00    +0.000 C 
BRANCH  30  31
ATOM     31  O   UNL     1     107.502 130.096 142.121  0.00  0.00    +0.000 OA
ATOM     32  C   UNL     1     107.654 130.782 141.689  0.00  0.00    +0.000 C 
ENDBRANCH  30  31
ENDBRANCH  27  30
BRANCH  25  33
ATOM     33  O   UNL     1     105.864 126.928 143.375  0.00  0.00    +0.000 OA
BRANCH  33  35
ATOM     34  O   UNL     1     106.039 127.482 144.681  0.00  0.00    +0.000 OA
ATOM     35  C   UNL     1     106.014 126.826 144.179  0.00  0.00    +0.000 C 
ATOM     36  C   UNL     1     106.138 126.070 144.484  0.00  0.00    +0.000 C 
ENDBRANCH  33  35
ENDBRANCH  25  33
ENDBRANCH  20  28
ENDBRANCH   4  20
TORSDOF 7
ENDMDL
MODEL 3
REMARK VINA RESULT:      -9.1      5.881      7.436
REMARK  Name = 44257832
REMARK  7 active torsions:
REMARK  status: ('A' for Active; 'I' for Inactive)
REMARK    1  A    between atoms: O_2  and  C_14
REMARK    2  A    between atoms: O_2  and  C_20
REMARK    3  A    between atoms: O_3  and  C_17
REMARK    4  A    between atoms: O_3  and  C_19
REMARK    5  A    between atoms: O_6  and  C_18
REMARK    6  A    between atoms: C_16  and  C_18
REMARK    7  A    between atoms: C_29  and  C_31
REMARK                            x       y       z     vdW  Elec       q    Type
REMARK                         _______ _______ _______ _____ _____    ______ ____
ROOT
ATOM      1  O   UNL     1     110.268 127.933 136.270  0.00  0.00    +0.000 OA
ATOM      2  O   UNL     1     107.841 129.464 135.929  0.00  0.00    +0.000 OA
ATOM      3  O   UNL     1     107.861 128.039 135.703  0.00  0.00    +0.000 OA
ATOM      4  C   UNL     1     109.895 130.120 136.534  0.00  0.00    +0.000 A 
ATOM      5  C   UNL     1     110.303 129.365 136.511  0.00  0.00    +0.000 A 
ATOM      6  C   UNL     1     109.060 130.158 136.337  0.00  0.00    +0.000 A 
ATOM      7  C   UNL     1     109.870 128.655 136.291  0.00  0.00    +0.000 A 
ATOM      8  C   UNL     1     109.069 128.690 136.102  0.00  0.00    +0.000 A 
ATOM      9  C   UNL     1     108.643 129.437 136.120  0.00  0.00    +0.000 A 
ATOM     10  C   UNL     1     108.663 128.003 135.892  0.00  0.00    +0.000 A 
ATOM     11  C   UNL     1     109.863 127.245 136.060  0.00  0.00    +0.000 A 
ATOM     12  C   UNL     1     109.061 127.280 135.871  0.00  0.00    +0.000 A 
ENDROOT
BRANCH  11  14
ATOM     13  O   UNL     1     111.451 124.354 135.976  0.00  0.00    +0.000 OA
ATOM     14  C   UNL     1     110.260 126.523 136.040  0.00  0.00    +0.000 A 
ATOM     15  C   UNL     1     110.469 126.146 136.743  0.00  0.00    +0.000 A 
ATOM     16  C   UNL     1     110.449 126.176 135.315  0.00  0.00    +0.000 A 
ATOM     17  C   UNL     1     110.866 125.423 136.723  0.00  0.00    +0.000 A 
ATOM     18  C   UNL     1     110.846 125.453 135.294  0.00  0.00    +0.000 A 
ATOM     19  C   UNL     1     111.054 125.077 135.997  0.00  0.00    +0.000 A 
ENDBRANCH  11  14
BRANCH   4  20
ATOM     20  O   UNL     1     110.303 130.806 136.744  0.00  0.00    +0.000 OA
BRANCH  20  28
ATOM     21  O   UNL     1     110.244 130.591 138.156  0.00  0.00    +0.000 OA
ATOM     22  O   UNL     1     110.043 133.030 138.519  0.00  0.00    +0.000 OA
ATOM     23  O   UNL     1     110.051 132.002 139.810  0.00  0.00    +0.000 OA
ATOM     24  C   UNL     1     110.110 132.217 138.398  0.00  0.00    +0.000 C 
ATOM     25  C   UNL     1     110.173 131.919 137.632  0.00  0.00    +0.000 C 
ATOM     26  C   UNL     1     110.114 131.703 139.044  0.00  0.00    +0.000 C 
ATOM     27  C   UNL     1     110.181 130.890 138.922  0.00  0.00    +0.000 C 
ATOM     28  C   UNL     1     110.240 131.105 137.511  0.00  0.00    +0.000 C 
BRANCH  27  30
ATOM     29  O   UNL     1     110.889 130.222 139.969  0.00  0.00    +0.000 OA
ATOM     30  C   UNL     1     110.185 130.375 139.567  0.00  0.00    +0.000 C 
BRANCH  30  31
ATOM     31  O   UNL     1     109.484 130.013 139.809  0.00  0.00    +0.000 OA
ATOM     32  C   UNL     1     109.512 129.324 140.262  0.00  0.00    +0.000 C 
ENDBRANCH  30  31
ENDBRANCH  27  30
BRANCH  25  33
ATOM     33  O   UNL     1     110.169 132.432 136.987  0.00  0.00    +0.000 OA
BRANCH  33  35
ATOM     34  O   UNL     1     111.583 132.630 136.913  0.00  0.00    +0.000 OA
ATOM     35  C   UNL     1     110.816 132.927 136.850  0.00  0.00    +0.000 C 
ATOM     36  C   UNL     1     110.695 133.718 136.649  0.00  0.00    +0.000 C 
ENDBRANCH  33  35
ENDBRANCH  25  33
ENDBRANCH  20  28
ENDBRANCH   4  20
TORSDOF 7
ENDMDL
MODEL 4
REMARK VINA RESULT:      -9.0      6.199      8.066
REMARK  Name = 44257832
REMARK  7 active torsions:
REMARK  status: ('A' for Active; 'I' for Inactive)
REMARK    1  A    between atoms: O_2  and  C_14
REMARK    2  A    between atoms: O_2  and  C_20
REMARK    3  A    between atoms: O_3  and  C_17
REMARK    4  A    between atoms: O_3  and  C_19
REMARK    5  A    between atoms: O_6  and  C_18
REMARK    6  A    between atoms: C_16  and  C_18
REMARK    7  A    between atoms: C_29  and  C_31
REMARK                            x       y       z     vdW  Elec       q    Type
REMARK                         _______ _______ _______ _____ _____    ______ ____
ROOT
ATOM      1  O   UNL     1     112.169 126.603 136.402  0.00  0.00    +0.000 OA
ATOM      2  O   UNL     1     109.603 126.030 135.203  0.00  0.00    +0.000 OA
ATOM      3  O   UNL     1     110.522 124.970 135.540  0.00  0.00    +0.000 OA
ATOM      4  C   UNL     1     110.535 127.988 135.767  0.00  0.00    +0.000 A 
ATOM      5  C   UNL     1     111.283 127.708 136.084  0.00  0.00    +0.000 A 
ATOM      6  C   UNL     1     109.963 127.421 135.468  0.00  0.00    +0.000 A 
ATOM      7  C   UNL     1     111.449 126.865 136.097  0.00  0.00    +0.000 A 
ATOM      8  C   UNL     1     110.901 126.321 135.810  0.00  0.00    +0.000 A 
ATOM      9  C   UNL     1     110.147 126.581 135.489  0.00  0.00    +0.000 A 
ATOM     10  C   UNL     1     111.071 125.514 135.827  0.00  0.00    +0.000 A 
ATOM     11  C   UNL     1     112.341 125.796 136.420  0.00  0.00    +0.000 A 
ATOM     12  C   UNL     1     111.791 125.251 136.133  0.00  0.00    +0.000 A 
ENDROOT
BRANCH  11  14
ATOM     13  O   UNL     1     115.221 124.745 137.641  0.00  0.00    +0.000 OA
ATOM     14  C   UNL     1     113.061 125.533 136.726  0.00  0.00    +0.000 A 
ATOM     15  C   UNL     1     113.183 125.520 137.541  0.00  0.00    +0.000 A 
ATOM     16  C   UNL     1     113.658 125.283 136.215  0.00  0.00    +0.000 A 
ATOM     17  C   UNL     1     113.903 125.258 137.847  0.00  0.00    +0.000 A 
ATOM     18  C   UNL     1     114.378 125.020 136.520  0.00  0.00    +0.000 A 
ATOM     19  C   UNL     1     114.500 125.007 137.335  0.00  0.00    +0.000 A 
ENDBRANCH  11  14
BRANCH   4  20
ATOM     20  O   UNL     1     110.367 128.795 135.751  0.00  0.00    +0.000 OA
BRANCH  20  28
ATOM     21  O   UNL     1     110.081 128.914 137.146  0.00  0.00    +0.000 OA
ATOM     22  O   UNL     1     108.364 130.625 136.648  0.00  0.00    +0.000 OA
ATOM     23  O   UNL     1     108.650 130.174 138.209  0.00  0.00    +0.000 OA
ATOM     24  C   UNL     1     108.936 130.055 136.814  0.00  0.00    +0.000 C 
ATOM     25  C   UNL     1     109.365 129.711 136.200  0.00  0.00    +0.000 C 
ATOM     26  C   UNL     1     109.079 129.829 137.595  0.00  0.00    +0.000 C 
ATOM     27  C   UNL     1     109.651 129.259 137.761  0.00  0.00    +0.000 C 
ATOM     28  C   UNL     1     109.937 129.140 136.366  0.00  0.00    +0.000 C 
BRANCH  27  30
ATOM     29  O   UNL     1     109.284 128.506 138.919  0.00  0.00    +0.000 OA
ATOM     30  C   UNL     1     109.794 129.033 138.541  0.00  0.00    +0.000 C 
BRANCH  30  31
ATOM     31  O   UNL     1     110.449 129.334 138.944  0.00  0.00    +0.000 OA
ATOM     32  C   UNL     1     110.688 128.992 139.655  0.00  0.00    +0.000 C 
ENDBRANCH  30  31
ENDBRANCH  27  30
BRANCH  25  33
ATOM     33  O   UNL     1     109.222 129.936 135.419  0.00  0.00    +0.000 OA
BRANCH  33  35
ATOM     34  O   UNL     1     110.182 130.995 135.368  0.00  0.00    +0.000 OA
ATOM     35  C   UNL     1     109.444 130.687 135.160  0.00  0.00    +0.000 C 
ATOM     36  C   UNL     1     108.930 131.132 134.693  0.00  0.00    +0.000 C 
ENDBRANCH  33  35
ENDBRANCH  25  33
ENDBRANCH  20  28
ENDBRANCH   4  20
TORSDOF 7
ENDMDL
MODEL 5
REMARK VINA RESULT:      -8.8      6.965      8.637
REMARK  Name = 44257832
REMARK  7 active torsions:
REMARK  status: ('A' for Active; 'I' for Inactive)
REMARK    1  A    between atoms: O_2  and  C_14
REMARK    2  A    between atoms: O_2  and  C_20
REMARK    3  A    between atoms: O_3  and  C_17
REMARK    4  A    between atoms: O_3  and  C_19
REMARK    5  A    between atoms: O_6  and  C_18
REMARK    6  A    between atoms: C_16  and  C_18
REMARK    7  A    between atoms: C_29  and  C_31
REMARK                            x       y       z     vdW  Elec       q    Type
REMARK                         _______ _______ _______ _____ _____    ______ ____
ROOT
ATOM      1  O   UNL     1     111.939 126.735 136.089  0.00  0.00    +0.000 OA
ATOM      2  O   UNL     1     110.218 128.525 134.612  0.00  0.00    +0.000 OA
ATOM      3  O   UNL     1     109.815 127.169 134.895  0.00  0.00    +0.000 OA
ATOM      4  C   UNL     1     112.252 128.864 135.488  0.00  0.00    +0.000 A 
ATOM      5  C   UNL     1     112.394 128.090 135.832  0.00  0.00    +0.000 A 
ATOM      6  C   UNL     1     111.514 129.015 135.074  0.00  0.00    +0.000 A 
ATOM      7  C   UNL     1     111.796 127.476 135.757  0.00  0.00    +0.000 A 
ATOM      8  C   UNL     1     111.089 127.620 135.359  0.00  0.00    +0.000 A 
ATOM      9  C   UNL     1     110.928 128.389 135.008  0.00  0.00    +0.000 A 
ATOM     10  C   UNL     1     110.523 127.024 135.293  0.00  0.00    +0.000 A 
ATOM     11  C   UNL     1     111.373 126.138 136.024  0.00  0.00    +0.000 A 
ATOM     12  C   UNL     1     110.665 126.282 135.626  0.00  0.00    +0.000 A 
ENDROOT
BRANCH  11  14
ATOM     13  O   UNL     1     111.941 123.171 137.352  0.00  0.00    +0.000 OA
ATOM     14  C   UNL     1     111.515 125.396 136.356  0.00  0.00    +0.000 A 
ATOM     15  C   UNL     1     111.391 125.274 137.163  0.00  0.00    +0.000 A 
ATOM     16  C   UNL     1     111.782 124.776 135.882  0.00  0.00    +0.000 A 
ATOM     17  C   UNL     1     111.533 124.533 137.495  0.00  0.00    +0.000 A 
ATOM     18  C   UNL     1     111.924 124.034 136.214  0.00  0.00    +0.000 A 
ATOM     19  C   UNL     1     111.799 123.912 137.020  0.00  0.00    +0.000 A 
ENDBRANCH  11  14
BRANCH   4  20
ATOM     20  O   UNL     1     112.819 129.458 135.556  0.00  0.00    +0.000 OA
BRANCH  20  28
ATOM     21  O   UNL     1     112.250 130.046 136.728  0.00  0.00    +0.000 OA
ATOM     22  O   UNL     1     114.509 130.705 137.494  0.00  0.00    +0.000 OA
ATOM     23  O   UNL     1     113.187 131.073 138.411  0.00  0.00    +0.000 OA
ATOM     24  C   UNL     1     113.756 130.486 137.239  0.00  0.00    +0.000 C 
ATOM     25  C   UNL     1     113.664 130.082 136.526  0.00  0.00    +0.000 C 
ATOM     26  C   UNL     1     113.095 130.670 137.697  0.00  0.00    +0.000 C 
ATOM     27  C   UNL     1     112.342 130.450 137.442  0.00  0.00    +0.000 C 
ATOM     28  C   UNL     1     112.911 129.862 136.270  0.00  0.00    +0.000 C 
BRANCH  27  30
ATOM     29  O   UNL     1     111.332 131.379 137.842  0.00  0.00    +0.000 OA
ATOM     30  C   UNL     1     111.681 130.633 137.900  0.00  0.00    +0.000 C 
BRANCH  30  31
ATOM     31  O   UNL     1     111.367 130.069 138.415  0.00  0.00    +0.000 OA
ATOM     32  C   UNL     1     110.590 130.142 138.681  0.00  0.00    +0.000 C 
ENDBRANCH  30  31
ENDBRANCH  27  30
BRANCH  25  33
ATOM     33  O   UNL     1     114.325 129.898 136.067  0.00  0.00    +0.000 OA
BRANCH  33  35
ATOM     34  O   UNL     1     114.347 131.100 135.293  0.00  0.00    +0.000 OA
ATOM     35  C   UNL     1     114.749 130.500 135.694  0.00  0.00    +0.000 C 
ATOM     36  C   UNL     1     115.573 130.504 135.723  0.00  0.00    +0.000 C 
ENDBRANCH  33  35
ENDBRANCH  25  33
ENDBRANCH  20  28
ENDBRANCH   4  20
TORSDOF 7
ENDMDL
MODEL 6
REMARK VINA RESULT:      -8.8      1.695      2.432
REMARK  Name = 44257832
REMARK  7 active torsions:
REMARK  status: ('A' for Active; 'I' for Inactive)
REMARK    1  A    between atoms: O_2  and  C_14
REMARK    2  A    between atoms: O_2  and  C_20
REMARK    3  A    between atoms: O_3  and  C_17
REMARK    4  A    between atoms: O_3  and  C_19
REMARK    5  A    between atoms: O_6  and  C_18
REMARK    6  A    between atoms: C_16  and  C_18
REMARK    7  A    between atoms: C_29  and  C_31
REMARK                            x       y       z     vdW  Elec       q    Type
REMARK                         _______ _______ _______ _____ _____    ______ ____
ROOT
ATOM      1  O   UNL     1     104.895 124.622 140.250  0.00  0.00    +0.000 OA
ATOM      2  O   UNL     1     107.392 123.442 141.098  0.00  0.00    +0.000 OA
ATOM      3  O   UNL     1     106.503 122.741 140.203  0.00  0.00    +0.000 OA
ATOM      4  C   UNL     1     106.479 125.423 141.607  0.00  0.00    +0.000 A 
ATOM      5  C   UNL     1     105.753 125.371 141.151  0.00  0.00    +0.000 A 
ATOM      6  C   UNL     1     107.038 124.770 141.591  0.00  0.00    +0.000 A 
ATOM      7  C   UNL     1     105.595 124.666 140.685  0.00  0.00    +0.000 A 
ATOM      8  C   UNL     1     106.130 124.039 140.669  0.00  0.00    +0.000 A 
ATOM      9  C   UNL     1     106.862 124.073 141.119  0.00  0.00    +0.000 A 
ATOM     10  C   UNL     1     105.967 123.368 140.218  0.00  0.00    +0.000 A 
ATOM     11  C   UNL     1     104.732 123.951 139.799  0.00  0.00    +0.000 A 
ATOM     12  C   UNL     1     105.268 123.324 139.783  0.00  0.00    +0.000 A 
ENDROOT
BRANCH  11  14
ATOM     13  O   UNL     1     101.935 123.773 138.056  0.00  0.00    +0.000 OA
ATOM     14  C   UNL     1     104.032 123.907 139.363  0.00  0.00    +0.000 A 
ATOM     15  C   UNL     1     103.968 124.308 138.645  0.00  0.00    +0.000 A 
ATOM     16  C   UNL     1     103.398 123.461 139.645  0.00  0.00    +0.000 A 
ATOM     17  C   UNL     1     103.268 124.263 138.209  0.00  0.00    +0.000 A 
ATOM     18  C   UNL     1     102.699 123.417 139.209  0.00  0.00    +0.000 A 
ATOM     19  C   UNL     1     102.634 123.817 138.492  0.00  0.00    +0.000 A 
ENDBRANCH  11  14
BRANCH   4  20
ATOM     20  O   UNL     1     106.640 126.095 142.057  0.00  0.00    +0.000 OA
BRANCH  20  28
ATOM     21  O   UNL     1     106.205 125.470 143.266  0.00  0.00    +0.000 OA
ATOM     22  O   UNL     1     105.791 127.695 144.268  0.00  0.00    +0.000 OA
ATOM     23  O   UNL     1     105.494 126.327 145.143  0.00  0.00    +0.000 OA
ATOM     24  C   UNL     1     105.929 126.953 143.934  0.00  0.00    +0.000 C 
ATOM     25  C   UNL     1     106.215 126.895 143.163  0.00  0.00    +0.000 C 
ATOM     26  C   UNL     1     105.780 126.270 144.372  0.00  0.00    +0.000 C 
ATOM     27  C   UNL     1     105.918 125.528 144.038  0.00  0.00    +0.000 C 
ATOM     28  C   UNL     1     106.353 126.154 142.829  0.00  0.00    +0.000 C 
BRANCH  27  30
ATOM     29  O   UNL     1     106.357 124.528 144.959  0.00  0.00    +0.000 OA
ATOM     30  C   UNL     1     105.769 124.844 144.475  0.00  0.00    +0.000 C 
BRANCH  30  31
ATOM     31  O   UNL     1     105.032 124.476 144.426  0.00  0.00    +0.000 OA
ATOM     32  C   UNL     1     104.941 123.700 144.691  0.00  0.00    +0.000 C 
ENDBRANCH  30  31
ENDBRANCH  27  30
BRANCH  25  33
ATOM     33  O   UNL     1     106.364 127.579 142.725  0.00  0.00    +0.000 OA
BRANCH  33  35
ATOM     34  O   UNL     1     107.698 127.700 143.223  0.00  0.00    +0.000 OA
ATOM     35  C   UNL     1     107.021 128.045 142.900  0.00  0.00    +0.000 C 
ATOM     36  C   UNL     1     107.003 128.856 142.753  0.00  0.00    +0.000 C 
ENDBRANCH  33  35
ENDBRANCH  25  33
ENDBRANCH  20  28
ENDBRANCH   4  20
TORSDOF 7
ENDMDL
MODEL 7
REMARK VINA RESULT:      -8.8      6.905      8.735
REMARK  Name = 44257832
REMARK  7 active torsions:
REMARK  status: ('A' for Active; 'I' for Inactive)
REMARK    1  A    between atoms: O_2  and  C_14
REMARK    2  A    between atoms: O_2  and  C_20
REMARK    3  A    between atoms: O_3  and  C_17
REMARK    4  A    between atoms: O_3  and  C_19
REMARK    5  A    between atoms: O_6  and  C_18
REMARK    6  A    between atoms: C_16  and  C_18
REMARK    7  A    between atoms: C_29  and  C_31
REMARK                            x       y       z     vdW  Elec       q    Type
REMARK                         _______ _______ _______ _____ _____    ______ ____
ROOT
ATOM      1  O   UNL     1     112.830 127.469 137.197  0.00  0.00    +0.000 OA
ATOM      2  O   UNL     1     113.659 129.883 135.845  0.00  0.00    +0.000 OA
ATOM      3  O   UNL     1     114.253 128.608 135.524  0.00  0.00    +0.000 OA
ATOM      4  C   UNL     1     112.127 129.574 137.449  0.00  0.00    +0.000 A 
ATOM      5  C   UNL     1     112.199 128.726 137.559  0.00  0.00    +0.000 A 
ATOM      6  C   UNL     1     112.621 129.971 136.868  0.00  0.00    +0.000 A 
ATOM      7  C   UNL     1     112.765 128.283 137.086  0.00  0.00    +0.000 A 
ATOM      8  C   UNL     1     113.239 128.663 136.529  0.00  0.00    +0.000 A 
ATOM      9  C   UNL     1     113.181 129.512 136.404  0.00  0.00    +0.000 A 
ATOM     10  C   UNL     1     113.779 128.228 136.081  0.00  0.00    +0.000 A 
ATOM     11  C   UNL     1     113.369 127.033 136.750  0.00  0.00    +0.000 A 
ATOM     12  C   UNL     1     113.844 127.413 136.192  0.00  0.00    +0.000 A 
ENDROOT
BRANCH  11  14
ATOM     13  O   UNL     1     113.629 123.773 137.190  0.00  0.00    +0.000 OA
ATOM     14  C   UNL     1     113.434 126.218 136.860  0.00  0.00    +0.000 A 
ATOM     15  C   UNL     1     114.018 125.914 137.357  0.00  0.00    +0.000 A 
ATOM     16  C   UNL     1     112.915 125.707 136.473  0.00  0.00    +0.000 A 
ATOM     17  C   UNL     1     114.083 125.099 137.467  0.00  0.00    +0.000 A 
ATOM     18  C   UNL     1     112.981 124.892 136.583  0.00  0.00    +0.000 A 
ATOM     19  C   UNL     1     113.564 124.588 137.079  0.00  0.00    +0.000 A 
ENDBRANCH  11  14
BRANCH   4  20
ATOM     20  O   UNL     1     111.586 130.007 137.898  0.00  0.00    +0.000 OA
BRANCH  20  28
ATOM     21  O   UNL     1     110.556 129.934 136.910  0.00  0.00    +0.000 OA
ATOM     22  O   UNL     1     108.841 130.097 138.688  0.00  0.00    +0.000 OA
ATOM     23  O   UNL     1     108.382 129.970 137.108  0.00  0.00    +0.000 OA
ATOM     24  C   UNL     1     109.412 130.043 138.095  0.00  0.00    +0.000 C 
ATOM     25  C   UNL     1     110.213 130.052 138.293  0.00  0.00    +0.000 C 
ATOM     26  C   UNL     1     109.182 129.979 137.305  0.00  0.00    +0.000 C 
ATOM     27  C   UNL     1     109.754 129.925 136.713  0.00  0.00    +0.000 C 
ATOM     28  C   UNL     1     110.784 129.997 137.700  0.00  0.00    +0.000 C 
BRANCH  27  30
ATOM     29  O   UNL     1     109.277 129.135 135.621  0.00  0.00    +0.000 OA
ATOM     30  C   UNL     1     109.525 129.862 135.923  0.00  0.00    +0.000 C 
BRANCH  30  31
ATOM     31  O   UNL     1     109.544 130.527 135.434  0.00  0.00    +0.000 OA
ATOM     32  C   UNL     1     109.555 130.435 134.614  0.00  0.00    +0.000 C 
ENDBRANCH  30  31
ENDBRANCH  27  30
BRANCH  25  33
ATOM     33  O   UNL     1     110.443 130.115 139.083  0.00  0.00    +0.000 OA
BRANCH  33  35
ATOM     34  O   UNL     1     110.591 131.535 139.160  0.00  0.00    +0.000 OA
ATOM     35  C   UNL     1     110.330 130.824 139.489  0.00  0.00    +0.000 C 
ATOM     36  C   UNL     1     109.957 130.824 140.224  0.00  0.00    +0.000 C 
ENDBRANCH  33  35
ENDBRANCH  25  33
ENDBRANCH  20  28
ENDBRANCH   4  20
TORSDOF 7
ENDMDL
MODEL 8
REMARK VINA RESULT:      -8.7      6.399      9.343
REMARK  Name = 44257832
REMARK  7 active torsions:
REMARK  status: ('A' for Active; 'I' for Inactive)
REMARK    1  A    between atoms: O_2  and  C_14
REMARK    2  A    between atoms: O_2  and  C_20
REMARK    3  A    between atoms: O_3  and  C_17
REMARK    4  A    between atoms: O_3  and  C_19
REMARK    5  A    between atoms: O_6  and  C_18
REMARK    6  A    between atoms: C_16  and  C_18
REMARK    7  A    between atoms: C_29  and  C_31
REMARK                            x       y       z     vdW  Elec       q    Type
REMARK                         _______ _______ _______ _____ _____    ______ ____
ROOT
ATOM      1  O   UNL     1     113.292 128.891 136.711  0.00  0.00    +0.000 OA
ATOM      2  O   UNL     1     111.564 129.252 138.998  0.00  0.00    +0.000 OA
ATOM      3  O   UNL     1     112.364 130.340 138.489  0.00  0.00    +0.000 OA
ATOM      4  C   UNL     1     111.941 127.439 137.739  0.00  0.00    +0.000 A 
ATOM      5  C   UNL     1     112.508 127.762 137.182  0.00  0.00    +0.000 A 
ATOM      6  C   UNL     1     111.618 127.941 138.357  0.00  0.00    +0.000 A 
ATOM      7  C   UNL     1     112.746 128.586 137.249  0.00  0.00    +0.000 A 
ATOM      8  C   UNL     1     112.437 129.069 137.842  0.00  0.00    +0.000 A 
ATOM      9  C   UNL     1     111.868 128.763 138.409  0.00  0.00    +0.000 A 
ATOM     10  C   UNL     1     112.673 129.857 137.896  0.00  0.00    +0.000 A 
ATOM     11  C   UNL     1     113.528 129.680 136.765  0.00  0.00    +0.000 A 
ATOM     12  C   UNL     1     113.219 130.163 137.358  0.00  0.00    +0.000 A 
ENDROOT
BRANCH  11  14
ATOM     13  O   UNL     1     115.709 130.903 134.612  0.00  0.00    +0.000 OA
ATOM     14  C   UNL     1     114.073 129.985 136.227  0.00  0.00    +0.000 A 
ATOM     15  C   UNL     1     114.747 130.376 136.499  0.00  0.00    +0.000 A 
ATOM     16  C   UNL     1     113.945 129.901 135.416  0.00  0.00    +0.000 A 
ATOM     17  C   UNL     1     115.293 130.682 135.961  0.00  0.00    +0.000 A 
ATOM     18  C   UNL     1     114.491 130.207 134.878  0.00  0.00    +0.000 A 
ATOM     19  C   UNL     1     115.164 130.597 135.150  0.00  0.00    +0.000 A 
ENDBRANCH  11  14
BRANCH   4  20
ATOM     20  O   UNL     1     111.707 126.650 137.682  0.00  0.00    +0.000 OA
BRANCH  20  28
ATOM     21  O   UNL     1     110.528 126.888 136.911  0.00  0.00    +0.000 OA
ATOM     22  O   UNL     1     110.911 124.778 135.674  0.00  0.00    +0.000 OA
ATOM     23  O   UNL     1     109.604 125.720 135.315  0.00  0.00    +0.000 OA
ATOM     24  C   UNL     1     110.783 125.481 136.086  0.00  0.00    +0.000 C 
ATOM     25  C   UNL     1     111.309 125.714 136.677  0.00  0.00    +0.000 C 
ATOM     26  C   UNL     1     110.129 125.952 135.906  0.00  0.00    +0.000 C 
ATOM     27  C   UNL     1     110.002 126.655 136.318  0.00  0.00    +0.000 C 
ATOM     28  C   UNL     1     111.181 126.417 137.090  0.00  0.00    +0.000 C 
BRANCH  27  30
ATOM     29  O   UNL     1     108.613 126.955 136.471  0.00  0.00    +0.000 OA
ATOM     30  C   UNL     1     109.349 127.126 136.139  0.00  0.00    +0.000 C 
BRANCH  30  31
ATOM     31  O   UNL     1     109.432 127.768 135.627  0.00  0.00    +0.000 OA
ATOM     32  C   UNL     1     108.919 128.412 135.687  0.00  0.00    +0.000 C 
ENDBRANCH  30  31
ENDBRANCH  27  30
BRANCH  25  33
ATOM     33  O   UNL     1     111.962 125.243 136.858  0.00  0.00    +0.000 OA
BRANCH  33  35
ATOM     34  O   UNL     1     111.383 124.451 137.897  0.00  0.00    +0.000 OA
ATOM     35  C   UNL     1     111.855 124.511 137.222  0.00  0.00    +0.000 C 
ATOM     36  C   UNL     1     112.219 123.839 136.913  0.00  0.00    +0.000 C 
ENDBRANCH  33  35
ENDBRANCH  25  33
ENDBRANCH  20  28
ENDBRANCH   4  20
TORSDOF 7
ENDMDL
MODEL 9
REMARK VINA RESULT:      -8.7      6.379      7.815
REMARK  Name = 44257832
REMARK  7 active torsions:
REMARK  status: ('A' for Active; 'I' for Inactive)
REMARK    1  A    between atoms: O_2  and  C_14
REMARK    2  A    between atoms: O_2  and  C_20
REMARK    3  A    between atoms: O_3  and  C_17
REMARK    4  A    between atoms: O_3  and  C_19
REMARK    5  A    between atoms: O_6  and  C_18
REMARK    6  A    between atoms: C_16  and  C_18
REMARK    7  A    between atoms: C_29  and  C_31
REMARK                            x       y       z     vdW  Elec       q    Type
REMARK                         _______ _______ _______ _____ _____    ______ ____
ROOT
ATOM      1  O   UNL     1     110.928 127.188 136.506  0.00  0.00    +0.000 OA
ATOM      2  O   UNL     1     112.313 129.647 135.890  0.00  0.00    +0.000 OA
ATOM      3  O   UNL     1     113.030 128.402 136.028  0.00  0.00    +0.000 OA
ATOM      4  C   UNL     1     110.134 129.257 136.228  0.00  0.00    +0.000 A 
ATOM      5  C   UNL     1     110.157 128.412 136.379  0.00  0.00    +0.000 A 
ATOM      6  C   UNL     1     110.863 129.680 136.062  0.00  0.00    +0.000 A 
ATOM      7  C   UNL     1     110.912 127.999 136.361  0.00  0.00    +0.000 A 
ATOM      8  C   UNL     1     111.612 128.404 136.202  0.00  0.00    +0.000 A 
ATOM      9  C   UNL     1     111.608 129.250 136.048  0.00  0.00    +0.000 A 
ATOM     10  C   UNL     1     112.330 127.997 136.187  0.00  0.00    +0.000 A 
ATOM     11  C   UNL     1     111.645 126.780 136.492  0.00  0.00    +0.000 A 
ATOM     12  C   UNL     1     112.347 127.185 136.333  0.00  0.00    +0.000 A 
ENDROOT
BRANCH  11  14
ATOM     13  O   UNL     1     111.713 123.533 137.075  0.00  0.00    +0.000 OA
ATOM     14  C   UNL     1     111.662 125.968 136.638  0.00  0.00    +0.000 A 
ATOM     15  C   UNL     1     111.487 125.437 136.031  0.00  0.00    +0.000 A 
ATOM     16  C   UNL     1     111.854 125.688 137.389  0.00  0.00    +0.000 A 
ATOM     17  C   UNL     1     111.504 124.625 136.177  0.00  0.00    +0.000 A 
ATOM     18  C   UNL     1     111.871 124.876 137.535  0.00  0.00    +0.000 A 
ATOM     19  C   UNL     1     111.696 124.345 136.929  0.00  0.00    +0.000 A 
ENDBRANCH  11  14
BRANCH   4  20
ATOM     20  O   UNL     1     109.415 129.661 136.243  0.00  0.00    +0.000 OA
BRANCH  20  28
ATOM     21  O   UNL     1     109.347 129.810 137.662  0.00  0.00    +0.000 OA
ATOM     22  O   UNL     1     108.290 132.030 137.380  0.00  0.00    +0.000 OA
ATOM     23  O   UNL     1     108.575 131.439 138.894  0.00  0.00    +0.000 OA
ATOM     24  C   UNL     1     108.643 131.290 137.474  0.00  0.00    +0.000 C 
ATOM     25  C   UNL     1     108.852 130.846 136.812  0.00  0.00    +0.000 C 
ATOM     26  C   UNL     1     108.785 130.995 138.231  0.00  0.00    +0.000 C 
ATOM     27  C   UNL     1     109.137 130.255 138.326  0.00  0.00    +0.000 C 
ATOM     28  C   UNL     1     109.204 130.106 136.906  0.00  0.00    +0.000 C 
BRANCH  27  30
ATOM     29  O   UNL     1     108.681 129.564 139.491  0.00  0.00    +0.000 OA
ATOM     30  C   UNL     1     109.279 129.958 139.082  0.00  0.00    +0.000 C 
BRANCH  30  31
ATOM     31  O   UNL     1     110.021 130.057 139.430  0.00  0.00    +0.000 OA
ATOM     32  C   UNL     1     110.253 129.567 140.052  0.00  0.00    +0.000 C 
ENDBRANCH  30  31
ENDBRANCH  27  30
BRANCH  25  33
ATOM     33  O   UNL     1     108.710 131.141 136.054  0.00  0.00    +0.000 OA
BRANCH  33  35
ATOM     34  O   UNL     1     107.396 130.609 135.868  0.00  0.00    +0.000 OA
ATOM     35  C   UNL     1     107.935 131.230 135.785  0.00  0.00    +0.000 C 
ATOM     36  C   UNL     1     107.698 131.937 135.434  0.00  0.00    +0.000 C 
ENDBRANCH  33  35
ENDBRANCH  25  33
ENDBRANCH  20  28
ENDBRANCH   4  20
TORSDOF 7
ENDMDL
MODEL 10
REMARK VINA RESULT:      -8.7      5.580      7.818
REMARK  Name = 44257832
REMARK  7 active torsions:
REMARK  status: ('A' for Active; 'I' for Inactive)
REMARK    1  A    between atoms: O_2  and  C_14
REMARK    2  A    between atoms: O_2  and  C_20
REMARK    3  A    between atoms: O_3  and  C_17
REMARK    4  A    between atoms: O_3  and  C_19
REMARK    5  A    between atoms: O_6  and  C_18
REMARK    6  A    between atoms: C_16  and  C_18
REMARK    7  A    between atoms: C_29  and  C_31
REMARK                            x       y       z     vdW  Elec       q    Type
REMARK                         _______ _______ _______ _____ _____    ______ ____
ROOT
ATOM      1  O   UNL     1     112.229 127.053 138.014  0.00  0.00    +0.000 OA
ATOM      2  O   UNL     1     110.045 127.302 139.889  0.00  0.00    +0.000 OA
ATOM      3  O   UNL     1     110.900 126.140 139.891  0.00  0.00    +0.000 OA
ATOM      4  C   UNL     1     110.737 128.695 138.277  0.00  0.00    +0.000 A 
ATOM      5  C   UNL     1     111.399 128.244 137.968  0.00  0.00    +0.000 A 
ATOM      6  C   UNL     1     110.275 128.378 138.929  0.00  0.00    +0.000 A 
ATOM      7  C   UNL     1     111.592 127.481 138.315  0.00  0.00    +0.000 A 
ATOM      8  C   UNL     1     111.149 127.177 138.940  0.00  0.00    +0.000 A 
ATOM      9  C   UNL     1     110.482 127.613 139.263  0.00  0.00    +0.000 A 
ATOM     10  C   UNL     1     111.343 126.444 139.265  0.00  0.00    +0.000 A 
ATOM     11  C   UNL     1     112.424 126.320 138.339  0.00  0.00    +0.000 A 
ATOM     12  C   UNL     1     111.981 126.015 138.965  0.00  0.00    +0.000 A 
ENDROOT
BRANCH  11  14
ATOM     13  O   UNL     1     114.974 124.605 137.136  0.00  0.00    +0.000 OA
ATOM     14  C   UNL     1     113.061 125.891 138.038  0.00  0.00    +0.000 A 
ATOM     15  C   UNL     1     112.949 125.375 137.404  0.00  0.00    +0.000 A 
ATOM     16  C   UNL     1     113.811 125.978 138.371  0.00  0.00    +0.000 A 
ATOM     17  C   UNL     1     113.586 124.946 137.103  0.00  0.00    +0.000 A 
ATOM     18  C   UNL     1     114.448 125.549 138.070  0.00  0.00    +0.000 A 
ATOM     19  C   UNL     1     114.336 125.034 137.437  0.00  0.00    +0.000 A 
ENDBRANCH  11  14
BRANCH   4  20
ATOM     20  O   UNL     1     110.545 129.427 137.950  0.00  0.00    +0.000 OA
BRANCH  20  28
ATOM     21  O   UNL     1     109.758 128.873 136.894  0.00  0.00    +0.000 OA
ATOM     22  O   UNL     1     108.356 130.912 136.867  0.00  0.00    +0.000 OA
ATOM     23  O   UNL     1     108.037 129.678 135.819  0.00  0.00    +0.000 OA
ATOM     24  C   UNL     1     108.824 130.232 136.876  0.00  0.00    +0.000 C 
ATOM     25  C   UNL     1     109.450 130.170 137.408  0.00  0.00    +0.000 C 
ATOM     26  C   UNL     1     108.664 129.615 136.352  0.00  0.00    +0.000 C 
ATOM     27  C   UNL     1     109.131 128.936 136.361  0.00  0.00    +0.000 C 
ATOM     28  C   UNL     1     109.917 129.490 137.417  0.00  0.00    +0.000 C 
BRANCH  27  30
ATOM     29  O   UNL     1     109.290 128.330 135.076  0.00  0.00    +0.000 OA
ATOM     30  C   UNL     1     108.972 128.318 135.837  0.00  0.00    +0.000 C 
BRANCH  30  31
ATOM     31  O   UNL     1     108.494 127.688 136.076  0.00  0.00    +0.000 OA
ATOM     32  C   UNL     1     108.586 126.946 135.727  0.00  0.00    +0.000 C 
ENDBRANCH  30  31
ENDBRANCH  27  30
BRANCH  25  33
ATOM     33  O   UNL     1     109.610 130.787 137.932  0.00  0.00    +0.000 OA
BRANCH  33  35
ATOM     34  O   UNL     1     110.516 131.512 137.097  0.00  0.00    +0.000 OA
ATOM     35  C   UNL     1     109.900 131.505 137.647  0.00  0.00    +0.000 C 
ATOM     36  C   UNL     1     109.575 132.216 137.910  0.00  0.00    +0.000 C 
ENDBRANCH  33  35
ENDBRANCH  25  33
ENDBRANCH  20  28
ENDBRANCH   4  20
TORSDOF 7
ENDMDL
