MODEL 1
REMARK VINA RESULT:     -10.9      0.000      0.000
REMARK  Name = 131832575
REMARK  6 active torsions:
REMARK  status: ('A' for Active; 'I' for Inactive)
REMARK    1  A    between atoms: O_2  and  C_27
REMARK    2  A    between atoms: O_2  and  C_30
REMARK    3  A    between atoms: C_19  and  C_24
REMARK    4  A    between atoms: C_23  and  C_29
REMARK    5  A    between atoms: C_31  and  C_36
REMARK    6  A    between atoms: C_38  and  C_40
REMARK                            x       y       z     vdW  Elec       q    Type
REMARK                         _______ _______ _______ _____ _____    ______ ____
ROOT
ATOM      1  O   UNL     1     113.558 125.984 139.363  0.00  0.00    +0.000 OA
ATOM      2  O   UNL     1     113.391 128.873 139.461  0.00  0.00    +0.000 OA
ATOM      3  O   UNL     1     114.042 126.673 140.535  0.00  0.00    +0.000 OA
ATOM      4  C   UNL     1     113.002 126.704 138.260  0.00  0.00    +0.000 A 
ATOM      5  C   UNL     1     112.789 127.418 137.908  0.00  0.00    +0.000 A 
ATOM      6  C   UNL     1     113.344 126.700 139.011  0.00  0.00    +0.000 A 
ATOM      7  C   UNL     1     113.474 127.410 139.409  0.00  0.00    +0.000 A 
ATOM      8  C   UNL     1     112.919 128.130 138.306  0.00  0.00    +0.000 A 
ATOM      9  C   UNL     1     113.261 128.126 139.057  0.00  0.00    +0.000 A 
ATOM     10  C   UNL     1     113.832 127.393 140.190  0.00  0.00    +0.000 A 
ATOM     11  C   UNL     1     113.748 128.874 140.244  0.00  0.00    +0.000 A 
ATOM     12  C   UNL     1     113.969 128.130 140.610  0.00  0.00    +0.000 A 
ENDROOT
BRANCH   4  17
ATOM     13  O   UNL     1     113.449 125.692 137.356  0.00  0.00    +0.000 OA
ATOM     14  O   UNL     1     111.588 125.883 138.480  0.00  0.00    +0.000 OA
ATOM     15  O   UNL     1     111.328 124.460 137.685  0.00  0.00    +0.000 OA
ATOM     16  O   UNL     1     112.482 123.859 136.671  0.00  0.00    +0.000 OA
ATOM     17  C   UNL     1     112.872 125.993 137.862  0.00  0.00    +0.000 C 
ATOM     18  C   UNL     1     112.165 125.582 137.972  0.00  0.00    +0.000 C 
ATOM     19  C   UNL     1     112.035 124.871 137.575  0.00  0.00    +0.000 C 
ATOM     20  C   UNL     1     112.612 124.570 137.068  0.00  0.00    +0.000 C 
ATOM     21  C   UNL     1     113.319 124.981 136.958  0.00  0.00    +0.000 C 
BRANCH  21  23
ATOM     22  O   UNL     1     114.583 125.112 136.305  0.00  0.00    +0.000 OA
ATOM     23  C   UNL     1     113.896 124.680 136.451  0.00  0.00    +0.000 C 
ENDBRANCH  21  23
ENDBRANCH   4  17
BRANCH  11  27
ATOM     24  O   UNL     1     112.617 129.445 141.301  0.00  0.00    +0.000 OA
ATOM     25  O   UNL     1     115.390 131.154 140.769  0.00  0.00    +0.000 OA
ATOM     26  O   UNL     1     114.258 131.725 141.826  0.00  0.00    +0.000 OA
ATOM     27  C   UNL     1     113.876 129.587 140.639  0.00  0.00    +0.000 A 
ATOM     28  C   UNL     1     113.310 129.872 141.167  0.00  0.00    +0.000 A 
ATOM     29  C   UNL     1     114.569 130.014 140.506  0.00  0.00    +0.000 A 
ATOM     30  C   UNL     1     114.697 130.727 140.902  0.00  0.00    +0.000 A 
ATOM     31  C   UNL     1     113.438 130.585 141.563  0.00  0.00    +0.000 A 
ATOM     32  C   UNL     1     114.131 131.012 141.430  0.00  0.00    +0.000 A 
ENDBRANCH  11  27
BRANCH   5  33
ATOM     33  O   UNL     1     112.447 127.423 137.158  0.00  0.00    +0.000 OA
BRANCH  33  40
ATOM     34  O   UNL     1     113.378 128.232 136.438  0.00  0.00    +0.000 OA
ATOM     35  O   UNL     1     111.198 128.290 136.517  0.00  0.00    +0.000 OA
ATOM     36  O   UNL     1     111.505 129.533 135.477  0.00  0.00    +0.000 OA
ATOM     37  O   UNL     1     113.061 129.909 135.077  0.00  0.00    +0.000 OA
ATOM     38  C   UNL     1     111.976 128.478 136.317  0.00  0.00    +0.000 C 
ATOM     39  C   UNL     1     112.130 129.100 135.797  0.00  0.00    +0.000 C 
ATOM     40  C   UNL     1     112.600 128.045 136.637  0.00  0.00    +0.000 C 
ATOM     41  C   UNL     1     112.908 129.288 135.597  0.00  0.00    +0.000 C 
ATOM     42  C   UNL     1     113.532 128.854 135.917  0.00  0.00    +0.000 C 
BRANCH  42  45
ATOM     43  O   UNL     1     114.679 129.694 136.065  0.00  0.00    +0.000 OA
ATOM     44  O   UNL     1     114.720 128.578 135.172  0.00  0.00    +0.000 OA
ATOM     45  C   UNL     1     114.310 129.042 135.718  0.00  0.00    +0.000 C 
ENDBRANCH  42  45
ENDBRANCH  33  40
ENDBRANCH   5  33
TORSDOF 6
ENDMDL
MODEL 2
REMARK VINA RESULT:     -10.6      2.453      5.999
REMARK  Name = 131832575
REMARK  6 active torsions:
REMARK  status: ('A' for Active; 'I' for Inactive)
REMARK    1  A    between atoms: O_2  and  C_27
REMARK    2  A    between atoms: O_2  and  C_30
REMARK    3  A    between atoms: C_19  and  C_24
REMARK    4  A    between atoms: C_23  and  C_29
REMARK    5  A    between atoms: C_31  and  C_36
REMARK    6  A    between atoms: C_38  and  C_40
REMARK                            x       y       z     vdW  Elec       q    Type
REMARK                         _______ _______ _______ _____ _____    ______ ____
ROOT
ATOM      1  O   UNL     1     108.536 128.618 136.234  0.00  0.00    +0.000 OA
ATOM      2  O   UNL     1     110.975 127.105 136.613  0.00  0.00    +0.000 OA
ATOM      3  O   UNL     1     108.459 127.181 136.332  0.00  0.00    +0.000 OA
ATOM      4  C   UNL     1     109.791 129.298 136.321  0.00  0.00    +0.000 A 
ATOM      5  C   UNL     1     110.610 129.276 136.412  0.00  0.00    +0.000 A 
ATOM      6  C   UNL     1     109.357 128.596 136.325  0.00  0.00    +0.000 A 
ATOM      7  C   UNL     1     109.741 127.873 136.421  0.00  0.00    +0.000 A 
ATOM      8  C   UNL     1     110.996 128.553 136.507  0.00  0.00    +0.000 A 
ATOM      9  C   UNL     1     110.562 127.851 136.512  0.00  0.00    +0.000 A 
ATOM     10  C   UNL     1     109.278 127.149 136.424  0.00  0.00    +0.000 A 
ATOM     11  C   UNL     1     110.528 126.370 136.618  0.00  0.00    +0.000 A 
ATOM     12  C   UNL     1     109.674 126.393 136.523  0.00  0.00    +0.000 A 
ENDROOT
BRANCH   4  17
ATOM     13  O   UNL     1     109.165 130.452 136.886  0.00  0.00    +0.000 OA
ATOM     14  O   UNL     1     109.498 129.881 134.805  0.00  0.00    +0.000 OA
ATOM     15  O   UNL     1     108.726 131.326 134.612  0.00  0.00    +0.000 OA
ATOM     16  O   UNL     1     108.247 132.189 135.935  0.00  0.00    +0.000 OA
ATOM     17  C   UNL     1     109.405 130.021 136.225  0.00  0.00    +0.000 C 
ATOM     18  C   UNL     1     109.258 130.312 135.467  0.00  0.00    +0.000 C 
ATOM     19  C   UNL     1     108.872 131.035 135.370  0.00  0.00    +0.000 C 
ATOM     20  C   UNL     1     108.633 131.466 136.032  0.00  0.00    +0.000 C 
ATOM     21  C   UNL     1     108.779 131.175 136.790  0.00  0.00    +0.000 C 
BRANCH  21  23
ATOM     22  O   UNL     1     108.471 131.234 138.183  0.00  0.00    +0.000 OA
ATOM     23  C   UNL     1     108.540 131.606 137.450  0.00  0.00    +0.000 C 
ENDBRANCH  21  23
ENDBRANCH   4  17
BRANCH  11  27
ATOM     24  O   UNL     1     111.015 125.515 135.294  0.00  0.00    +0.000 OA
ATOM     25  O   UNL     1     111.595 124.340 138.323  0.00  0.00    +0.000 OA
ATOM     26  O   UNL     1     112.083 123.485 136.999  0.00  0.00    +0.000 OA
ATOM     27  C   UNL     1     110.916 125.649 136.714  0.00  0.00    +0.000 A 
ATOM     28  C   UNL     1     111.160 125.222 136.052  0.00  0.00    +0.000 A 
ATOM     29  C   UNL     1     111.061 125.356 137.471  0.00  0.00    +0.000 A 
ATOM     30  C   UNL     1     111.450 124.634 137.566  0.00  0.00    +0.000 A 
ATOM     31  C   UNL     1     111.549 124.500 136.147  0.00  0.00    +0.000 A 
ATOM     32  C   UNL     1     111.694 124.206 136.904  0.00  0.00    +0.000 A 
ENDBRANCH  11  27
BRANCH   5  33
ATOM     33  O   UNL     1     111.044 129.977 136.407  0.00  0.00    +0.000 OA
BRANCH  33  40
ATOM     34  O   UNL     1     111.646 129.985 137.703  0.00  0.00    +0.000 OA
ATOM     35  O   UNL     1     112.518 130.258 135.721  0.00  0.00    +0.000 OA
ATOM     36  O   UNL     1     113.857 130.406 136.674  0.00  0.00    +0.000 OA
ATOM     37  O   UNL     1     113.722 130.273 138.313  0.00  0.00    +0.000 OA
ATOM     38  C   UNL     1     112.451 130.192 136.541  0.00  0.00    +0.000 C 
ATOM     39  C   UNL     1     113.120 130.266 137.017  0.00  0.00    +0.000 C 
ATOM     40  C   UNL     1     111.714 130.051 136.884  0.00  0.00    +0.000 C 
ATOM     41  C   UNL     1     113.053 130.199 137.837  0.00  0.00    +0.000 C 
ATOM     42  C   UNL     1     112.316 130.059 138.180  0.00  0.00    +0.000 C 
BRANCH  42  45
ATOM     43  O   UNL     1     112.005 130.642 139.447  0.00  0.00    +0.000 OA
ATOM     44  O   UNL     1     112.422 129.277 139.371  0.00  0.00    +0.000 OA
ATOM     45  C   UNL     1     112.248 129.992 138.999  0.00  0.00    +0.000 C 
ENDBRANCH  42  45
ENDBRANCH  33  40
ENDBRANCH   5  33
TORSDOF 6
ENDMDL
MODEL 3
REMARK VINA RESULT:     -10.6      0.893      2.024
REMARK  Name = 131832575
REMARK  6 active torsions:
REMARK  status: ('A' for Active; 'I' for Inactive)
REMARK    1  A    between atoms: O_2  and  C_27
REMARK    2  A    between atoms: O_2  and  C_30
REMARK    3  A    between atoms: C_19  and  C_24
REMARK    4  A    between atoms: C_23  and  C_29
REMARK    5  A    between atoms: C_31  and  C_36
REMARK    6  A    between atoms: C_38  and  C_40
REMARK                            x       y       z     vdW  Elec       q    Type
REMARK                         _______ _______ _______ _____ _____    ______ ____
ROOT
ATOM      1  O   UNL     1     113.757 126.092 139.265  0.00  0.00    +0.000 OA
ATOM      2  O   UNL     1     113.343 128.947 139.511  0.00  0.00    +0.000 OA
ATOM      3  O   UNL     1     114.222 126.766 140.452  0.00  0.00    +0.000 OA
ATOM      4  C   UNL     1     113.100 126.810 138.218  0.00  0.00    +0.000 A 
ATOM      5  C   UNL     1     112.813 127.518 137.909  0.00  0.00    +0.000 A 
ATOM      6  C   UNL     1     113.469 126.801 138.955  0.00  0.00    +0.000 A 
ATOM      7  C   UNL     1     113.551 127.501 139.384  0.00  0.00    +0.000 A 
ATOM      8  C   UNL     1     112.894 128.219 138.337  0.00  0.00    +0.000 A 
ATOM      9  C   UNL     1     113.264 128.211 139.074  0.00  0.00    +0.000 A 
ATOM     10  C   UNL     1     113.938 127.480 140.151  0.00  0.00    +0.000 A 
ATOM     11  C   UNL     1     113.727 128.944 140.280  0.00  0.00    +0.000 A 
ATOM     12  C   UNL     1     114.026 128.206 140.602  0.00  0.00    +0.000 A 
ENDROOT
BRANCH   4  17
ATOM     13  O   UNL     1     112.337 125.652 137.871  0.00  0.00    +0.000 OA
ATOM     14  O   UNL     1     114.302 126.323 137.197  0.00  0.00    +0.000 OA
ATOM     15  O   UNL     1     114.140 124.922 136.341  0.00  0.00    +0.000 OA
ATOM     16  O   UNL     1     112.776 124.008 136.505  0.00  0.00    +0.000 OA
ATOM     17  C   UNL     1     113.018 126.109 137.790  0.00  0.00    +0.000 C 
ATOM     18  C   UNL     1     113.619 125.866 137.280  0.00  0.00    +0.000 C 
ATOM     19  C   UNL     1     113.539 125.165 136.851  0.00  0.00    +0.000 C 
ATOM     20  C   UNL     1     112.856 124.708 136.933  0.00  0.00    +0.000 C 
ATOM     21  C   UNL     1     112.255 124.952 137.443  0.00  0.00    +0.000 C 
BRANCH  21  23
ATOM     22  O   UNL     1     111.110 124.564 138.203  0.00  0.00    +0.000 OA
ATOM     23  C   UNL     1     111.574 124.495 137.525  0.00  0.00    +0.000 C 
ENDBRANCH  21  23
ENDBRANCH   4  17
BRANCH  11  27
ATOM     24  O   UNL     1     112.604 129.349 141.419  0.00  0.00    +0.000 OA
ATOM     25  O   UNL     1     115.168 131.346 140.845  0.00  0.00    +0.000 OA
ATOM     26  O   UNL     1     114.045 131.752 141.984  0.00  0.00    +0.000 OA
ATOM     27  C   UNL     1     113.807 129.646 140.706  0.00  0.00    +0.000 A 
ATOM     28  C   UNL     1     113.246 129.848 141.275  0.00  0.00    +0.000 A 
ATOM     29  C   UNL     1     114.448 130.145 140.562  0.00  0.00    +0.000 A 
ATOM     30  C   UNL     1     114.527 130.847 140.988  0.00  0.00    +0.000 A 
ATOM     31  C   UNL     1     113.325 130.550 141.701  0.00  0.00    +0.000 A 
ATOM     32  C   UNL     1     113.966 131.050 141.558  0.00  0.00    +0.000 A 
ENDBRANCH  11  27
BRANCH   5  33
ATOM     33  O   UNL     1     112.443 127.527 137.171  0.00  0.00    +0.000 OA
BRANCH  33  40
ATOM     34  O   UNL     1     111.161 128.066 137.500  0.00  0.00    +0.000 OA
ATOM     35  O   UNL     1     112.568 128.589 135.914  0.00  0.00    +0.000 OA
ATOM     36  O   UNL     1     111.348 129.659 135.615  0.00  0.00    +0.000 OA
ATOM     37  O   UNL     1     110.004 129.667 136.572  0.00  0.00    +0.000 OA
ATOM     38  C   UNL     1     111.895 128.593 136.393  0.00  0.00    +0.000 C 
ATOM     39  C   UNL     1     111.286 129.128 136.243  0.00  0.00    +0.000 C 
ATOM     40  C   UNL     1     111.833 128.062 137.021  0.00  0.00    +0.000 C 
ATOM     41  C   UNL     1     110.613 129.132 136.721  0.00  0.00    +0.000 C 
ATOM     42  C   UNL     1     110.551 128.601 137.350  0.00  0.00    +0.000 C 
BRANCH  42  45
ATOM     43  O   UNL     1     109.282 128.048 137.705  0.00  0.00    +0.000 OA
ATOM     44  O   UNL     1     109.804 129.164 138.430  0.00  0.00    +0.000 OA
ATOM     45  C   UNL     1     109.879 128.605 137.828  0.00  0.00    +0.000 C 
ENDBRANCH  42  45
ENDBRANCH  33  40
ENDBRANCH   5  33
TORSDOF 6
ENDMDL
MODEL 4
REMARK VINA RESULT:     -10.5      1.565      5.236
REMARK  Name = 131832575
REMARK  6 active torsions:
REMARK  status: ('A' for Active; 'I' for Inactive)
REMARK    1  A    between atoms: O_2  and  C_27
REMARK    2  A    between atoms: O_2  and  C_30
REMARK    3  A    between atoms: C_19  and  C_24
REMARK    4  A    between atoms: C_23  and  C_29
REMARK    5  A    between atoms: C_31  and  C_36
REMARK    6  A    between atoms: C_38  and  C_40
REMARK                            x       y       z     vdW  Elec       q    Type
REMARK                         _______ _______ _______ _____ _____    ______ ____
ROOT
ATOM      1  O   UNL     1     113.900 128.287 141.104  0.00  0.00    +0.000 OA
ATOM      2  O   UNL     1     113.253 127.329 138.450  0.00  0.00    +0.000 OA
ATOM      3  O   UNL     1     114.153 126.905 140.779  0.00  0.00    +0.000 OA
ATOM      4  C   UNL     1     113.338 129.182 140.140  0.00  0.00    +0.000 A 
ATOM      5  C   UNL     1     113.044 129.322 139.383  0.00  0.00    +0.000 A 
ATOM      6  C   UNL     1     113.605 128.429 140.346  0.00  0.00    +0.000 A 
ATOM      7  C   UNL     1     113.579 127.816 139.793  0.00  0.00    +0.000 A 
ATOM      8  C   UNL     1     113.018 128.711 138.830  0.00  0.00    +0.000 A 
ATOM      9  C   UNL     1     113.285 127.958 139.035  0.00  0.00    +0.000 A 
ATOM     10  C   UNL     1     113.861 127.037 140.019  0.00  0.00    +0.000 A 
ATOM     11  C   UNL     1     113.530 126.542 138.658  0.00  0.00    +0.000 A 
ATOM     12  C   UNL     1     113.836 126.396 139.448  0.00  0.00    +0.000 A 
ENDROOT
BRANCH   4  17
ATOM     13  O   UNL     1     112.719 129.931 141.188  0.00  0.00    +0.000 OA
ATOM     14  O   UNL     1     114.684 130.129 140.257  0.00  0.00    +0.000 OA
ATOM     15  O   UNL     1     114.738 131.352 141.363  0.00  0.00    +0.000 OA
ATOM     16  O   UNL     1     113.447 131.628 142.352  0.00  0.00    +0.000 OA
ATOM     17  C   UNL     1     113.364 129.793 140.694  0.00  0.00    +0.000 C 
ATOM     18  C   UNL     1     114.037 130.267 140.752  0.00  0.00    +0.000 C 
ATOM     19  C   UNL     1     114.065 130.879 141.305  0.00  0.00    +0.000 C 
ATOM     20  C   UNL     1     113.419 131.017 141.800  0.00  0.00    +0.000 C 
ATOM     21  C   UNL     1     112.746 130.543 141.741  0.00  0.00    +0.000 C 
BRANCH  21  23
ATOM     22  O   UNL     1     111.408 130.244 142.141  0.00  0.00    +0.000 OA
ATOM     23  C   UNL     1     112.101 130.681 142.236  0.00  0.00    +0.000 C 
ENDBRANCH  21  23
ENDBRANCH   4  17
BRANCH  11  27
ATOM     24  O   UNL     1     112.127 125.706 138.422  0.00  0.00    +0.000 OA
ATOM     25  O   UNL     1     114.820 124.939 136.674  0.00  0.00    +0.000 OA
ATOM     26  O   UNL     1     113.416 124.104 136.438  0.00  0.00    +0.000 OA
ATOM     27  C   UNL     1     113.502 125.933 138.103  0.00  0.00    +0.000 A 
ATOM     28  C   UNL     1     112.801 125.515 137.985  0.00  0.00    +0.000 A 
ATOM     29  C   UNL     1     114.175 125.741 137.667  0.00  0.00    +0.000 A 
ATOM     30  C   UNL     1     114.147 125.131 137.111  0.00  0.00    +0.000 A 
ATOM     31  C   UNL     1     112.772 124.905 137.430  0.00  0.00    +0.000 A 
ATOM     32  C   UNL     1     113.445 124.713 136.993  0.00  0.00    +0.000 A 
ENDBRANCH  11  27
BRANCH   5  33
ATOM     33  O   UNL     1     112.777 130.075 139.178  0.00  0.00    +0.000 OA
BRANCH  33  40
ATOM     34  O   UNL     1     111.428 129.791 138.802  0.00  0.00    +0.000 OA
ATOM     35  O   UNL     1     112.965 130.984 137.814  0.00  0.00    +0.000 OA
ATOM     36  O   UNL     1     111.710 131.154 136.756  0.00  0.00    +0.000 OA
ATOM     37  O   UNL     1     110.267 130.415 137.062  0.00  0.00    +0.000 OA
ATOM     38  C   UNL     1     112.243 130.615 137.966  0.00  0.00    +0.000 C 
ATOM     39  C   UNL     1     111.616 130.700 137.438  0.00  0.00    +0.000 C 
ATOM     40  C   UNL     1     112.149 130.160 138.648  0.00  0.00    +0.000 C 
ATOM     41  C   UNL     1     110.894 130.330 137.590  0.00  0.00    +0.000 C 
ATOM     42  C   UNL     1     110.800 129.876 138.272  0.00  0.00    +0.000 C 
BRANCH  42  45
ATOM     43  O   UNL     1     109.541 129.852 138.949  0.00  0.00    +0.000 OA
ATOM     44  O   UNL     1     109.894 128.791 138.058  0.00  0.00    +0.000 OA
ATOM     45  C   UNL     1     110.079 129.506 138.426  0.00  0.00    +0.000 C 
ENDBRANCH  42  45
ENDBRANCH  33  40
ENDBRANCH   5  33
TORSDOF 6
ENDMDL
MODEL 5
REMARK VINA RESULT:     -10.5      1.681      3.944
REMARK  Name = 131832575
REMARK  6 active torsions:
REMARK  status: ('A' for Active; 'I' for Inactive)
REMARK    1  A    between atoms: O_2  and  C_27
REMARK    2  A    between atoms: O_2  and  C_30
REMARK    3  A    between atoms: C_19  and  C_24
REMARK    4  A    between atoms: C_23  and  C_29
REMARK    5  A    between atoms: C_31  and  C_36
REMARK    6  A    between atoms: C_38  and  C_40
REMARK                            x       y       z     vdW  Elec       q    Type
REMARK                         _______ _______ _______ _____ _____    ______ ____
ROOT
ATOM      1  O   UNL     1     112.665 126.880 135.973  0.00  0.00    +0.000 OA
ATOM      2  O   UNL     1     111.761 129.006 137.717  0.00  0.00    +0.000 OA
ATOM      3  O   UNL     1     112.454 128.195 135.420  0.00  0.00    +0.000 OA
ATOM      4  C   UNL     1     112.435 126.616 137.359  0.00  0.00    +0.000 A 
ATOM      5  C   UNL     1     112.210 126.877 138.108  0.00  0.00    +0.000 A 
ATOM      6  C   UNL     1     112.440 127.141 136.723  0.00  0.00    +0.000 A 
ATOM      7  C   UNL     1     112.219 127.928 136.836  0.00  0.00    +0.000 A 
ATOM      8  C   UNL     1     111.989 127.664 138.222  0.00  0.00    +0.000 A 
ATOM      9  C   UNL     1     111.993 128.189 137.586  0.00  0.00    +0.000 A 
ATOM     10  C   UNL     1     112.227 128.465 136.165  0.00  0.00    +0.000 A 
ATOM     11  C   UNL     1     111.763 129.558 137.057  0.00  0.00    +0.000 A 
ATOM     12  C   UNL     1     111.998 129.286 136.277  0.00  0.00    +0.000 A 
ENDROOT
BRANCH   4  17
ATOM     13  O   UNL     1     113.444 125.604 137.340  0.00  0.00    +0.000 OA
ATOM     14  O   UNL     1     111.300 125.493 136.942  0.00  0.00    +0.000 OA
ATOM     15  O   UNL     1     111.742 123.919 136.714  0.00  0.00    +0.000 OA
ATOM     16  O   UNL     1     113.318 123.469 136.903  0.00  0.00    +0.000 OA
ATOM     17  C   UNL     1     112.657 125.829 137.245  0.00  0.00    +0.000 C 
ATOM     18  C   UNL     1     112.089 125.268 137.037  0.00  0.00    +0.000 C 
ATOM     19  C   UNL     1     112.309 124.481 136.922  0.00  0.00    +0.000 C 
ATOM     20  C   UNL     1     113.098 124.255 137.017  0.00  0.00    +0.000 C 
ATOM     21  C   UNL     1     113.665 124.817 137.226  0.00  0.00    +0.000 C 
BRANCH  21  23
ATOM     22  O   UNL     1     114.977 125.084 137.722  0.00  0.00    +0.000 OA
ATOM     23  C   UNL     1     114.452 124.591 137.320  0.00  0.00    +0.000 C 
ENDBRANCH  21  23
ENDBRANCH   4  17
BRANCH  11  27
ATOM     24  O   UNL     1     112.912 130.699 137.376  0.00  0.00    +0.000 OA
ATOM     25  O   UNL     1     109.731 131.562 137.206  0.00  0.00    +0.000 OA
ATOM     26  O   UNL     1     110.879 132.703 137.525  0.00  0.00    +0.000 OA
ATOM     27  C   UNL     1     111.542 130.344 137.174  0.00  0.00    +0.000 A 
ATOM     28  C   UNL     1     112.116 130.914 137.333  0.00  0.00    +0.000 A 
ATOM     29  C   UNL     1     110.747 130.560 137.131  0.00  0.00    +0.000 A 
ATOM     30  C   UNL     1     110.526 131.346 137.249  0.00  0.00    +0.000 A 
ATOM     31  C   UNL     1     111.895 131.701 137.450  0.00  0.00    +0.000 A 
ATOM     32  C   UNL     1     111.100 131.916 137.408  0.00  0.00    +0.000 A 
ENDBRANCH  11  27
BRANCH   5  33
ATOM     33  O   UNL     1     112.206 126.352 138.744  0.00  0.00    +0.000 OA
BRANCH  33  40
ATOM     34  O   UNL     1     113.099 126.984 139.662  0.00  0.00    +0.000 OA
ATOM     35  O   UNL     1     111.093 126.173 139.949  0.00  0.00    +0.000 OA
ATOM     36  O   UNL     1     111.431 126.716 141.470  0.00  0.00    +0.000 OA
ATOM     37  O   UNL     1     112.881 127.438 141.786  0.00  0.00    +0.000 OA
ATOM     38  C   UNL     1     111.818 126.534 140.108  0.00  0.00    +0.000 C 
ATOM     39  C   UNL     1     111.987 126.806 140.868  0.00  0.00    +0.000 C 
ATOM     40  C   UNL     1     112.374 126.623 139.505  0.00  0.00    +0.000 C 
ATOM     41  C   UNL     1     112.712 127.167 141.026  0.00  0.00    +0.000 C 
ATOM     42  C   UNL     1     113.268 127.256 140.423  0.00  0.00    +0.000 C 
BRANCH  42  45
ATOM     43  O   UNL     1     114.659 127.153 140.736  0.00  0.00    +0.000 OA
ATOM     44  O   UNL     1     114.053 128.439 140.583  0.00  0.00    +0.000 OA
ATOM     45  C   UNL     1     113.993 127.617 140.580  0.00  0.00    +0.000 C 
ENDBRANCH  42  45
ENDBRANCH  33  40
ENDBRANCH   5  33
TORSDOF 6
ENDMDL
MODEL 6
REMARK VINA RESULT:     -10.2      2.971      5.599
REMARK  Name = 131832575
REMARK  6 active torsions:
REMARK  status: ('A' for Active; 'I' for Inactive)
REMARK    1  A    between atoms: O_2  and  C_27
REMARK    2  A    between atoms: O_2  and  C_30
REMARK    3  A    between atoms: C_19  and  C_24
REMARK    4  A    between atoms: C_23  and  C_29
REMARK    5  A    between atoms: C_31  and  C_36
REMARK    6  A    between atoms: C_38  and  C_40
REMARK                            x       y       z     vdW  Elec       q    Type
REMARK                         _______ _______ _______ _____ _____    ______ ____
ROOT
ATOM      1  O   UNL     1     111.100 131.658 139.480  0.00  0.00    +0.000 OA
ATOM      2  O   UNL     1     109.747 130.830 137.058  0.00  0.00    +0.000 OA
ATOM      3  O   UNL     1     110.140 132.549 138.875  0.00  0.00    +0.000 OA
ATOM      4  C   UNL     1     111.389 130.382 138.902  0.00  0.00    +0.000 A 
ATOM      5  C   UNL     1     111.263 129.821 138.312  0.00  0.00    +0.000 A 
ATOM      6  C   UNL     1     110.974 131.095 138.888  0.00  0.00    +0.000 A 
ATOM      7  C   UNL     1     110.434 131.247 138.284  0.00  0.00    +0.000 A 
ATOM      8  C   UNL     1     110.722 129.971 137.707  0.00  0.00    +0.000 A 
ATOM      9  C   UNL     1     110.308 130.684 137.693  0.00  0.00    +0.000 A 
ATOM     10  C   UNL     1     110.008 131.993 138.281  0.00  0.00    +0.000 A 
ATOM     11  C   UNL     1     109.312 131.571 137.038  0.00  0.00    +0.000 A 
ATOM     12  C   UNL     1     109.444 132.156 137.653  0.00  0.00    +0.000 A 
ENDROOT
BRANCH   4  17
ATOM     13  O   UNL     1     112.726 130.416 139.405  0.00  0.00    +0.000 OA
ATOM     14  O   UNL     1     110.874 129.712 140.319  0.00  0.00    +0.000 OA
ATOM     15  O   UNL     1     111.953 129.411 141.530  0.00  0.00    +0.000 OA
ATOM     16  O   UNL     1     113.548 129.779 141.324  0.00  0.00    +0.000 OA
ATOM     17  C   UNL     1     111.929 130.232 139.508  0.00  0.00    +0.000 C 
ATOM     18  C   UNL     1     111.672 129.897 140.216  0.00  0.00    +0.000 C 
ATOM     19  C   UNL     1     112.211 129.746 140.822  0.00  0.00    +0.000 C 
ATOM     20  C   UNL     1     113.009 129.930 140.718  0.00  0.00    +0.000 C 
ATOM     21  C   UNL     1     113.267 130.266 140.010  0.00  0.00    +0.000 C 
BRANCH  21  23
ATOM     22  O   UNL     1     114.306 130.875 139.244  0.00  0.00    +0.000 OA
ATOM     23  C   UNL     1     114.064 130.450 139.907  0.00  0.00    +0.000 C 
ENDBRANCH  21  23
ENDBRANCH   4  17
BRANCH  11  27
ATOM     24  O   UNL     1     109.799 132.369 135.678  0.00  0.00    +0.000 OA
ATOM     25  O   UNL     1     106.669 131.366 135.972  0.00  0.00    +0.000 OA
ATOM     26  O   UNL     1     107.155 132.163 134.612  0.00  0.00    +0.000 OA
ATOM     27  C   UNL     1     108.773 131.719 136.432  0.00  0.00    +0.000 A 
ATOM     28  C   UNL     1     109.016 132.117 135.752  0.00  0.00    +0.000 A 
ATOM     29  C   UNL     1     107.990 131.468 136.506  0.00  0.00    +0.000 A 
ATOM     30  C   UNL     1     107.451 131.616 135.899  0.00  0.00    +0.000 A 
ATOM     31  C   UNL     1     108.477 132.265 135.145  0.00  0.00    +0.000 A 
ATOM     32  C   UNL     1     107.694 132.015 135.219  0.00  0.00    +0.000 A 
ENDBRANCH  11  27
BRANCH   5  33
ATOM     33  O   UNL     1     111.678 129.108 138.326  0.00  0.00    +0.000 OA
BRANCH  33  40
ATOM     34  O   UNL     1     112.325 129.116 137.052  0.00  0.00    +0.000 OA
ATOM     35  O   UNL     1     111.147 127.571 138.047  0.00  0.00    +0.000 OA
ATOM     36  O   UNL     1     111.528 126.810 136.633  0.00  0.00    +0.000 OA
ATOM     37  O   UNL     1     112.441 127.587 135.498  0.00  0.00    +0.000 OA
ATOM     38  C   UNL     1     111.603 127.958 137.479  0.00  0.00    +0.000 C 
ATOM     39  C   UNL     1     111.794 127.579 136.773  0.00  0.00    +0.000 C 
ATOM     40  C   UNL     1     111.869 128.727 137.619  0.00  0.00    +0.000 C 
ATOM     41  C   UNL     1     112.250 127.967 136.205  0.00  0.00    +0.000 C 
ATOM     42  C   UNL     1     112.515 128.735 136.344  0.00  0.00    +0.000 C 
BRANCH  42  45
ATOM     43  O   UNL     1     112.613 129.435 135.102  0.00  0.00    +0.000 OA
ATOM     44  O   UNL     1     113.786 129.202 135.885  0.00  0.00    +0.000 OA
ATOM     45  C   UNL     1     112.972 129.124 135.778  0.00  0.00    +0.000 C 
ENDBRANCH  42  45
ENDBRANCH  33  40
ENDBRANCH   5  33
TORSDOF 6
ENDMDL
MODEL 7
REMARK VINA RESULT:     -10.2      2.374      4.682
REMARK  Name = 131832575
REMARK  6 active torsions:
REMARK  status: ('A' for Active; 'I' for Inactive)
REMARK    1  A    between atoms: O_2  and  C_27
REMARK    2  A    between atoms: O_2  and  C_30
REMARK    3  A    between atoms: C_19  and  C_24
REMARK    4  A    between atoms: C_23  and  C_29
REMARK    5  A    between atoms: C_31  and  C_36
REMARK    6  A    between atoms: C_38  and  C_40
REMARK                            x       y       z     vdW  Elec       q    Type
REMARK                         _______ _______ _______ _____ _____    ______ ____
ROOT
ATOM      1  O   UNL     1     109.513 126.567 136.489  0.00  0.00    +0.000 OA
ATOM      2  O   UNL     1     109.824 129.442 136.356  0.00  0.00    +0.000 OA
ATOM      3  O   UNL     1     108.481 127.353 135.859  0.00  0.00    +0.000 OA
ATOM      4  C   UNL     1     110.676 127.184 137.044  0.00  0.00    +0.000 A 
ATOM      5  C   UNL     1     111.116 127.863 137.208  0.00  0.00    +0.000 A 
ATOM      6  C   UNL     1     109.953 127.246 136.653  0.00  0.00    +0.000 A 
ATOM      7  C   UNL     1     109.668 127.986 136.425  0.00  0.00    +0.000 A 
ATOM      8  C   UNL     1     110.832 128.603 136.980  0.00  0.00    +0.000 A 
ATOM      9  C   UNL     1     110.109 128.665 136.588  0.00  0.00    +0.000 A 
ATOM     10  C   UNL     1     108.914 128.037 136.018  0.00  0.00    +0.000 A 
ATOM     11  C   UNL     1     109.070 129.512 135.948  0.00  0.00    +0.000 A 
ATOM     12  C   UNL     1     108.613 128.805 135.778  0.00  0.00    +0.000 A 
ENDROOT
BRANCH   4  17
ATOM     13  O   UNL     1     111.448 126.015 136.766  0.00  0.00    +0.000 OA
ATOM     14  O   UNL     1     110.265 126.562 138.516  0.00  0.00    +0.000 OA
ATOM     15  O   UNL     1     110.830 125.081 138.973  0.00  0.00    +0.000 OA
ATOM     16  O   UNL     1     111.808 124.222 137.958  0.00  0.00    +0.000 OA
ATOM     17  C   UNL     1     110.960 126.444 137.272  0.00  0.00    +0.000 C 
ATOM     18  C   UNL     1     110.754 126.132 138.008  0.00  0.00    +0.000 C 
ATOM     19  C   UNL     1     111.036 125.392 138.237  0.00  0.00    +0.000 C 
ATOM     20  C   UNL     1     111.526 124.963 137.729  0.00  0.00    +0.000 C 
ATOM     21  C   UNL     1     111.732 125.274 136.994  0.00  0.00    +0.000 C 
BRANCH  21  23
ATOM     22  O   UNL     1     112.981 125.116 136.319  0.00  0.00    +0.000 OA
ATOM     23  C   UNL     1     112.220 124.845 136.487  0.00  0.00    +0.000 C 
ENDBRANCH  21  23
ENDBRANCH   4  17
BRANCH  11  27
ATOM     24  O   UNL     1     109.700 130.260 134.618  0.00  0.00    +0.000 OA
ATOM     25  O   UNL     1     107.319 131.732 136.368  0.00  0.00    +0.000 OA
ATOM     26  O   UNL     1     107.949 132.480 135.039  0.00  0.00    +0.000 OA
ATOM     27  C   UNL     1     108.790 130.254 135.721  0.00  0.00    +0.000 A 
ATOM     28  C   UNL     1     109.104 130.628 135.056  0.00  0.00    +0.000 A 
ATOM     29  C   UNL     1     108.195 130.622 136.158  0.00  0.00    +0.000 A 
ATOM     30  C   UNL     1     107.914 131.364 135.931  0.00  0.00    +0.000 A 
ATOM     31  C   UNL     1     108.824 131.370 134.829  0.00  0.00    +0.000 A 
ATOM     32  C   UNL     1     108.229 131.738 135.266  0.00  0.00    +0.000 A 
ENDBRANCH  11  27
BRANCH   5  33
ATOM     33  O   UNL     1     111.839 127.801 137.599  0.00  0.00    +0.000 OA
BRANCH  33  40
ATOM     34  O   UNL     1     112.750 128.428 136.694  0.00  0.00    +0.000 OA
ATOM     35  O   UNL     1     112.402 128.752 138.824  0.00  0.00    +0.000 OA
ATOM     36  O   UNL     1     113.595 129.854 138.532  0.00  0.00    +0.000 OA
ATOM     37  O   UNL     1     114.225 130.005 137.014  0.00  0.00    +0.000 OA
ATOM     38  C   UNL     1     112.718 128.828 138.066  0.00  0.00    +0.000 C 
ATOM     39  C   UNL     1     113.314 129.378 137.919  0.00  0.00    +0.000 C 
ATOM     40  C   UNL     1     112.436 128.353 137.453  0.00  0.00    +0.000 C 
ATOM     41  C   UNL     1     113.629 129.455 137.161  0.00  0.00    +0.000 C 
ATOM     42  C   UNL     1     113.347 128.979 136.548  0.00  0.00    +0.000 C 
BRANCH  42  45
ATOM     43  O   UNL     1     113.426 129.681 135.306  0.00  0.00    +0.000 OA
ATOM     44  O   UNL     1     114.211 128.504 135.513  0.00  0.00    +0.000 OA
ATOM     45  C   UNL     1     113.662 129.054 135.789  0.00  0.00    +0.000 C 
ENDBRANCH  42  45
ENDBRANCH  33  40
ENDBRANCH   5  33
TORSDOF 6
ENDMDL
MODEL 8
REMARK VINA RESULT:     -10.1      2.982      5.810
REMARK  Name = 131832575
REMARK  6 active torsions:
REMARK  status: ('A' for Active; 'I' for Inactive)
REMARK    1  A    between atoms: O_2  and  C_27
REMARK    2  A    between atoms: O_2  and  C_30
REMARK    3  A    between atoms: C_19  and  C_24
REMARK    4  A    between atoms: C_23  and  C_29
REMARK    5  A    between atoms: C_31  and  C_36
REMARK    6  A    between atoms: C_38  and  C_40
REMARK                            x       y       z     vdW  Elec       q    Type
REMARK                         _______ _______ _______ _____ _____    ______ ____
ROOT
ATOM      1  O   UNL     1     111.438 131.499 139.050  0.00  0.00    +0.000 OA
ATOM      2  O   UNL     1     109.898 130.797 136.701  0.00  0.00    +0.000 OA
ATOM      3  O   UNL     1     110.392 132.389 138.607  0.00  0.00    +0.000 OA
ATOM      4  C   UNL     1     111.720 130.286 138.349  0.00  0.00    +0.000 A 
ATOM      5  C   UNL     1     111.562 129.766 137.729  0.00  0.00    +0.000 A 
ATOM      6  C   UNL     1     111.279 130.978 138.429  0.00  0.00    +0.000 A 
ATOM      7  C   UNL     1     110.679 131.150 137.890  0.00  0.00    +0.000 A 
ATOM      8  C   UNL     1     110.962 129.937 137.189  0.00  0.00    +0.000 A 
ATOM      9  C   UNL     1     110.521 130.629 137.269  0.00  0.00    +0.000 A 
ATOM     10  C   UNL     1     110.226 131.874 137.984  0.00  0.00    +0.000 A 
ATOM     11  C   UNL     1     109.435 131.517 136.779  0.00  0.00    +0.000 A 
ATOM     12  C   UNL     1     109.600 132.058 137.425  0.00  0.00    +0.000 A 
ENDROOT
BRANCH   4  17
ATOM     13  O   UNL     1     112.161 129.647 139.549  0.00  0.00    +0.000 OA
ATOM     14  O   UNL     1     113.241 130.880 138.107  0.00  0.00    +0.000 OA
ATOM     15  O   UNL     1     114.441 130.538 139.187  0.00  0.00    +0.000 OA
ATOM     16  O   UNL     1     114.121 129.602 140.507  0.00  0.00    +0.000 OA
ATOM     17  C   UNL     1     112.320 130.114 138.889  0.00  0.00    +0.000 C 
ATOM     18  C   UNL     1     113.080 130.412 138.768  0.00  0.00    +0.000 C 
ATOM     19  C   UNL     1     113.681 130.241 139.307  0.00  0.00    +0.000 C 
ATOM     20  C   UNL     1     113.521 129.773 139.968  0.00  0.00    +0.000 C 
ATOM     21  C   UNL     1     112.761 129.476 140.089  0.00  0.00    +0.000 C 
BRANCH  21  23
ATOM     22  O   UNL     1     111.833 128.747 140.893  0.00  0.00    +0.000 OA
ATOM     23  C   UNL     1     112.601 129.008 140.749  0.00  0.00    +0.000 C 
ENDBRANCH  21  23
ENDBRANCH   4  17
BRANCH  11  27
ATOM     24  O   UNL     1     109.755 132.461 135.465  0.00  0.00    +0.000 OA
ATOM     25  O   UNL     1     106.721 131.248 135.927  0.00  0.00    +0.000 OA
ATOM     26  O   UNL     1     107.040 132.192 134.612  0.00  0.00    +0.000 OA
ATOM     27  C   UNL     1     108.836 131.685 136.238  0.00  0.00    +0.000 A 
ATOM     28  C   UNL     1     108.996 132.157 135.581  0.00  0.00    +0.000 A 
ATOM     29  C   UNL     1     108.078 131.382 136.353  0.00  0.00    +0.000 A 
ATOM     30  C   UNL     1     107.479 131.551 135.811  0.00  0.00    +0.000 A 
ATOM     31  C   UNL     1     108.398 132.327 135.039  0.00  0.00    +0.000 A 
ATOM     32  C   UNL     1     107.639 132.023 135.154  0.00  0.00    +0.000 A 
ENDBRANCH  11  27
BRANCH   5  33
ATOM     33  O   UNL     1     112.003 129.073 137.649  0.00  0.00    +0.000 OA
BRANCH  33  40
ATOM     34  O   UNL     1     110.975 128.082 137.704  0.00  0.00    +0.000 OA
ATOM     35  O   UNL     1     112.648 128.330 136.324  0.00  0.00    +0.000 OA
ATOM     36  O   UNL     1     111.942 126.967 135.717  0.00  0.00    +0.000 OA
ATOM     37  O   UNL     1     110.592 126.348 136.436  0.00  0.00    +0.000 OA
ATOM     38  C   UNL     1     111.973 128.020 136.683  0.00  0.00    +0.000 C 
ATOM     39  C   UNL     1     111.620 127.339 136.380  0.00  0.00    +0.000 C 
ATOM     40  C   UNL     1     111.650 128.391 137.345  0.00  0.00    +0.000 C 
ATOM     41  C   UNL     1     110.945 127.029 136.738  0.00  0.00    +0.000 C 
ATOM     42  C   UNL     1     110.622 127.400 137.401  0.00  0.00    +0.000 C 
BRANCH  42  45
ATOM     43  O   UNL     1     109.204 127.227 137.427  0.00  0.00    +0.000 OA
ATOM     44  O   UNL     1     110.015 126.646 138.452  0.00  0.00    +0.000 OA
ATOM     45  C   UNL     1     109.947 127.091 137.760  0.00  0.00    +0.000 C 
ENDBRANCH  42  45
ENDBRANCH  33  40
ENDBRANCH   5  33
TORSDOF 6
ENDMDL
MODEL 9
REMARK VINA RESULT:     -10.1      2.286      5.322
REMARK  Name = 131832575
REMARK  6 active torsions:
REMARK  status: ('A' for Active; 'I' for Inactive)
REMARK    1  A    between atoms: O_2  and  C_27
REMARK    2  A    between atoms: O_2  and  C_30
REMARK    3  A    between atoms: C_19  and  C_24
REMARK    4  A    between atoms: C_23  and  C_29
REMARK    5  A    between atoms: C_31  and  C_36
REMARK    6  A    between atoms: C_38  and  C_40
REMARK                            x       y       z     vdW  Elec       q    Type
REMARK                         _______ _______ _______ _____ _____    ______ ____
ROOT
ATOM      1  O   UNL     1     111.062 128.215 140.236  0.00  0.00    +0.000 OA
ATOM      2  O   UNL     1     111.797 126.914 137.757  0.00  0.00    +0.000 OA
ATOM      3  O   UNL     1     111.599 126.877 140.282  0.00  0.00    +0.000 OA
ATOM      4  C   UNL     1     110.890 128.900 138.993  0.00  0.00    +0.000 A 
ATOM      5  C   UNL     1     110.953 128.915 138.172  0.00  0.00    +0.000 A 
ATOM      6  C   UNL     1     111.125 128.230 139.413  0.00  0.00    +0.000 A 
ATOM      7  C   UNL     1     111.424 127.575 139.011  0.00  0.00    +0.000 A 
ATOM      8  C   UNL     1     111.252 128.260 137.768  0.00  0.00    +0.000 A 
ATOM      9  C   UNL     1     111.487 127.590 138.188  0.00  0.00    +0.000 A 
ATOM     10  C   UNL     1     111.666 126.883 139.460  0.00  0.00    +0.000 A 
ATOM     11  C   UNL     1     112.043 126.213 138.189  0.00  0.00    +0.000 A 
ATOM     12  C   UNL     1     111.977 126.198 139.046  0.00  0.00    +0.000 A 
ENDROOT
BRANCH   4  17
ATOM     13  O   UNL     1     109.779 129.631 139.519  0.00  0.00    +0.000 OA
ATOM     14  O   UNL     1     111.919 130.061 139.556  0.00  0.00    +0.000 OA
ATOM     15  O   UNL     1     111.323 131.371 140.363  0.00  0.00    +0.000 OA
ATOM     16  O   UNL     1     109.698 131.521 140.607  0.00  0.00    +0.000 OA
ATOM     17  C   UNL     1     110.591 129.556 139.397  0.00  0.00    +0.000 C 
ATOM     18  C   UNL     1     111.106 130.136 139.678  0.00  0.00    +0.000 C 
ATOM     19  C   UNL     1     110.808 130.791 140.082  0.00  0.00    +0.000 C 
ATOM     20  C   UNL     1     109.995 130.866 140.203  0.00  0.00    +0.000 C 
ATOM     21  C   UNL     1     109.481 130.286 139.922  0.00  0.00    +0.000 C 
BRANCH  21  23
ATOM     22  O   UNL     1     108.167 129.728 139.880  0.00  0.00    +0.000 OA
ATOM     23  C   UNL     1     108.669 130.361 140.044  0.00  0.00    +0.000 C 
ENDBRANCH  21  23
ENDBRANCH   4  17
BRANCH  11  27
ATOM     24  O   UNL     1     111.018 125.035 137.658  0.00  0.00    +0.000 OA
ATOM     25  O   UNL     1     114.260 124.776 137.097  0.00  0.00    +0.000 OA
ATOM     26  O   UNL     1     113.234 123.598 136.566  0.00  0.00    +0.000 OA
ATOM     27  C   UNL     1     112.342 125.560 137.784  0.00  0.00    +0.000 A 
ATOM     28  C   UNL     1     111.829 124.971 137.518  0.00  0.00    +0.000 A 
ATOM     29  C   UNL     1     113.152 125.495 137.644  0.00  0.00    +0.000 A 
ATOM     30  C   UNL     1     113.449 124.841 137.238  0.00  0.00    +0.000 A 
ATOM     31  C   UNL     1     112.126 124.317 137.112  0.00  0.00    +0.000 A 
ATOM     32  C   UNL     1     112.936 124.252 136.972  0.00  0.00    +0.000 A 
ENDBRANCH  11  27
BRANCH   5  33
ATOM     33  O   UNL     1     110.718 129.585 137.752  0.00  0.00    +0.000 OA
BRANCH  33  40
ATOM     34  O   UNL     1     109.749 129.071 136.836  0.00  0.00    +0.000 OA
ATOM     35  O   UNL     1     111.512 130.315 136.503  0.00  0.00    +0.000 OA
ATOM     36  O   UNL     1     110.941 130.165 134.962  0.00  0.00    +0.000 OA
ATOM     37  O   UNL     1     109.575 129.285 134.671  0.00  0.00    +0.000 OA
ATOM     38  C   UNL     1     110.829 129.875 136.356  0.00  0.00    +0.000 C 
ATOM     39  C   UNL     1     110.544 129.800 135.587  0.00  0.00    +0.000 C 
ATOM     40  C   UNL     1     110.432 129.510 136.981  0.00  0.00    +0.000 C 
ATOM     41  C   UNL     1     109.861 129.360 135.440  0.00  0.00    +0.000 C 
ATOM     42  C   UNL     1     109.464 128.996 136.065  0.00  0.00    +0.000 C 
BRANCH  42  45
ATOM     43  O   UNL     1     108.040 128.919 135.962  0.00  0.00    +0.000 OA
ATOM     44  O   UNL     1     108.838 127.755 135.732  0.00  0.00    +0.000 OA
ATOM     45  C   UNL     1     108.781 128.556 135.920  0.00  0.00    +0.000 C 
ENDBRANCH  42  45
ENDBRANCH  33  40
ENDBRANCH   5  33
TORSDOF 6
ENDMDL
MODEL 10
REMARK VINA RESULT:     -10.1      2.481      5.979
REMARK  Name = 131832575
REMARK  6 active torsions:
REMARK  status: ('A' for Active; 'I' for Inactive)
REMARK    1  A    between atoms: O_2  and  C_27
REMARK    2  A    between atoms: O_2  and  C_30
REMARK    3  A    between atoms: C_19  and  C_24
REMARK    4  A    between atoms: C_23  and  C_29
REMARK    5  A    between atoms: C_31  and  C_36
REMARK    6  A    between atoms: C_38  and  C_40
REMARK                            x       y       z     vdW  Elec       q    Type
REMARK                         _______ _______ _______ _____ _____    ______ ____
ROOT
ATOM      1  O   UNL     1     110.130 129.048 135.137  0.00  0.00    +0.000 OA
ATOM      2  O   UNL     1     111.203 127.090 136.980  0.00  0.00    +0.000 OA
ATOM      3  O   UNL     1     110.868 127.925 134.612  0.00  0.00    +0.000 OA
ATOM      4  C   UNL     1     109.924 129.204 136.543  0.00  0.00    +0.000 A 
ATOM      5  C   UNL     1     110.032 128.935 137.315  0.00  0.00    +0.000 A 
ATOM      6  C   UNL     1     110.238 128.778 135.910  0.00  0.00    +0.000 A 
ATOM      7  C   UNL     1     110.659 128.083 136.048  0.00  0.00    +0.000 A 
ATOM      8  C   UNL     1     110.453 128.239 137.455  0.00  0.00    +0.000 A 
ATOM      9  C   UNL     1     110.767 127.813 136.821  0.00  0.00    +0.000 A 
ATOM     10  C   UNL     1     110.980 127.648 135.381  0.00  0.00    +0.000 A 
ATOM     11  C   UNL     1     111.532 126.642 136.323  0.00  0.00    +0.000 A 
ATOM     12  C   UNL     1     111.420 126.923 135.520  0.00  0.00    +0.000 A 
ENDROOT
BRANCH   4  17
ATOM     13  O   UNL     1     109.891 130.627 136.417  0.00  0.00    +0.000 OA
ATOM     14  O   UNL     1     108.304 129.139 136.236  0.00  0.00    +0.000 OA
ATOM     15  O   UNL     1     107.461 130.529 135.957  0.00  0.00    +0.000 OA
ATOM     16  O   UNL     1     108.237 131.985 135.984  0.00  0.00    +0.000 OA
ATOM     17  C   UNL     1     109.503 129.900 136.403  0.00  0.00    +0.000 C 
ATOM     18  C   UNL     1     108.693 129.867 136.250  0.00  0.00    +0.000 C 
ATOM     19  C   UNL     1     108.271 130.562 136.110  0.00  0.00    +0.000 C 
ATOM     20  C   UNL     1     108.659 131.290 136.124  0.00  0.00    +0.000 C 
ATOM     21  C   UNL     1     109.469 131.323 136.277  0.00  0.00    +0.000 C 
BRANCH  21  23
ATOM     22  O   UNL     1     110.655 132.089 136.495  0.00  0.00    +0.000 OA
ATOM     23  C   UNL     1     109.857 132.050 136.291  0.00  0.00    +0.000 C 
ENDBRANCH  21  23
ENDBRANCH   4  17
BRANCH  11  27
ATOM     24  O   UNL     1     113.164 126.701 136.563  0.00  0.00    +0.000 OA
ATOM     25  O   UNL     1     111.586 123.804 136.655  0.00  0.00    +0.000 OA
ATOM     26  O   UNL     1     113.217 123.863 136.895  0.00  0.00    +0.000 OA
ATOM     27  C   UNL     1     111.953 125.947 136.466  0.00  0.00    +0.000 A 
ATOM     28  C   UNL     1     112.769 125.976 136.586  0.00  0.00    +0.000 A 
ATOM     29  C   UNL     1     111.559 125.223 136.489  0.00  0.00    +0.000 A 
ATOM     30  C   UNL     1     111.980 124.528 136.632  0.00  0.00    +0.000 A 
ATOM     31  C   UNL     1     113.190 125.282 136.729  0.00  0.00    +0.000 A 
ATOM     32  C   UNL     1     112.796 124.557 136.752  0.00  0.00    +0.000 A 
ENDBRANCH  11  27
BRANCH   5  33
ATOM     33  O   UNL     1     109.718 129.361 137.948  0.00  0.00    +0.000 OA
BRANCH  33  40
ATOM     34  O   UNL     1     110.899 129.658 138.696  0.00  0.00    +0.000 OA
ATOM     35  O   UNL     1     108.967 128.867 139.331  0.00  0.00    +0.000 OA
ATOM     36  O   UNL     1     109.772 128.918 140.771  0.00  0.00    +0.000 OA
ATOM     37  O   UNL     1     111.329 129.463 140.827  0.00  0.00    +0.000 OA
ATOM     38  C   UNL     1     109.745 129.139 139.360  0.00  0.00    +0.000 C 
ATOM     39  C   UNL     1     110.148 129.165 140.079  0.00  0.00    +0.000 C 
ATOM     40  C   UNL     1     110.121 129.386 138.668  0.00  0.00    +0.000 C 
ATOM     41  C   UNL     1     110.926 129.437 140.108  0.00  0.00    +0.000 C 
ATOM     42  C   UNL     1     111.302 129.684 139.416  0.00  0.00    +0.000 C 
BRANCH  42  45
ATOM     43  O   UNL     1     112.233 130.768 139.444  0.00  0.00    +0.000 OA
ATOM     44  O   UNL     1     112.705 129.418 139.470  0.00  0.00    +0.000 OA
ATOM     45  C   UNL     1     112.080 129.956 139.443  0.00  0.00    +0.000 C 
ENDBRANCH  42  45
ENDBRANCH  33  40
ENDBRANCH   5  33
TORSDOF 6
ENDMDL
