MODEL 1
REMARK VINA RESULT:     -10.3      0.000      0.000
REMARK  Name = 44257784
REMARK  11 active torsions:
REMARK  status: ('A' for Active; 'I' for Inactive)
REMARK    1  A    between atoms: O_3  and  C_28
REMARK    2  A    between atoms: O_3  and  C_30
REMARK    3  A    between atoms: O_12  and  C_33
REMARK    4  A    between atoms: O_12  and  C_40
REMARK    5  A    between atoms: O_17  and  C_52
REMARK    6  A    between atoms: C_19  and  C_24
REMARK    7  A    between atoms: C_23  and  C_31
REMARK    8  A    between atoms: C_29  and  C_33
REMARK    9  A    between atoms: C_39  and  C_41
REMARK   10  A    between atoms: C_40  and  C_42
REMARK   11  A    between atoms: C_47  and  C_49
REMARK                            x       y       z     vdW  Elec       q    Type
REMARK                         _______ _______ _______ _____ _____    ______ ____
ROOT
ATOM      1  O   UNL     1     113.893 128.352 141.103  0.00  0.00    +0.000 OA
ATOM      2  O   UNL     1     113.373 127.387 138.424  0.00  0.00    +0.000 OA
ATOM      3  O   UNL     1     113.906 126.930 140.857  0.00  0.00    +0.000 OA
ATOM      4  C   UNL     1     113.630 129.281 140.050  0.00  0.00    +0.000 A 
ATOM      5  C   UNL     1     113.456 129.433 139.258  0.00  0.00    +0.000 A 
ATOM      6  C   UNL     1     113.720 128.503 140.311  0.00  0.00    +0.000 A 
ATOM      7  C   UNL     1     113.372 128.807 138.726  0.00  0.00    +0.000 A 
ATOM      8  C   UNL     1     113.636 127.878 139.780  0.00  0.00    +0.000 A 
ATOM      9  C   UNL     1     113.462 128.029 138.987  0.00  0.00    +0.000 A 
ATOM     10  C   UNL     1     113.732 127.073 140.063  0.00  0.00    +0.000 A 
ATOM     11  C   UNL     1     113.646 126.416 139.515  0.00  0.00    +0.000 A 
ATOM     12  C   UNL     1     113.465 126.575 138.690  0.00  0.00    +0.000 A 
ENDROOT
BRANCH   4  17
ATOM     13  O   UNL     1     113.061 130.173 141.010  0.00  0.00    +0.000 OA
ATOM     14  O   UNL     1     115.101 129.999 140.254  0.00  0.00    +0.000 OA
ATOM     15  O   UNL     1     115.268 131.250 141.317  0.00  0.00    +0.000 OA
ATOM     16  O   UNL     1     113.963 131.783 142.175  0.00  0.00    +0.000 OA
ATOM     17  C   UNL     1     113.713 129.907 140.581  0.00  0.00    +0.000 C 
ATOM     18  C   UNL     1     114.449 130.266 140.684  0.00  0.00    +0.000 C 
ATOM     19  C   UNL     1     114.532 130.891 141.214  0.00  0.00    +0.000 C 
ATOM     20  C   UNL     1     113.880 131.158 141.644  0.00  0.00    +0.000 C 
ATOM     21  C   UNL     1     113.144 130.799 141.542  0.00  0.00    +0.000 C 
BRANCH  21  23
ATOM     22  O   UNL     1     111.751 131.111 141.608  0.00  0.00    +0.000 OA
ATOM     23  C   UNL     1     112.492 131.065 141.970  0.00  0.00    +0.000 C 
ENDBRANCH  21  23
ENDBRANCH   4  17
BRANCH  12  25
ATOM     24  O   UNL     1     113.130 124.080 136.556  0.00  0.00    +0.000 OA
ATOM     25  C   UNL     1     113.381 125.951 138.156  0.00  0.00    +0.000 A 
ATOM     26  C   UNL     1     114.049 125.611 137.811  0.00  0.00    +0.000 A 
ATOM     27  C   UNL     1     112.630 125.668 137.968  0.00  0.00    +0.000 A 
ATOM     28  C   UNL     1     113.965 124.988 137.277  0.00  0.00    +0.000 A 
ATOM     29  C   UNL     1     112.546 125.043 137.434  0.00  0.00    +0.000 A 
ATOM     30  C   UNL     1     113.214 124.704 137.089  0.00  0.00    +0.000 A 
ENDBRANCH  12  25
BRANCH   5  31
ATOM     31  O   UNL     1     113.366 130.211 138.997  0.00  0.00    +0.000 OA
BRANCH  31  39
ATOM     32  O   UNL     1     112.058 130.123 138.429  0.00  0.00    +0.000 OA
ATOM     33  O   UNL     1     112.824 131.415 136.463  0.00  0.00    +0.000 OA
ATOM     34  O   UNL     1     113.877 131.072 137.686  0.00  0.00    +0.000 OA
ATOM     35  O   UNL     1     111.260 130.896 136.551  0.00  0.00    +0.000 OA
ATOM     36  C   UNL     1     112.569 130.984 137.118  0.00  0.00    +0.000 C 
ATOM     37  C   UNL     1     113.094 130.812 137.730  0.00  0.00    +0.000 C 
ATOM     38  C   UNL     1     111.786 130.724 137.162  0.00  0.00    +0.000 C 
ATOM     39  C   UNL     1     112.839 130.382 138.386  0.00  0.00    +0.000 C 
ATOM     40  C   UNL     1     111.530 130.294 137.818  0.00  0.00    +0.000 C 
BRANCH  40  41
ATOM     41  C   UNL     1     110.749 130.035 137.862  0.00  0.00    +0.000 C 
BRANCH  41  42
ATOM     42  O   UNL     1     110.388 129.933 138.597  0.00  0.00    +0.000 OA
BRANCH  42  44
ATOM     43  O   UNL     1     109.037 129.513 138.401  0.00  0.00    +0.000 OA
ATOM     44  C   UNL     1     109.796 129.367 138.691  0.00  0.00    +0.000 C 
BRANCH  44  45
ATOM     45  C   UNL     1     109.961 128.656 139.075  0.00  0.00    +0.000 C 
ATOM     46  C   UNL     1     109.715 128.540 139.853  0.00  0.00    +0.000 C 
BRANCH  46  48
ATOM     47  O   UNL     1     110.375 125.692 141.386  0.00  0.00    +0.000 OA
ATOM     48  C   UNL     1     109.881 127.828 140.237  0.00  0.00    +0.000 A 
ATOM     49  C   UNL     1     110.208 127.833 140.993  0.00  0.00    +0.000 A 
ATOM     50  C   UNL     1     109.718 127.111 139.863  0.00  0.00    +0.000 A 
ATOM     51  C   UNL     1     110.373 127.122 141.377  0.00  0.00    +0.000 A 
ATOM     52  C   UNL     1     109.882 126.399 140.245  0.00  0.00    +0.000 A 
ATOM     53  C   UNL     1     110.210 126.404 141.003  0.00  0.00    +0.000 A 
BRANCH  51  54
ATOM     54  O   UNL     1     110.700 127.127 142.134  0.00  0.00    +0.000 OA
ATOM     55  C   UNL     1     110.854 127.844 142.512  0.00  0.00    +0.000 C 
ENDBRANCH  51  54
ENDBRANCH  46  48
ENDBRANCH  44  45
ENDBRANCH  42  44
ENDBRANCH  41  42
ENDBRANCH  40  41
ENDBRANCH  31  39
ENDBRANCH   5  31
TORSDOF 11
ENDMDL
MODEL 2
REMARK VINA RESULT:     -10.2      1.667      3.872
REMARK  Name = 44257784
REMARK  11 active torsions:
REMARK  status: ('A' for Active; 'I' for Inactive)
REMARK    1  A    between atoms: O_3  and  C_28
REMARK    2  A    between atoms: O_3  and  C_30
REMARK    3  A    between atoms: O_12  and  C_33
REMARK    4  A    between atoms: O_12  and  C_40
REMARK    5  A    between atoms: O_17  and  C_52
REMARK    6  A    between atoms: C_19  and  C_24
REMARK    7  A    between atoms: C_23  and  C_31
REMARK    8  A    between atoms: C_29  and  C_33
REMARK    9  A    between atoms: C_39  and  C_41
REMARK   10  A    between atoms: C_40  and  C_42
REMARK   11  A    between atoms: C_47  and  C_49
REMARK                            x       y       z     vdW  Elec       q    Type
REMARK                         _______ _______ _______ _____ _____    ______ ____
ROOT
ATOM      1  O   UNL     1     110.576 126.639 139.394  0.00  0.00    +0.000 OA
ATOM      2  O   UNL     1     113.299 126.741 138.418  0.00  0.00    +0.000 OA
ATOM      3  O   UNL     1     110.998 125.683 138.398  0.00  0.00    +0.000 OA
ATOM      4  C   UNL     1     111.477 127.625 139.900  0.00  0.00    +0.000 A 
ATOM      5  C   UNL     1     112.225 127.972 139.909  0.00  0.00    +0.000 A 
ATOM      6  C   UNL     1     111.325 126.985 139.402  0.00  0.00    +0.000 A 
ATOM      7  C   UNL     1     112.822 127.678 139.420  0.00  0.00    +0.000 A 
ATOM      8  C   UNL     1     111.921 126.691 138.914  0.00  0.00    +0.000 A 
ATOM      9  C   UNL     1     112.670 127.037 138.922  0.00  0.00    +0.000 A 
ATOM     10  C   UNL     1     111.750 126.024 138.401  0.00  0.00    +0.000 A 
ATOM     11  C   UNL     1     112.367 125.713 137.889  0.00  0.00    +0.000 A 
ATOM     12  C   UNL     1     113.146 126.074 137.898  0.00  0.00    +0.000 A 
ENDROOT
BRANCH   4  17
ATOM     13  O   UNL     1     110.384 128.519 140.117  0.00  0.00    +0.000 OA
ATOM     14  O   UNL     1     111.279 127.013 141.419  0.00  0.00    +0.000 OA
ATOM     15  O   UNL     1     110.087 127.602 142.396  0.00  0.00    +0.000 OA
ATOM     16  O   UNL     1     109.092 128.801 141.854  0.00  0.00    +0.000 OA
ATOM     17  C   UNL     1     110.880 127.919 140.389  0.00  0.00    +0.000 C 
ATOM     18  C   UNL     1     110.781 127.613 141.149  0.00  0.00    +0.000 C 
ATOM     19  C   UNL     1     110.186 127.907 141.637  0.00  0.00    +0.000 C 
ATOM     20  C   UNL     1     109.688 128.507 141.366  0.00  0.00    +0.000 C 
ATOM     21  C   UNL     1     109.787 128.813 140.606  0.00  0.00    +0.000 C 
BRANCH  21  23
ATOM     22  O   UNL     1     109.439 129.773 139.606  0.00  0.00    +0.000 OA
ATOM     23  C   UNL     1     109.290 129.413 140.334  0.00  0.00    +0.000 C 
ENDBRANCH  21  23
ENDBRANCH   4  17
BRANCH  12  25
ATOM     24  O   UNL     1     115.539 124.907 135.948  0.00  0.00    +0.000 OA
ATOM     25  C   UNL     1     113.745 125.782 137.411  0.00  0.00    +0.000 A 
ATOM     26  C   UNL     1     113.905 126.149 136.689  0.00  0.00    +0.000 A 
ATOM     27  C   UNL     1     114.183 125.123 137.645  0.00  0.00    +0.000 A 
ATOM     28  C   UNL     1     114.502 125.858 136.202  0.00  0.00    +0.000 A 
ATOM     29  C   UNL     1     114.781 124.832 137.156  0.00  0.00    +0.000 A 
ATOM     30  C   UNL     1     114.940 125.199 136.435  0.00  0.00    +0.000 A 
ENDBRANCH  12  25
BRANCH   5  31
ATOM     31  O   UNL     1     112.378 128.612 140.406  0.00  0.00    +0.000 OA
BRANCH  31  39
ATOM     32  O   UNL     1     112.789 129.576 139.434  0.00  0.00    +0.000 OA
ATOM     33  O   UNL     1     114.661 130.259 140.902  0.00  0.00    +0.000 OA
ATOM     34  O   UNL     1     113.626 129.068 141.385  0.00  0.00    +0.000 OA
ATOM     35  O   UNL     1     114.447 130.995 139.441  0.00  0.00    +0.000 OA
ATOM     36  C   UNL     1     114.037 130.031 140.413  0.00  0.00    +0.000 C 
ATOM     37  C   UNL     1     113.519 129.436 140.654  0.00  0.00    +0.000 C 
ATOM     38  C   UNL     1     113.930 130.399 139.682  0.00  0.00    +0.000 C 
ATOM     39  C   UNL     1     112.895 129.208 140.164  0.00  0.00    +0.000 C 
ATOM     40  C   UNL     1     113.306 130.171 139.192  0.00  0.00    +0.000 C 
BRANCH  40  41
ATOM     41  C   UNL     1     113.199 130.539 138.462  0.00  0.00    +0.000 C 
BRANCH  41  42
ATOM     42  O   UNL     1     112.460 130.523 138.095  0.00  0.00    +0.000 OA
BRANCH  42  44
ATOM     43  O   UNL     1     112.511 131.349 136.931  0.00  0.00    +0.000 OA
ATOM     44  C   UNL     1     112.404 130.608 137.277  0.00  0.00    +0.000 C 
BRANCH  44  45
ATOM     45  C   UNL     1     112.240 129.952 136.804  0.00  0.00    +0.000 C 
ATOM     46  C   UNL     1     111.473 129.822 136.530  0.00  0.00    +0.000 C 
BRANCH  46  48
ATOM     47  O   UNL     1     110.820 127.200 134.636  0.00  0.00    +0.000 OA
ATOM     48  C   UNL     1     111.309 129.167 136.056  0.00  0.00    +0.000 A 
ATOM     49  C   UNL     1     110.624 128.726 136.184  0.00  0.00    +0.000 A 
ATOM     50  C   UNL     1     111.832 128.951 135.455  0.00  0.00    +0.000 A 
ATOM     51  C   UNL     1     110.460 128.071 135.711  0.00  0.00    +0.000 A 
ATOM     52  C   UNL     1     111.669 128.296 134.982  0.00  0.00    +0.000 A 
ATOM     53  C   UNL     1     110.983 127.855 135.109  0.00  0.00    +0.000 A 
BRANCH  51  54
ATOM     54  O   UNL     1     109.775 127.630 135.838  0.00  0.00    +0.000 OA
ATOM     55  C   UNL     1     109.197 127.908 136.357  0.00  0.00    +0.000 C 
ENDBRANCH  51  54
ENDBRANCH  46  48
ENDBRANCH  44  45
ENDBRANCH  42  44
ENDBRANCH  41  42
ENDBRANCH  40  41
ENDBRANCH  31  39
ENDBRANCH   5  31
TORSDOF 11
ENDMDL
MODEL 3
REMARK VINA RESULT:     -10.2      1.306      4.347
REMARK  Name = 44257784
REMARK  11 active torsions:
REMARK  status: ('A' for Active; 'I' for Inactive)
REMARK    1  A    between atoms: O_3  and  C_28
REMARK    2  A    between atoms: O_3  and  C_30
REMARK    3  A    between atoms: O_12  and  C_33
REMARK    4  A    between atoms: O_12  and  C_40
REMARK    5  A    between atoms: O_17  and  C_52
REMARK    6  A    between atoms: C_19  and  C_24
REMARK    7  A    between atoms: C_23  and  C_31
REMARK    8  A    between atoms: C_29  and  C_33
REMARK    9  A    between atoms: C_39  and  C_41
REMARK   10  A    between atoms: C_40  and  C_42
REMARK   11  A    between atoms: C_47  and  C_49
REMARK                            x       y       z     vdW  Elec       q    Type
REMARK                         _______ _______ _______ _____ _____    ______ ____
ROOT
ATOM      1  O   UNL     1     113.178 126.004 139.528  0.00  0.00    +0.000 OA
ATOM      2  O   UNL     1     113.603 128.866 139.432  0.00  0.00    +0.000 OA
ATOM      3  O   UNL     1     113.476 126.709 140.752  0.00  0.00    +0.000 OA
ATOM      4  C   UNL     1     113.092 126.695 138.281  0.00  0.00    +0.000 A 
ATOM      5  C   UNL     1     113.133 127.396 137.848  0.00  0.00    +0.000 A 
ATOM      6  C   UNL     1     113.219 126.706 139.096  0.00  0.00    +0.000 A 
ATOM      7  C   UNL     1     113.301 128.108 138.230  0.00  0.00    +0.000 A 
ATOM      8  C   UNL     1     113.388 127.417 139.478  0.00  0.00    +0.000 A 
ATOM      9  C   UNL     1     113.429 128.118 139.045  0.00  0.00    +0.000 A 
ATOM     10  C   UNL     1     113.519 127.414 140.327  0.00  0.00    +0.000 A 
ATOM     11  C   UNL     1     113.695 128.152 140.731  0.00  0.00    +0.000 A 
ATOM     12  C   UNL     1     113.737 128.883 140.280  0.00  0.00    +0.000 A 
ENDROOT
BRANCH   4  17
ATOM     13  O   UNL     1     112.140 125.751 137.788  0.00  0.00    +0.000 OA
ATOM     14  O   UNL     1     114.322 125.739 137.738  0.00  0.00    +0.000 OA
ATOM     15  O   UNL     1     113.984 124.316 136.973  0.00  0.00    +0.000 OA
ATOM     16  O   UNL     1     112.417 123.850 136.752  0.00  0.00    +0.000 OA
ATOM     17  C   UNL     1     112.923 125.983 137.898  0.00  0.00    +0.000 C 
ATOM     18  C   UNL     1     113.538 125.505 137.627  0.00  0.00    +0.000 C 
ATOM     19  C   UNL     1     113.369 124.794 137.245  0.00  0.00    +0.000 C 
ATOM     20  C   UNL     1     112.586 124.560 137.134  0.00  0.00    +0.000 C 
ATOM     21  C   UNL     1     111.971 125.039 137.405  0.00  0.00    +0.000 C 
BRANCH  21  23
ATOM     22  O   UNL     1     110.573 125.317 137.502  0.00  0.00    +0.000 OA
ATOM     23  C   UNL     1     111.187 124.806 137.295  0.00  0.00    +0.000 C 
ENDBRANCH  21  23
ENDBRANCH   4  17
BRANCH  12  25
ATOM     24  O   UNL     1     114.410 131.734 141.799  0.00  0.00    +0.000 OA
ATOM     25  C   UNL     1     113.905 129.595 140.660  0.00  0.00    +0.000 A 
ATOM     26  C   UNL     1     113.336 129.952 141.139  0.00  0.00    +0.000 A 
ATOM     27  C   UNL     1     114.643 129.952 140.560  0.00  0.00    +0.000 A 
ATOM     28  C   UNL     1     113.504 130.665 141.518  0.00  0.00    +0.000 A 
ATOM     29  C   UNL     1     114.811 130.665 140.941  0.00  0.00    +0.000 A 
ATOM     30  C   UNL     1     114.241 131.021 141.419  0.00  0.00    +0.000 A 
ENDBRANCH  12  25
BRANCH   5  31
ATOM     31  O   UNL     1     113.005 127.386 137.033  0.00  0.00    +0.000 OA
BRANCH  31  39
ATOM     32  O   UNL     1     111.897 128.286 136.961  0.00  0.00    +0.000 OA
ATOM     33  O   UNL     1     112.911 129.376 134.984  0.00  0.00    +0.000 OA
ATOM     34  O   UNL     1     113.681 128.113 135.715  0.00  0.00    +0.000 OA
ATOM     35  O   UNL     1     111.465 129.913 135.572  0.00  0.00    +0.000 OA
ATOM     36  C   UNL     1     112.573 129.013 135.643  0.00  0.00    +0.000 C 
ATOM     37  C   UNL     1     112.957 128.381 136.009  0.00  0.00    +0.000 C 
ATOM     38  C   UNL     1     111.850 129.281 135.938  0.00  0.00    +0.000 C 
ATOM     39  C   UNL     1     112.620 128.017 136.668  0.00  0.00    +0.000 C 
ATOM     40  C   UNL     1     111.512 128.918 136.597  0.00  0.00    +0.000 C 
BRANCH  40  41
ATOM     41  C   UNL     1     110.790 129.186 136.890  0.00  0.00    +0.000 C 
BRANCH  41  42
ATOM     42  O   UNL     1     110.315 128.684 137.341  0.00  0.00    +0.000 OA
BRANCH  42  44
ATOM     43  O   UNL     1     109.122 129.400 137.665  0.00  0.00    +0.000 OA
ATOM     44  C   UNL     1     109.801 128.997 137.904  0.00  0.00    +0.000 C 
BRANCH  44  45
ATOM     45  C   UNL     1     109.965 128.908 138.708  0.00  0.00    +0.000 C 
ATOM     46  C   UNL     1     109.577 128.328 139.147  0.00  0.00    +0.000 C 
BRANCH  46  48
ATOM     47  O   UNL     1     110.233 127.974 142.362  0.00  0.00    +0.000 OA
ATOM     48  C   UNL     1     109.741 128.239 139.951  0.00  0.00    +0.000 A 
ATOM     49  C   UNL     1     109.850 127.486 140.269  0.00  0.00    +0.000 A 
ATOM     50  C   UNL     1     109.796 128.903 140.436  0.00  0.00    +0.000 A 
ATOM     51  C   UNL     1     110.014 127.397 141.073  0.00  0.00    +0.000 A 
ATOM     52  C   UNL     1     109.960 128.816 141.240  0.00  0.00    +0.000 A 
ATOM     53  C   UNL     1     110.069 128.062 141.558  0.00  0.00    +0.000 A 
BRANCH  51  54
ATOM     54  O   UNL     1     110.122 126.644 141.391  0.00  0.00    +0.000 OA
ATOM     55  C   UNL     1     109.917 125.977 140.951  0.00  0.00    +0.000 C 
ENDBRANCH  51  54
ENDBRANCH  46  48
ENDBRANCH  44  45
ENDBRANCH  42  44
ENDBRANCH  41  42
ENDBRANCH  40  41
ENDBRANCH  31  39
ENDBRANCH   5  31
TORSDOF 11
ENDMDL
MODEL 4
REMARK VINA RESULT:     -10.1      1.356      3.509
REMARK  Name = 44257784
REMARK  11 active torsions:
REMARK  status: ('A' for Active; 'I' for Inactive)
REMARK    1  A    between atoms: O_3  and  C_28
REMARK    2  A    between atoms: O_3  and  C_30
REMARK    3  A    between atoms: O_12  and  C_33
REMARK    4  A    between atoms: O_12  and  C_40
REMARK    5  A    between atoms: O_17  and  C_52
REMARK    6  A    between atoms: C_19  and  C_24
REMARK    7  A    between atoms: C_23  and  C_31
REMARK    8  A    between atoms: C_29  and  C_33
REMARK    9  A    between atoms: C_39  and  C_41
REMARK   10  A    between atoms: C_40  and  C_42
REMARK   11  A    between atoms: C_47  and  C_49
REMARK                            x       y       z     vdW  Elec       q    Type
REMARK                         _______ _______ _______ _____ _____    ______ ____
ROOT
ATOM      1  O   UNL     1     109.152 128.308 138.335  0.00  0.00    +0.000 OA
ATOM      2  O   UNL     1     111.656 127.273 137.317  0.00  0.00    +0.000 OA
ATOM      3  O   UNL     1     109.322 126.880 138.218  0.00  0.00    +0.000 OA
ATOM      4  C   UNL     1     110.195 129.209 137.958  0.00  0.00    +0.000 A 
ATOM      5  C   UNL     1     110.954 129.341 137.665  0.00  0.00    +0.000 A 
ATOM      6  C   UNL     1     109.912 128.439 138.041  0.00  0.00    +0.000 A 
ATOM      7  C   UNL     1     111.432 128.701 137.455  0.00  0.00    +0.000 A 
ATOM      8  C   UNL     1     110.389 127.800 137.832  0.00  0.00    +0.000 A 
ATOM      9  C   UNL     1     111.149 127.930 137.539  0.00  0.00    +0.000 A 
ATOM     10  C   UNL     1     110.084 127.002 137.924  0.00  0.00    +0.000 A 
ATOM     11  C   UNL     1     110.576 126.331 137.707  0.00  0.00    +0.000 A 
ATOM     12  C   UNL     1     111.367 126.468 137.402  0.00  0.00    +0.000 A 
ENDROOT
BRANCH   4  17
ATOM     13  O   UNL     1     109.733 130.140 138.939  0.00  0.00    +0.000 OA
ATOM     14  O   UNL     1     109.209 129.906 136.833  0.00  0.00    +0.000 OA
ATOM     15  O   UNL     1     108.254 131.185 137.253  0.00  0.00    +0.000 OA
ATOM     16  O   UNL     1     108.286 131.767 138.796  0.00  0.00    +0.000 OA
ATOM     17  C   UNL     1     109.717 129.849 138.167  0.00  0.00    +0.000 C 
ATOM     18  C   UNL     1     109.224 130.198 137.605  0.00  0.00    +0.000 C 
ATOM     19  C   UNL     1     108.747 130.837 137.815  0.00  0.00    +0.000 C 
ATOM     20  C   UNL     1     108.763 131.128 138.587  0.00  0.00    +0.000 C 
ATOM     21  C   UNL     1     109.256 130.780 139.149  0.00  0.00    +0.000 C 
BRANCH  21  23
ATOM     22  O   UNL     1     109.993 131.153 140.315  0.00  0.00    +0.000 OA
ATOM     23  C   UNL     1     109.272 131.070 139.921  0.00  0.00    +0.000 C 
ENDBRANCH  21  23
ENDBRANCH   4  17
BRANCH  12  25
ATOM     24  O   UNL     1     113.285 123.918 136.560  0.00  0.00    +0.000 OA
ATOM     25  C   UNL     1     111.847 125.831 137.192  0.00  0.00    +0.000 A 
ATOM     26  C   UNL     1     111.683 125.399 136.508  0.00  0.00    +0.000 A 
ATOM     27  C   UNL     1     112.491 125.625 137.665  0.00  0.00    +0.000 A 
ATOM     28  C   UNL     1     112.161 124.761 136.297  0.00  0.00    +0.000 A 
ATOM     29  C   UNL     1     112.970 124.986 137.454  0.00  0.00    +0.000 A 
ATOM     30  C   UNL     1     112.805 124.556 136.771  0.00  0.00    +0.000 A 
ENDBRANCH  12  25
BRANCH   5  31
ATOM     31  O   UNL     1     111.237 130.112 137.581  0.00  0.00    +0.000 OA
BRANCH  31  39
ATOM     32  O   UNL     1     112.374 130.046 138.443  0.00  0.00    +0.000 OA
ATOM     33  O   UNL     1     113.727 131.241 136.750  0.00  0.00    +0.000 OA
ATOM     34  O   UNL     1     112.139 130.909 136.452  0.00  0.00    +0.000 OA
ATOM     35  O   UNL     1     114.414 130.777 138.177  0.00  0.00    +0.000 OA
ATOM     36  C   UNL     1     113.276 130.843 137.315  0.00  0.00    +0.000 C 
ATOM     37  C   UNL     1     112.482 130.676 137.166  0.00  0.00    +0.000 C 
ATOM     38  C   UNL     1     113.620 130.610 138.029  0.00  0.00    +0.000 C 
ATOM     39  C   UNL     1     112.031 130.278 137.731  0.00  0.00    +0.000 C 
ATOM     40  C   UNL     1     113.169 130.212 138.593  0.00  0.00    +0.000 C 
BRANCH  40  41
ATOM     41  C   UNL     1     113.512 129.980 139.306  0.00  0.00    +0.000 C 
BRANCH  41  42
ATOM     42  O   UNL     1     113.058 129.956 139.994  0.00  0.00    +0.000 OA
BRANCH  42  44
ATOM     43  O   UNL     1     113.838 129.573 141.128  0.00  0.00    +0.000 OA
ATOM     44  C   UNL     1     113.237 129.411 140.587  0.00  0.00    +0.000 C 
BRANCH  44  45
ATOM     45  C   UNL     1     112.814 128.705 140.641  0.00  0.00    +0.000 C 
ATOM     46  C   UNL     1     112.241 128.609 141.226  0.00  0.00    +0.000 C 
BRANCH  46  48
ATOM     47  O   UNL     1     110.553 125.782 141.439  0.00  0.00    +0.000 OA
ATOM     48  C   UNL     1     111.819 127.903 141.280  0.00  0.00    +0.000 A 
ATOM     49  C   UNL     1     111.023 127.913 141.496  0.00  0.00    +0.000 A 
ATOM     50  C   UNL     1     112.192 127.186 141.116  0.00  0.00    +0.000 A 
ATOM     51  C   UNL     1     110.600 127.206 141.550  0.00  0.00    +0.000 A 
ATOM     52  C   UNL     1     111.771 126.478 141.169  0.00  0.00    +0.000 A 
ATOM     53  C   UNL     1     110.974 126.489 141.386  0.00  0.00    +0.000 A 
BRANCH  51  54
ATOM     54  O   UNL     1     109.805 127.216 141.766  0.00  0.00    +0.000 OA
ATOM     55  C   UNL     1     109.405 127.934 141.833  0.00  0.00    +0.000 C 
ENDBRANCH  51  54
ENDBRANCH  46  48
ENDBRANCH  44  45
ENDBRANCH  42  44
ENDBRANCH  41  42
ENDBRANCH  40  41
ENDBRANCH  31  39
ENDBRANCH   5  31
TORSDOF 11
ENDMDL
MODEL 5
REMARK VINA RESULT:      -9.9      1.702      4.864
REMARK  Name = 44257784
REMARK  11 active torsions:
REMARK  status: ('A' for Active; 'I' for Inactive)
REMARK    1  A    between atoms: O_3  and  C_28
REMARK    2  A    between atoms: O_3  and  C_30
REMARK    3  A    between atoms: O_12  and  C_33
REMARK    4  A    between atoms: O_12  and  C_40
REMARK    5  A    between atoms: O_17  and  C_52
REMARK    6  A    between atoms: C_19  and  C_24
REMARK    7  A    between atoms: C_23  and  C_31
REMARK    8  A    between atoms: C_29  and  C_33
REMARK    9  A    between atoms: C_39  and  C_41
REMARK   10  A    between atoms: C_40  and  C_42
REMARK   11  A    between atoms: C_47  and  C_49
REMARK                            x       y       z     vdW  Elec       q    Type
REMARK                         _______ _______ _______ _____ _____    ______ ____
ROOT
ATOM      1  O   UNL     1     112.076 125.768 139.080  0.00  0.00    +0.000 OA
ATOM      2  O   UNL     1     113.173 128.439 139.285  0.00  0.00    +0.000 OA
ATOM      3  O   UNL     1     112.028 126.449 140.352  0.00  0.00    +0.000 OA
ATOM      4  C   UNL     1     112.653 126.391 137.931  0.00  0.00    +0.000 A 
ATOM      5  C   UNL     1     113.026 127.038 137.580  0.00  0.00    +0.000 A 
ATOM      6  C   UNL     1     112.449 126.416 138.730  0.00  0.00    +0.000 A 
ATOM      7  C   UNL     1     113.195 127.710 138.030  0.00  0.00    +0.000 A 
ATOM      8  C   UNL     1     112.618 127.087 139.178  0.00  0.00    +0.000 A 
ATOM      9  C   UNL     1     112.991 127.734 138.829  0.00  0.00    +0.000 A 
ATOM     10  C   UNL     1     112.401 127.100 140.009  0.00  0.00    +0.000 A 
ATOM     11  C   UNL     1     112.574 127.796 140.483  0.00  0.00    +0.000 A 
ATOM     12  C   UNL     1     112.963 128.470 140.117  0.00  0.00    +0.000 A 
ENDROOT
BRANCH   4  17
ATOM     13  O   UNL     1     111.777 125.675 137.058  0.00  0.00    +0.000 OA
ATOM     14  O   UNL     1     113.726 125.139 137.882  0.00  0.00    +0.000 OA
ATOM     15  O   UNL     1     113.387 123.797 136.985  0.00  0.00    +0.000 OA
ATOM     16  O   UNL     1     111.975 123.707 136.136  0.00  0.00    +0.000 OA
ATOM     17  C   UNL     1     112.483 125.720 137.482  0.00  0.00    +0.000 C 
ATOM     18  C   UNL     1     113.020 125.094 137.458  0.00  0.00    +0.000 C 
ATOM     19  C   UNL     1     112.851 124.423 137.009  0.00  0.00    +0.000 C 
ATOM     20  C   UNL     1     112.145 124.377 136.584  0.00  0.00    +0.000 C 
ATOM     21  C   UNL     1     111.608 125.003 136.609  0.00  0.00    +0.000 C 
BRANCH  21  23
ATOM     22  O   UNL     1     110.407 125.618 136.138  0.00  0.00    +0.000 OA
ATOM     23  C   UNL     1     110.902 124.959 136.185  0.00  0.00    +0.000 C 
ENDBRANCH  21  23
ENDBRANCH   4  17
BRANCH  12  25
ATOM     24  O   UNL     1     113.644 131.160 141.903  0.00  0.00    +0.000 OA
ATOM     25  C   UNL     1     113.133 129.143 140.564  0.00  0.00    +0.000 A 
ATOM     26  C   UNL     1     112.830 129.219 141.327  0.00  0.00    +0.000 A 
ATOM     27  C   UNL     1     113.608 129.739 140.247  0.00  0.00    +0.000 A 
ATOM     28  C   UNL     1     113.000 129.891 141.774  0.00  0.00    +0.000 A 
ATOM     29  C   UNL     1     113.778 130.412 140.694  0.00  0.00    +0.000 A 
ATOM     30  C   UNL     1     113.474 130.487 141.457  0.00  0.00    +0.000 A 
ENDBRANCH  12  25
BRANCH   5  31
ATOM     31  O   UNL     1     113.230 127.014 136.781  0.00  0.00    +0.000 OA
BRANCH  31  39
ATOM     32  O   UNL     1     112.609 128.218 136.328  0.00  0.00    +0.000 OA
ATOM     33  O   UNL     1     114.650 128.791 135.052  0.00  0.00    +0.000 OA
ATOM     34  O   UNL     1     114.591 127.395 135.930  0.00  0.00    +0.000 OA
ATOM     35  O   UNL     1     113.349 129.805 135.024  0.00  0.00    +0.000 OA
ATOM     36  C   UNL     1     113.970 128.600 135.477  0.00  0.00    +0.000 C 
ATOM     37  C   UNL     1     113.939 127.903 135.917  0.00  0.00    +0.000 C 
ATOM     38  C   UNL     1     113.318 129.107 135.464  0.00  0.00    +0.000 C 
ATOM     39  C   UNL     1     113.259 127.712 136.342  0.00  0.00    +0.000 C 
ATOM     40  C   UNL     1     112.638 128.916 135.889  0.00  0.00    +0.000 C 
BRANCH  40  41
ATOM     41  C   UNL     1     111.988 129.423 135.875  0.00  0.00    +0.000 C 
BRANCH  41  42
ATOM     42  O   UNL     1     111.354 129.297 136.389  0.00  0.00    +0.000 OA
BRANCH  42  44
ATOM     43  O   UNL     1     110.323 130.168 135.921  0.00  0.00    +0.000 OA
ATOM     44  C   UNL     1     110.811 129.900 136.530  0.00  0.00    +0.000 C 
BRANCH  44  45
ATOM     45  C   UNL     1     110.754 130.237 137.281  0.00  0.00    +0.000 C 
ATOM     46  C   UNL     1     110.138 130.023 137.785  0.00  0.00    +0.000 C 
BRANCH  46  48
ATOM     47  O   UNL     1     109.912 131.373 140.788  0.00  0.00    +0.000 OA
ATOM     48  C   UNL     1     110.081 130.360 138.536  0.00  0.00    +0.000 A 
ATOM     49  C   UNL     1     109.756 129.928 139.159  0.00  0.00    +0.000 A 
ATOM     50  C   UNL     1     110.350 131.129 138.664  0.00  0.00    +0.000 A 
ATOM     51  C   UNL     1     109.699 130.265 139.910  0.00  0.00    +0.000 A 
ATOM     52  C   UNL     1     110.294 131.467 139.414  0.00  0.00    +0.000 A 
ATOM     53  C   UNL     1     109.968 131.035 140.038  0.00  0.00    +0.000 A 
BRANCH  51  54
ATOM     54  O   UNL     1     109.374 129.834 140.533  0.00  0.00    +0.000 OA
ATOM     55  C   UNL     1     109.157 129.046 140.419  0.00  0.00    +0.000 C 
ENDBRANCH  51  54
ENDBRANCH  46  48
ENDBRANCH  44  45
ENDBRANCH  42  44
ENDBRANCH  41  42
ENDBRANCH  40  41
ENDBRANCH  31  39
ENDBRANCH   5  31
TORSDOF 11
ENDMDL
MODEL 6
REMARK VINA RESULT:      -9.8      2.192      5.260
REMARK  Name = 44257784
REMARK  11 active torsions:
REMARK  status: ('A' for Active; 'I' for Inactive)
REMARK    1  A    between atoms: O_3  and  C_28
REMARK    2  A    between atoms: O_3  and  C_30
REMARK    3  A    between atoms: O_12  and  C_33
REMARK    4  A    between atoms: O_12  and  C_40
REMARK    5  A    between atoms: O_17  and  C_52
REMARK    6  A    between atoms: C_19  and  C_24
REMARK    7  A    between atoms: C_23  and  C_31
REMARK    8  A    between atoms: C_29  and  C_33
REMARK    9  A    between atoms: C_39  and  C_41
REMARK   10  A    between atoms: C_40  and  C_42
REMARK   11  A    between atoms: C_47  and  C_49
REMARK                            x       y       z     vdW  Elec       q    Type
REMARK                         _______ _______ _______ _____ _____    ______ ____
ROOT
ATOM      1  O   UNL     1     110.146 126.996 136.988  0.00  0.00    +0.000 OA
ATOM      2  O   UNL     1     110.285 129.651 135.842  0.00  0.00    +0.000 OA
ATOM      3  O   UNL     1     108.925 127.744 136.803  0.00  0.00    +0.000 OA
ATOM      4  C   UNL     1     111.411 127.546 136.616  0.00  0.00    +0.000 A 
ATOM      5  C   UNL     1     111.857 128.165 136.303  0.00  0.00    +0.000 A 
ATOM      6  C   UNL     1     110.591 127.617 136.675  0.00  0.00    +0.000 A 
ATOM      7  C   UNL     1     111.483 128.856 136.050  0.00  0.00    +0.000 A 
ATOM      8  C   UNL     1     110.218 128.307 136.422  0.00  0.00    +0.000 A 
ATOM      9  C   UNL     1     110.663 128.927 136.110  0.00  0.00    +0.000 A 
ATOM     10  C   UNL     1     109.363 128.368 136.489  0.00  0.00    +0.000 A 
ATOM     11  C   UNL     1     108.967 129.085 136.228  0.00  0.00    +0.000 A 
ATOM     12  C   UNL     1     109.432 129.731 135.902  0.00  0.00    +0.000 A 
ENDROOT
BRANCH   4  17
ATOM     13  O   UNL     1     112.066 126.799 137.643  0.00  0.00    +0.000 OA
ATOM     14  O   UNL     1     111.598 126.280 135.575  0.00  0.00    +0.000 OA
ATOM     15  O   UNL     1     112.346 124.899 136.081  0.00  0.00    +0.000 OA
ATOM     16  O   UNL     1     112.908 124.785 137.629  0.00  0.00    +0.000 OA
ATOM     17  C   UNL     1     111.785 126.855 136.869  0.00  0.00    +0.000 C 
ATOM     18  C   UNL     1     111.879 126.222 136.349  0.00  0.00    +0.000 C 
ATOM     19  C   UNL     1     112.253 125.532 136.602  0.00  0.00    +0.000 C 
ATOM     20  C   UNL     1     112.534 125.474 137.375  0.00  0.00    +0.000 C 
ATOM     21  C   UNL     1     112.440 126.108 137.896  0.00  0.00    +0.000 C 
BRANCH  21  23
ATOM     22  O   UNL     1     112.491 126.609 139.233  0.00  0.00    +0.000 OA
ATOM     23  C   UNL     1     112.721 126.051 138.670  0.00  0.00    +0.000 C 
ENDBRANCH  21  23
ENDBRANCH   4  17
BRANCH  12  25
ATOM     24  O   UNL     1     107.946 132.497 134.888  0.00  0.00    +0.000 OA
ATOM     25  C   UNL     1     109.061 130.422 135.648  0.00  0.00    +0.000 A 
ATOM     26  C   UNL     1     108.607 130.865 136.177  0.00  0.00    +0.000 A 
ATOM     27  C   UNL     1     109.143 130.671 134.866  0.00  0.00    +0.000 A 
ATOM     28  C   UNL     1     108.236 131.556 135.924  0.00  0.00    +0.000 A 
ATOM     29  C   UNL     1     108.771 131.364 134.612  0.00  0.00    +0.000 A 
ATOM     30  C   UNL     1     108.318 131.805 135.141  0.00  0.00    +0.000 A 
ENDBRANCH  12  25
BRANCH   5  31
ATOM     31  O   UNL     1     112.677 128.095 136.244  0.00  0.00    +0.000 OA
BRANCH  31  39
ATOM     32  O   UNL     1     113.080 129.177 137.086  0.00  0.00    +0.000 OA
ATOM     33  O   UNL     1     114.761 129.861 135.404  0.00  0.00    +0.000 OA
ATOM     34  O   UNL     1     113.798 128.551 135.122  0.00  0.00    +0.000 OA
ATOM     35  O   UNL     1     114.603 130.715 136.807  0.00  0.00    +0.000 OA
ATOM     36  C   UNL     1     114.201 129.633 135.965  0.00  0.00    +0.000 C 
ATOM     37  C   UNL     1     113.719 128.978 135.824  0.00  0.00    +0.000 C 
ATOM     38  C   UNL     1     114.121 130.060 136.667  0.00  0.00    +0.000 C 
ATOM     39  C   UNL     1     113.158 128.750 136.385  0.00  0.00    +0.000 C 
ATOM     40  C   UNL     1     113.561 129.832 137.227  0.00  0.00    +0.000 C 
BRANCH  40  41
ATOM     41  C   UNL     1     113.482 130.259 137.928  0.00  0.00    +0.000 C 
BRANCH  41  42
ATOM     42  O   UNL     1     113.137 129.907 138.590  0.00  0.00    +0.000 OA
BRANCH  42  44
ATOM     43  O   UNL     1     113.195 130.804 139.699  0.00  0.00    +0.000 OA
ATOM     44  C   UNL     1     112.754 130.372 139.153  0.00  0.00    +0.000 C 
BRANCH  44  45
ATOM     45  C   UNL     1     111.930 130.404 139.169  0.00  0.00    +0.000 C 
ATOM     46  C   UNL     1     111.512 129.999 139.753  0.00  0.00    +0.000 C 
BRANCH  46  48
ATOM     47  O   UNL     1     108.215 130.133 139.820  0.00  0.00    +0.000 OA
ATOM     48  C   UNL     1     110.688 130.032 139.770  0.00  0.00    +0.000 A 
ATOM     49  C   UNL     1     110.249 129.343 139.885  0.00  0.00    +0.000 A 
ATOM     50  C   UNL     1     110.302 130.755 139.672  0.00  0.00    +0.000 A 
ATOM     51  C   UNL     1     109.425 129.376 139.902  0.00  0.00    +0.000 A 
ATOM     52  C   UNL     1     109.478 130.789 139.688  0.00  0.00    +0.000 A 
ATOM     53  C   UNL     1     109.039 130.099 139.803  0.00  0.00    +0.000 A 
BRANCH  51  54
ATOM     54  O   UNL     1     108.986 128.688 140.017  0.00  0.00    +0.000 OA
ATOM     55  C   UNL     1     109.339 128.028 140.365  0.00  0.00    +0.000 C 
ENDBRANCH  51  54
ENDBRANCH  46  48
ENDBRANCH  44  45
ENDBRANCH  42  44
ENDBRANCH  41  42
ENDBRANCH  40  41
ENDBRANCH  31  39
ENDBRANCH   5  31
TORSDOF 11
ENDMDL
MODEL 7
REMARK VINA RESULT:      -9.8      2.055      4.358
REMARK  Name = 44257784
REMARK  11 active torsions:
REMARK  status: ('A' for Active; 'I' for Inactive)
REMARK    1  A    between atoms: O_3  and  C_28
REMARK    2  A    between atoms: O_3  and  C_30
REMARK    3  A    between atoms: O_12  and  C_33
REMARK    4  A    between atoms: O_12  and  C_40
REMARK    5  A    between atoms: O_17  and  C_52
REMARK    6  A    between atoms: C_19  and  C_24
REMARK    7  A    between atoms: C_23  and  C_31
REMARK    8  A    between atoms: C_29  and  C_33
REMARK    9  A    between atoms: C_39  and  C_41
REMARK   10  A    between atoms: C_40  and  C_42
REMARK   11  A    between atoms: C_47  and  C_49
REMARK                            x       y       z     vdW  Elec       q    Type
REMARK                         _______ _______ _______ _____ _____    ______ ____
ROOT
ATOM      1  O   UNL     1     112.985 128.596 138.580  0.00  0.00    +0.000 OA
ATOM      2  O   UNL     1     110.268 127.852 139.249  0.00  0.00    +0.000 OA
ATOM      3  O   UNL     1     112.765 127.558 139.559  0.00  0.00    +0.000 OA
ATOM      4  C   UNL     1     111.889 129.254 137.943  0.00  0.00    +0.000 A 
ATOM      5  C   UNL     1     111.076 129.353 137.840  0.00  0.00    +0.000 A 
ATOM      6  C   UNL     1     112.172 128.693 138.478  0.00  0.00    +0.000 A 
ATOM      7  C   UNL     1     110.547 128.889 138.271  0.00  0.00    +0.000 A 
ATOM      8  C   UNL     1     111.643 128.231 138.908  0.00  0.00    +0.000 A 
ATOM      9  C   UNL     1     110.830 128.328 138.806  0.00  0.00    +0.000 A 
ATOM     10  C   UNL     1     111.950 127.650 139.462  0.00  0.00    +0.000 A 
ATOM     11  C   UNL     1     111.404 127.164 139.914  0.00  0.00    +0.000 A 
ATOM     12  C   UNL     1     110.558 127.266 139.807  0.00  0.00    +0.000 A 
ENDROOT
BRANCH   4  17
ATOM     13  O   UNL     1     112.679 129.464 136.771  0.00  0.00    +0.000 OA
ATOM     14  O   UNL     1     112.424 130.688 138.561  0.00  0.00    +0.000 OA
ATOM     15  O   UNL     1     113.482 131.614 137.698  0.00  0.00    +0.000 OA
ATOM     16  O   UNL     1     114.005 131.107 136.217  0.00  0.00    +0.000 OA
ATOM     17  C   UNL     1     112.418 129.718 137.511  0.00  0.00    +0.000 C 
ATOM     18  C   UNL     1     112.686 130.435 137.820  0.00  0.00    +0.000 C 
ATOM     19  C   UNL     1     113.215 130.897 137.389  0.00  0.00    +0.000 C 
ATOM     20  C   UNL     1     113.476 130.644 136.649  0.00  0.00    +0.000 C 
ATOM     21  C   UNL     1     113.209 129.928 136.340  0.00  0.00    +0.000 C 
BRANCH  21  23
ATOM     22  O   UNL     1     113.064 129.073 135.203  0.00  0.00    +0.000 OA
ATOM     23  C   UNL     1     113.470 129.673 135.600  0.00  0.00    +0.000 C 
ENDBRANCH  21  23
ENDBRANCH   4  17
BRANCH  12  25
ATOM     24  O   UNL     1     108.432 125.419 141.527  0.00  0.00    +0.000 OA
ATOM     25  C   UNL     1     110.026 126.804 140.237  0.00  0.00    +0.000 A 
ATOM     26  C   UNL     1     109.737 127.074 140.961  0.00  0.00    +0.000 A 
ATOM     27  C   UNL     1     109.784 126.073 139.943  0.00  0.00    +0.000 A 
ATOM     28  C   UNL     1     109.206 126.613 141.391  0.00  0.00    +0.000 A 
ATOM     29  C   UNL     1     109.251 125.611 140.373  0.00  0.00    +0.000 A 
ATOM     30  C   UNL     1     108.963 125.881 141.097  0.00  0.00    +0.000 A 
ENDBRANCH  12  25
BRANCH   5  31
ATOM     31  O   UNL     1     110.793 129.914 137.305  0.00  0.00    +0.000 OA
BRANCH  31  39
ATOM     32  O   UNL     1     110.021 129.072 136.445  0.00  0.00    +0.000 OA
ATOM     33  O   UNL     1     108.174 130.719 136.493  0.00  0.00    +0.000 OA
ATOM     34  O   UNL     1     109.561 131.011 137.337  0.00  0.00    +0.000 OA
ATOM     35  O   UNL     1     108.018 129.329 135.617  0.00  0.00    +0.000 OA
ATOM     36  C   UNL     1     108.790 130.170 136.477  0.00  0.00    +0.000 C 
ATOM     37  C   UNL     1     109.483 130.315 136.899  0.00  0.00    +0.000 C 
ATOM     38  C   UNL     1     108.712 129.474 136.039  0.00  0.00    +0.000 C 
ATOM     39  C   UNL     1     110.099 129.767 136.883  0.00  0.00    +0.000 C 
ATOM     40  C   UNL     1     109.328 128.926 136.023  0.00  0.00    +0.000 C 
BRANCH  40  41
ATOM     41  C   UNL     1     109.250 128.231 135.586  0.00  0.00    +0.000 C 
BRANCH  41  42
ATOM     42  O   UNL     1     109.922 127.827 135.329  0.00  0.00    +0.000 OA
BRANCH  42  44
ATOM     43  O   UNL     1     109.467 126.678 134.613  0.00  0.00    +0.000 OA
ATOM     44  C   UNL     1     109.899 127.008 135.233  0.00  0.00    +0.000 C 
BRANCH  44  45
ATOM     45  C   UNL     1     110.308 126.519 135.757  0.00  0.00    +0.000 C 
ATOM     46  C   UNL     1     111.057 126.237 135.559  0.00  0.00    +0.000 C 
BRANCH  46  48
ATOM     47  O   UNL     1     112.689 124.279 137.656  0.00  0.00    +0.000 OA
ATOM     48  C   UNL     1     111.466 125.747 136.083  0.00  0.00    +0.000 A 
ATOM     49  C   UNL     1     112.288 125.780 136.122  0.00  0.00    +0.000 A 
ATOM     50  C   UNL     1     111.050 125.225 136.569  0.00  0.00    +0.000 A 
ATOM     51  C   UNL     1     112.697 125.291 136.646  0.00  0.00    +0.000 A 
ATOM     52  C   UNL     1     111.458 124.736 137.093  0.00  0.00    +0.000 A 
ATOM     53  C   UNL     1     112.282 124.769 137.132  0.00  0.00    +0.000 A 
BRANCH  51  54
ATOM     54  O   UNL     1     113.520 125.324 136.685  0.00  0.00    +0.000 OA
ATOM     55  C   UNL     1     113.911 126.037 136.548  0.00  0.00    +0.000 C 
ENDBRANCH  51  54
ENDBRANCH  46  48
ENDBRANCH  44  45
ENDBRANCH  42  44
ENDBRANCH  41  42
ENDBRANCH  40  41
ENDBRANCH  31  39
ENDBRANCH   5  31
TORSDOF 11
ENDMDL
MODEL 8
REMARK VINA RESULT:      -9.6      1.662      4.391
REMARK  Name = 44257784
REMARK  11 active torsions:
REMARK  status: ('A' for Active; 'I' for Inactive)
REMARK    1  A    between atoms: O_3  and  C_28
REMARK    2  A    between atoms: O_3  and  C_30
REMARK    3  A    between atoms: O_12  and  C_33
REMARK    4  A    between atoms: O_12  and  C_40
REMARK    5  A    between atoms: O_17  and  C_52
REMARK    6  A    between atoms: C_19  and  C_24
REMARK    7  A    between atoms: C_23  and  C_31
REMARK    8  A    between atoms: C_29  and  C_33
REMARK    9  A    between atoms: C_39  and  C_41
REMARK   10  A    between atoms: C_40  and  C_42
REMARK   11  A    between atoms: C_47  and  C_49
REMARK                            x       y       z     vdW  Elec       q    Type
REMARK                         _______ _______ _______ _____ _____    ______ ____
ROOT
ATOM      1  O   UNL     1     112.188 126.951 138.340  0.00  0.00    +0.000 OA
ATOM      2  O   UNL     1     112.850 129.682 139.033  0.00  0.00    +0.000 OA
ATOM      3  O   UNL     1     113.140 127.193 139.398  0.00  0.00    +0.000 OA
ATOM      4  C   UNL     1     111.574 128.033 137.638  0.00  0.00    +0.000 A 
ATOM      5  C   UNL     1     111.477 128.843 137.516  0.00  0.00    +0.000 A 
ATOM      6  C   UNL     1     112.092 127.762 138.220  0.00  0.00    +0.000 A 
ATOM      7  C   UNL     1     111.899 129.382 137.978  0.00  0.00    +0.000 A 
ATOM      8  C   UNL     1     112.513 128.300 138.680  0.00  0.00    +0.000 A 
ATOM      9  C   UNL     1     112.417 129.111 138.560  0.00  0.00    +0.000 A 
ATOM     10  C   UNL     1     113.049 128.005 139.283  0.00  0.00    +0.000 A 
ATOM     11  C   UNL     1     113.492 128.561 139.767  0.00  0.00    +0.000 A 
ATOM     12  C   UNL     1     113.391 129.405 139.641  0.00  0.00    +0.000 A 
ENDROOT
BRANCH   4  17
ATOM     13  O   UNL     1     110.403 127.245 137.415  0.00  0.00    +0.000 OA
ATOM     14  O   UNL     1     112.230 127.454 136.239  0.00  0.00    +0.000 OA
ATOM     15  O   UNL     1     111.386 126.376 135.317  0.00  0.00    +0.000 OA
ATOM     16  O   UNL     1     109.887 125.878 135.794  0.00  0.00    +0.000 OA
ATOM     17  C   UNL     1     111.152 127.494 137.176  0.00  0.00    +0.000 C 
ATOM     18  C   UNL     1     111.480 127.204 136.477  0.00  0.00    +0.000 C 
ATOM     19  C   UNL     1     111.058 126.666 136.016  0.00  0.00    +0.000 C 
ATOM     20  C   UNL     1     110.309 126.416 136.254  0.00  0.00    +0.000 C 
ATOM     21  C   UNL     1     109.981 126.706 136.954  0.00  0.00    +0.000 C 
BRANCH  21  23
ATOM     22  O   UNL     1     108.938 126.684 137.930  0.00  0.00    +0.000 OA
ATOM     23  C   UNL     1     109.231 126.458 137.193  0.00  0.00    +0.000 C 
ENDBRANCH  21  23
ENDBRANCH   4  17
BRANCH  12  25
ATOM     24  O   UNL     1     115.073 131.570 141.478  0.00  0.00    +0.000 OA
ATOM     25  C   UNL     1     113.811 129.946 140.100  0.00  0.00    +0.000 A 
ATOM     26  C   UNL     1     114.508 130.280 139.811  0.00  0.00    +0.000 A 
ATOM     27  C   UNL     1     113.535 130.154 140.850  0.00  0.00    +0.000 A 
ATOM     28  C   UNL     1     114.929 130.821 140.270  0.00  0.00    +0.000 A 
ATOM     29  C   UNL     1     113.956 130.695 141.309  0.00  0.00    +0.000 A 
ATOM     30  C   UNL     1     114.652 131.028 141.019  0.00  0.00    +0.000 A 
ENDBRANCH  12  25
BRANCH   5  31
ATOM     31  O   UNL     1     110.959 129.115 136.934  0.00  0.00    +0.000 OA
BRANCH  31  39
ATOM     32  O   UNL     1     110.051 129.871 137.737  0.00  0.00    +0.000 OA
ATOM     33  O   UNL     1     110.138 131.719 136.093  0.00  0.00    +0.000 OA
ATOM     34  O   UNL     1     111.018 130.347 135.838  0.00  0.00    +0.000 OA
ATOM     35  O   UNL     1     109.200 131.860 137.443  0.00  0.00    +0.000 OA
ATOM     36  C   UNL     1     110.109 131.103 136.641  0.00  0.00    +0.000 C 
ATOM     37  C   UNL     1     110.548 130.417 136.514  0.00  0.00    +0.000 C 
ATOM     38  C   UNL     1     109.640 131.174 137.317  0.00  0.00    +0.000 C 
ATOM     39  C   UNL     1     110.519 129.801 137.062  0.00  0.00    +0.000 C 
ATOM     40  C   UNL     1     109.611 130.558 137.865  0.00  0.00    +0.000 C 
BRANCH  40  41
ATOM     41  C   UNL     1     109.142 130.628 138.539  0.00  0.00    +0.000 C 
BRANCH  41  42
ATOM     42  O   UNL     1     108.891 129.952 138.941  0.00  0.00    +0.000 OA
BRANCH  42  44
ATOM     43  O   UNL     1     108.034 130.305 140.027  0.00  0.00    +0.000 OA
ATOM     44  C   UNL     1     108.742 129.985 139.751  0.00  0.00    +0.000 C 
BRANCH  44  45
ATOM     45  C   UNL     1     109.300 129.697 140.286  0.00  0.00    +0.000 C 
ATOM     46  C   UNL     1     109.150 129.004 140.707  0.00  0.00    +0.000 C 
BRANCH  46  48
ATOM     47  O   UNL     1     111.383 127.855 142.848  0.00  0.00    +0.000 OA
ATOM     48  C   UNL     1     109.708 128.716 141.242  0.00  0.00    +0.000 A 
ATOM     49  C   UNL     1     109.908 127.916 141.240  0.00  0.00    +0.000 A 
ATOM     50  C   UNL     1     110.067 129.229 141.779  0.00  0.00    +0.000 A 
ATOM     51  C   UNL     1     110.467 127.628 141.775  0.00  0.00    +0.000 A 
ATOM     52  C   UNL     1     110.625 128.943 142.315  0.00  0.00    +0.000 A 
ATOM     53  C   UNL     1     110.825 128.141 142.312  0.00  0.00    +0.000 A 
BRANCH  51  54
ATOM     54  O   UNL     1     110.666 126.828 141.773  0.00  0.00    +0.000 OA
ATOM     55  C   UNL     1     110.324 126.319 141.221  0.00  0.00    +0.000 C 
ENDBRANCH  51  54
ENDBRANCH  46  48
ENDBRANCH  44  45
ENDBRANCH  42  44
ENDBRANCH  41  42
ENDBRANCH  40  41
ENDBRANCH  31  39
ENDBRANCH   5  31
TORSDOF 11
ENDMDL
MODEL 9
REMARK VINA RESULT:      -9.6      2.355      3.942
REMARK  Name = 44257784
REMARK  11 active torsions:
REMARK  status: ('A' for Active; 'I' for Inactive)
REMARK    1  A    between atoms: O_3  and  C_28
REMARK    2  A    between atoms: O_3  and  C_30
REMARK    3  A    between atoms: O_12  and  C_33
REMARK    4  A    between atoms: O_12  and  C_40
REMARK    5  A    between atoms: O_17  and  C_52
REMARK    6  A    between atoms: C_19  and  C_24
REMARK    7  A    between atoms: C_23  and  C_31
REMARK    8  A    between atoms: C_29  and  C_33
REMARK    9  A    between atoms: C_39  and  C_41
REMARK   10  A    between atoms: C_40  and  C_42
REMARK   11  A    between atoms: C_47  and  C_49
REMARK                            x       y       z     vdW  Elec       q    Type
REMARK                         _______ _______ _______ _____ _____    ______ ____
ROOT
ATOM      1  O   UNL     1     111.569 129.330 139.970  0.00  0.00    +0.000 OA
ATOM      2  O   UNL     1     112.255 129.800 137.197  0.00  0.00    +0.000 OA
ATOM      3  O   UNL     1     112.717 128.659 139.410  0.00  0.00    +0.000 OA
ATOM      4  C   UNL     1     110.774 130.216 139.180  0.00  0.00    +0.000 A 
ATOM      5  C   UNL     1     110.620 130.589 138.461  0.00  0.00    +0.000 A 
ATOM      6  C   UNL     1     111.416 129.703 139.250  0.00  0.00    +0.000 A 
ATOM      7  C   UNL     1     111.110 130.450 137.811  0.00  0.00    +0.000 A 
ATOM      8  C   UNL     1     111.905 129.564 138.601  0.00  0.00    +0.000 A 
ATOM      9  C   UNL     1     111.752 129.937 137.881  0.00  0.00    +0.000 A 
ATOM     10  C   UNL     1     112.571 129.028 138.687  0.00  0.00    +0.000 A 
ATOM     11  C   UNL     1     113.085 128.878 138.014  0.00  0.00    +0.000 A 
ATOM     12  C   UNL     1     112.925 129.267 137.265  0.00  0.00    +0.000 A 
ENDROOT
BRANCH   4  17
ATOM     13  O   UNL     1     109.593 129.916 139.927  0.00  0.00    +0.000 OA
ATOM     14  O   UNL     1     111.178 131.374 140.284  0.00  0.00    +0.000 OA
ATOM     15  O   UNL     1     110.199 131.653 141.582  0.00  0.00    +0.000 OA
ATOM     16  O   UNL     1     108.816 130.774 141.777  0.00  0.00    +0.000 OA
ATOM     17  C   UNL     1     110.284 130.356 139.830  0.00  0.00    +0.000 C 
ATOM     18  C   UNL     1     110.486 130.935 140.382  0.00  0.00    +0.000 C 
ATOM     19  C   UNL     1     109.997 131.074 141.031  0.00  0.00    +0.000 C 
ATOM     20  C   UNL     1     109.305 130.635 141.129  0.00  0.00    +0.000 C 
ATOM     21  C   UNL     1     109.103 130.056 140.577  0.00  0.00    +0.000 C 
BRANCH  21  23
ATOM     22  O   UNL     1     108.402 128.815 140.474  0.00  0.00    +0.000 OA
ATOM     23  C   UNL     1     108.412 129.616 140.674  0.00  0.00    +0.000 C 
ENDBRANCH  21  23
ENDBRANCH   4  17
BRANCH  12  25
ATOM     24  O   UNL     1     114.875 128.715 134.660  0.00  0.00    +0.000 OA
ATOM     25  C   UNL     1     113.413 129.129 136.613  0.00  0.00    +0.000 A 
ATOM     26  C   UNL     1     113.346 128.424 136.190  0.00  0.00    +0.000 A 
ATOM     27  C   UNL     1     113.967 129.696 136.386  0.00  0.00    +0.000 A 
ATOM     28  C   UNL     1     113.833 128.286 135.539  0.00  0.00    +0.000 A 
ATOM     29  C   UNL     1     114.455 129.558 135.734  0.00  0.00    +0.000 A 
ATOM     30  C   UNL     1     114.387 128.853 135.311  0.00  0.00    +0.000 A 
ENDBRANCH  12  25
BRANCH   5  31
ATOM     31  O   UNL     1     109.978 131.102 138.391  0.00  0.00    +0.000 OA
BRANCH  31  39
ATOM     32  O   UNL     1     109.311 130.493 137.284  0.00  0.00    +0.000 OA
ATOM     33  O   UNL     1     108.929 132.724 136.284  0.00  0.00    +0.000 OA
ATOM     34  O   UNL     1     109.724 132.590 137.724  0.00  0.00    +0.000 OA
ATOM     35  O   UNL     1     108.389 131.371 135.510  0.00  0.00    +0.000 OA
ATOM     36  C   UNL     1     109.056 131.981 136.617  0.00  0.00    +0.000 C 
ATOM     37  C   UNL     1     109.453 131.913 137.337  0.00  0.00    +0.000 C 
ATOM     38  C   UNL     1     108.786 131.303 136.230  0.00  0.00    +0.000 C 
ATOM     39  C   UNL     1     109.580 131.169 137.670  0.00  0.00    +0.000 C 
ATOM     40  C   UNL     1     108.913 130.559 136.563  0.00  0.00    +0.000 C 
BRANCH  40  41
ATOM     41  C   UNL     1     108.643 129.883 136.177  0.00  0.00    +0.000 C 
BRANCH  41  42
ATOM     42  O   UNL     1     109.148 129.239 136.070  0.00  0.00    +0.000 OA
BRANCH  42  44
ATOM     43  O   UNL     1     108.028 128.414 135.745  0.00  0.00    +0.000 OA
ATOM     44  C   UNL     1     108.841 128.506 135.848  0.00  0.00    +0.000 C 
BRANCH  44  45
ATOM     45  C   UNL     1     109.347 127.865 135.729  0.00  0.00    +0.000 C 
ATOM     46  C   UNL     1     109.379 127.256 136.284  0.00  0.00    +0.000 C 
BRANCH  46  48
ATOM     47  O   UNL     1     111.400 124.692 135.806  0.00  0.00    +0.000 OA
ATOM     48  C   UNL     1     109.885 126.615 136.165  0.00  0.00    +0.000 A 
ATOM     49  C   UNL     1     110.423 126.399 136.751  0.00  0.00    +0.000 A 
ATOM     50  C   UNL     1     109.852 126.190 135.459  0.00  0.00    +0.000 A 
ATOM     51  C   UNL     1     110.929 125.758 136.632  0.00  0.00    +0.000 A 
ATOM     52  C   UNL     1     110.357 125.549 135.339  0.00  0.00    +0.000 A 
ATOM     53  C   UNL     1     110.895 125.333 135.926  0.00  0.00    +0.000 A 
BRANCH  51  54
ATOM     54  O   UNL     1     111.467 125.542 137.219  0.00  0.00    +0.000 OA
ATOM     55  C   UNL     1     111.229 125.520 138.008  0.00  0.00    +0.000 C 
ENDBRANCH  51  54
ENDBRANCH  46  48
ENDBRANCH  44  45
ENDBRANCH  42  44
ENDBRANCH  41  42
ENDBRANCH  40  41
ENDBRANCH  31  39
ENDBRANCH   5  31
TORSDOF 11
ENDMDL
MODEL 10
REMARK VINA RESULT:      -9.5      2.002      4.682
REMARK  Name = 44257784
REMARK  11 active torsions:
REMARK  status: ('A' for Active; 'I' for Inactive)
REMARK    1  A    between atoms: O_3  and  C_28
REMARK    2  A    between atoms: O_3  and  C_30
REMARK    3  A    between atoms: O_12  and  C_33
REMARK    4  A    between atoms: O_12  and  C_40
REMARK    5  A    between atoms: O_17  and  C_52
REMARK    6  A    between atoms: C_19  and  C_24
REMARK    7  A    between atoms: C_23  and  C_31
REMARK    8  A    between atoms: C_29  and  C_33
REMARK    9  A    between atoms: C_39  and  C_41
REMARK   10  A    between atoms: C_40  and  C_42
REMARK   11  A    between atoms: C_47  and  C_49
REMARK                            x       y       z     vdW  Elec       q    Type
REMARK                         _______ _______ _______ _____ _____    ______ ____
ROOT
ATOM      1  O   UNL     1     111.675 129.568 139.830  0.00  0.00    +0.000 OA
ATOM      2  O   UNL     1     113.027 128.801 137.388  0.00  0.00    +0.000 OA
ATOM      3  O   UNL     1     112.361 130.580 139.062  0.00  0.00    +0.000 OA
ATOM      4  C   UNL     1     111.656 128.205 139.403  0.00  0.00    +0.000 A 
ATOM      5  C   UNL     1     111.871 127.623 138.860  0.00  0.00    +0.000 A 
ATOM      6  C   UNL     1     111.891 128.987 139.286  0.00  0.00    +0.000 A 
ATOM      7  C   UNL     1     112.322 127.823 138.198  0.00  0.00    +0.000 A 
ATOM      8  C   UNL     1     112.342 129.187 138.625  0.00  0.00    +0.000 A 
ATOM      9  C   UNL     1     112.557 128.605 138.081  0.00  0.00    +0.000 A 
ATOM     10  C   UNL     1     112.581 130.004 138.513  0.00  0.00    +0.000 A 
ATOM     11  C   UNL     1     113.051 130.219 137.826  0.00  0.00    +0.000 A 
ATOM     12  C   UNL     1     113.275 129.613 137.260  0.00  0.00    +0.000 A 
ENDROOT
BRANCH   4  17
ATOM     13  O   UNL     1     110.381 128.012 140.019  0.00  0.00    +0.000 OA
ATOM     14  O   UNL     1     112.401 127.790 140.815  0.00  0.00    +0.000 OA
ATOM     15  O   UNL     1     111.499 127.389 142.138  0.00  0.00    +0.000 OA
ATOM     16  O   UNL     1     109.851 127.404 142.048  0.00  0.00    +0.000 OA
ATOM     17  C   UNL     1     111.204 128.004 140.065  0.00  0.00    +0.000 C 
ATOM     18  C   UNL     1     111.577 127.797 140.771  0.00  0.00    +0.000 C 
ATOM     19  C   UNL     1     111.126 127.597 141.432  0.00  0.00    +0.000 C 
ATOM     20  C   UNL     1     110.302 127.604 141.387  0.00  0.00    +0.000 C 
ATOM     21  C   UNL     1     109.930 127.812 140.681  0.00  0.00    +0.000 C 
BRANCH  21  23
ATOM     22  O   UNL     1     108.728 128.299 140.080  0.00  0.00    +0.000 OA
ATOM     23  C   UNL     1     109.106 127.819 140.635  0.00  0.00    +0.000 C 
ENDBRANCH  21  23
ENDBRANCH   4  17
BRANCH  12  25
ATOM     24  O   UNL     1     115.079 130.403 134.612  0.00  0.00    +0.000 OA
ATOM     25  C   UNL     1     113.726 129.811 136.598  0.00  0.00    +0.000 A 
ATOM     26  C   UNL     1     114.383 130.303 136.678  0.00  0.00    +0.000 A 
ATOM     27  C   UNL     1     113.520 129.515 135.856  0.00  0.00    +0.000 A 
ATOM     28  C   UNL     1     114.834 130.501 136.017  0.00  0.00    +0.000 A 
ATOM     29  C   UNL     1     113.971 129.713 135.193  0.00  0.00    +0.000 A 
ATOM     30  C   UNL     1     114.628 130.206 135.275  0.00  0.00    +0.000 A 
ENDBRANCH  12  25
BRANCH   5  31
ATOM     31  O   UNL     1     111.635 126.841 138.977  0.00  0.00    +0.000 OA
BRANCH  31  39
ATOM     32  O   UNL     1     110.860 126.651 137.792  0.00  0.00    +0.000 OA
ATOM     33  O   UNL     1     111.884 124.420 137.479  0.00  0.00    +0.000 OA
ATOM     34  O   UNL     1     112.318 125.353 138.769  0.00  0.00    +0.000 OA
ATOM     35  O   UNL     1     110.768 124.974 136.398  0.00  0.00    +0.000 OA
ATOM     36  C   UNL     1     111.543 125.164 137.583  0.00  0.00    +0.000 C 
ATOM     37  C   UNL     1     111.759 125.631 138.228  0.00  0.00    +0.000 C 
ATOM     38  C   UNL     1     110.984 125.441 137.042  0.00  0.00    +0.000 C 
ATOM     39  C   UNL     1     111.418 126.375 138.332  0.00  0.00    +0.000 C 
ATOM     40  C   UNL     1     110.643 126.185 137.147  0.00  0.00    +0.000 C 
BRANCH  40  41
ATOM     41  C   UNL     1     110.085 126.462 136.607  0.00  0.00    +0.000 C 
BRANCH  41  42
ATOM     42  O   UNL     1     109.540 127.038 136.834  0.00  0.00    +0.000 OA
BRANCH  42  44
ATOM     43  O   UNL     1     108.604 127.261 135.778  0.00  0.00    +0.000 OA
ATOM     44  C   UNL     1     109.207 127.537 136.269  0.00  0.00    +0.000 C 
BRANCH  44  45
ATOM     45  C   UNL     1     109.476 128.314 136.194  0.00  0.00    +0.000 C 
ATOM     46  C   UNL     1     109.054 128.932 136.540  0.00  0.00    +0.000 C 
BRANCH  46  48
ATOM     47  O   UNL     1     110.131 132.037 136.237  0.00  0.00    +0.000 OA
ATOM     48  C   UNL     1     109.323 129.709 136.465  0.00  0.00    +0.000 A 
ATOM     49  C   UNL     1     109.164 130.260 137.057  0.00  0.00    +0.000 A 
ATOM     50  C   UNL     1     109.752 129.933 135.797  0.00  0.00    +0.000 A 
ATOM     51  C   UNL     1     109.433 131.037 136.981  0.00  0.00    +0.000 A 
ATOM     52  C   UNL     1     110.022 130.709 135.721  0.00  0.00    +0.000 A 
ATOM     53  C   UNL     1     109.862 131.261 136.313  0.00  0.00    +0.000 A 
BRANCH  51  54
ATOM     54  O   UNL     1     109.273 131.588 137.573  0.00  0.00    +0.000 OA
ATOM     55  C   UNL     1     109.015 131.334 138.314  0.00  0.00    +0.000 C 
ENDBRANCH  51  54
ENDBRANCH  46  48
ENDBRANCH  44  45
ENDBRANCH  42  44
ENDBRANCH  41  42
ENDBRANCH  40  41
ENDBRANCH  31  39
ENDBRANCH   5  31
TORSDOF 11
ENDMDL
