MODEL 1
REMARK VINA RESULT:     -10.4      0.000      0.000
REMARK  Name = 101248035
REMARK  7 active torsions:
REMARK  status: ('A' for Active; 'I' for Inactive)
REMARK    1  A    between atoms: O_1  and  C_16
REMARK    2  A    between atoms: O_1  and  C_20
REMARK    3  A    between atoms: O_7  and  C_22
REMARK    4  A    between atoms: O_7  and  C_27
REMARK    5  A    between atoms: C_17  and  C_25
REMARK    6  A    between atoms: C_23  and  C_26
REMARK    7  A    between atoms: C_34  and  C_36
REMARK                            x       y       z     vdW  Elec       q    Type
REMARK                         _______ _______ _______ _____ _____    ______ ____
ROOT
ATOM      1  O   UNL     1     106.956 125.610 140.788  0.00  0.00    +0.000 OA
ENDROOT
BRANCH   1   5
ATOM      2  O   UNL     1     104.818 124.272 139.330  0.00  0.00    +0.000 OA
ATOM      3  O   UNL     1     105.477 123.405 142.006  0.00  0.00    +0.000 OA
ATOM      4  O   UNL     1     104.425 122.766 141.255  0.00  0.00    +0.000 OA
ATOM      5  C   UNL     1     106.368 125.033 140.750  0.00  0.00    +0.000 A 
ATOM      6  C   UNL     1     105.887 124.950 140.042  0.00  0.00    +0.000 A 
ATOM      7  C   UNL     1     106.230 124.510 141.418  0.00  0.00    +0.000 A 
ATOM      8  C   UNL     1     105.276 124.346 140.012  0.00  0.00    +0.000 A 
ATOM      9  C   UNL     1     105.616 123.912 141.369  0.00  0.00    +0.000 A 
ATOM     10  C   UNL     1     105.146 123.845 140.654  0.00  0.00    +0.000 A 
ATOM     11  C   UNL     1     104.556 123.268 140.613  0.00  0.00    +0.000 A 
ATOM     12  C   UNL     1     104.229 123.696 139.289  0.00  0.00    +0.000 A 
ATOM     13  C   UNL     1     104.098 123.194 139.931  0.00  0.00    +0.000 A 
BRANCH  12  16
ATOM     14  O   UNL     1     101.697 123.878 137.977  0.00  0.00    +0.000 OA
ATOM     15  O   UNL     1     102.396 123.398 136.561  0.00  0.00    +0.000 OA
ATOM     16  C   UNL     1     103.771 123.621 138.607  0.00  0.00    +0.000 A 
ATOM     17  C   UNL     1     102.963 123.787 138.633  0.00  0.00    +0.000 A 
ATOM     18  C   UNL     1     104.121 123.382 137.899  0.00  0.00    +0.000 A 
ATOM     19  C   UNL     1     102.505 123.712 137.951  0.00  0.00    +0.000 A 
ATOM     20  C   UNL     1     103.662 123.307 137.218  0.00  0.00    +0.000 A 
ATOM     21  C   UNL     1     102.855 123.473 137.244  0.00  0.00    +0.000 A 
ENDBRANCH  12  16
ENDBRANCH   1   5
BRANCH   1  28
ATOM     22  O   UNL     1     106.154 126.620 141.403  0.00  0.00    +0.000 OA
ATOM     23  O   UNL     1     108.112 127.378 142.713  0.00  0.00    +0.000 OA
ATOM     24  O   UNL     1     106.658 128.135 142.890  0.00  0.00    +0.000 OA
ATOM     25  C   UNL     1     107.534 126.493 141.750  0.00  0.00    +0.000 C 
ATOM     26  C   UNL     1     107.459 127.125 142.276  0.00  0.00    +0.000 C 
ATOM     27  C   UNL     1     106.732 127.504 142.365  0.00  0.00    +0.000 C 
ATOM     28  C   UNL     1     106.881 126.241 141.313  0.00  0.00    +0.000 C 
ATOM     29  C   UNL     1     106.079 127.251 141.928  0.00  0.00    +0.000 C 
BRANCH  29  31
ATOM     30  O   UNL     1     104.826 127.670 141.382  0.00  0.00    +0.000 OA
ATOM     31  C   UNL     1     105.352 127.630 142.017  0.00  0.00    +0.000 C 
ENDBRANCH  29  31
BRANCH  25  32
ATOM     32  O   UNL     1     108.261 126.115 141.661  0.00  0.00    +0.000 OA
BRANCH  32  38
ATOM     33  O   UNL     1     108.727 127.079 140.653  0.00  0.00    +0.000 OA
ATOM     34  O   UNL     1     110.518 126.904 139.934  0.00  0.00    +0.000 OA
ATOM     35  O   UNL     1     109.914 125.467 141.393  0.00  0.00    +0.000 OA
ATOM     36  C   UNL     1     109.956 126.597 140.454  0.00  0.00    +0.000 C 
ATOM     37  C   UNL     1     109.584 126.123 141.018  0.00  0.00    +0.000 C 
ATOM     38  C   UNL     1     108.825 126.422 141.141  0.00  0.00    +0.000 C 
ATOM     39  C   UNL     1     109.426 127.188 140.228  0.00  0.00    +0.000 C 
BRANCH  36  41
ATOM     40  O   UNL     1     111.286 126.293 140.030  0.00  0.00    +0.000 OA
ATOM     41  C   UNL     1     110.634 126.130 140.508  0.00  0.00    +0.000 C 
ENDBRANCH  36  41
ENDBRANCH  32  38
ENDBRANCH  25  32
ENDBRANCH   1  28
TORSDOF 7
ENDMDL
MODEL 2
REMARK VINA RESULT:     -10.2      3.615      6.088
REMARK  Name = 101248035
REMARK  7 active torsions:
REMARK  status: ('A' for Active; 'I' for Inactive)
REMARK    1  A    between atoms: O_1  and  C_16
REMARK    2  A    between atoms: O_1  and  C_20
REMARK    3  A    between atoms: O_7  and  C_22
REMARK    4  A    between atoms: O_7  and  C_27
REMARK    5  A    between atoms: C_17  and  C_25
REMARK    6  A    between atoms: C_23  and  C_26
REMARK    7  A    between atoms: C_34  and  C_36
REMARK                            x       y       z     vdW  Elec       q    Type
REMARK                         _______ _______ _______ _____ _____    ______ ____
ROOT
ATOM      1  O   UNL     1     105.072 128.094 142.576  0.00  0.00    +0.000 OA
ENDROOT
BRANCH   1   5
ATOM      2  O   UNL     1     103.154 130.169 141.870  0.00  0.00    +0.000 OA
ATOM      3  O   UNL     1     103.582 127.952 140.068  0.00  0.00    +0.000 OA
ATOM      4  O   UNL     1     102.641 128.997 139.751  0.00  0.00    +0.000 OA
ATOM      5  C   UNL     1     104.518 128.407 142.052  0.00  0.00    +0.000 A 
ATOM      6  C   UNL     1     104.114 129.144 142.238  0.00  0.00    +0.000 A 
ATOM      7  C   UNL     1     104.339 128.001 141.317  0.00  0.00    +0.000 A 
ATOM      8  C   UNL     1     103.538 129.463 141.687  0.00  0.00    +0.000 A 
ATOM      9  C   UNL     1     103.760 128.336 140.777  0.00  0.00    +0.000 A 
ATOM     10  C   UNL     1     103.367 129.072 140.980  0.00  0.00    +0.000 A 
ATOM     11  C   UNL     1     102.812 129.388 140.458  0.00  0.00    +0.000 A 
ATOM     12  C   UNL     1     102.599 130.485 141.348  0.00  0.00    +0.000 A 
ATOM     13  C   UNL     1     102.428 130.094 140.642  0.00  0.00    +0.000 A 
BRANCH  12  16
ATOM     14  O   UNL     1     102.556 133.343 141.381  0.00  0.00    +0.000 OA
ATOM     15  O   UNL     1     101.064 133.312 142.084  0.00  0.00    +0.000 OA
ATOM     16  C   UNL     1     102.215 131.192 141.532  0.00  0.00    +0.000 A 
ATOM     17  C   UNL     1     102.578 131.914 141.364  0.00  0.00    +0.000 A 
ATOM     18  C   UNL     1     101.469 131.177 141.883  0.00  0.00    +0.000 A 
ATOM     19  C   UNL     1     102.194 132.621 141.548  0.00  0.00    +0.000 A 
ATOM     20  C   UNL     1     101.086 131.883 142.067  0.00  0.00    +0.000 A 
ATOM     21  C   UNL     1     101.448 132.605 141.900  0.00  0.00    +0.000 A 
ENDBRANCH  12  16
ENDBRANCH   1   5
BRANCH   1  28
ATOM     22  O   UNL     1     106.182 128.883 142.143  0.00  0.00    +0.000 OA
ATOM     23  O   UNL     1     107.689 126.948 142.480  0.00  0.00    +0.000 OA
ATOM     24  O   UNL     1     108.296 128.381 141.934  0.00  0.00    +0.000 OA
ATOM     25  C   UNL     1     106.380 127.521 142.528  0.00  0.00    +0.000 C 
ATOM     26  C   UNL     1     107.187 127.593 142.368  0.00  0.00    +0.000 C 
ATOM     27  C   UNL     1     107.490 128.310 142.095  0.00  0.00    +0.000 C 
ATOM     28  C   UNL     1     105.878 128.166 142.416  0.00  0.00    +0.000 C 
ATOM     29  C   UNL     1     106.988 128.955 141.982  0.00  0.00    +0.000 C 
BRANCH  29  31
ATOM     30  O   UNL     1     107.105 129.936 140.950  0.00  0.00    +0.000 OA
ATOM     31  C   UNL     1     107.291 129.671 141.709  0.00  0.00    +0.000 C 
ENDBRANCH  29  31
BRANCH  25  32
ATOM     32  O   UNL     1     106.077 126.804 142.801  0.00  0.00    +0.000 OA
BRANCH  32  38
ATOM     33  O   UNL     1     106.414 127.099 144.202  0.00  0.00    +0.000 OA
ATOM     34  O   UNL     1     106.207 125.708 145.536  0.00  0.00    +0.000 OA
ATOM     35  O   UNL     1     105.697 125.206 143.524  0.00  0.00    +0.000 OA
ATOM     36  C   UNL     1     106.132 125.909 144.740  0.00  0.00    +0.000 C 
ATOM     37  C   UNL     1     105.977 125.867 143.930  0.00  0.00    +0.000 C 
ATOM     38  C   UNL     1     106.152 126.602 143.598  0.00  0.00    +0.000 C 
ATOM     39  C   UNL     1     106.402 126.671 144.908  0.00  0.00    +0.000 C 
BRANCH  36  41
ATOM     40  O   UNL     1     106.150 124.688 145.479  0.00  0.00    +0.000 OA
ATOM     41  C   UNL     1     105.898 125.123 144.826  0.00  0.00    +0.000 C 
ENDBRANCH  36  41
ENDBRANCH  32  38
ENDBRANCH  25  32
ENDBRANCH   1  28
TORSDOF 7
ENDMDL
MODEL 3
REMARK VINA RESULT:     -10.1      6.940      8.581
REMARK  Name = 101248035
REMARK  7 active torsions:
REMARK  status: ('A' for Active; 'I' for Inactive)
REMARK    1  A    between atoms: O_1  and  C_16
REMARK    2  A    between atoms: O_1  and  C_20
REMARK    3  A    between atoms: O_7  and  C_22
REMARK    4  A    between atoms: O_7  and  C_27
REMARK    5  A    between atoms: C_17  and  C_25
REMARK    6  A    between atoms: C_23  and  C_26
REMARK    7  A    between atoms: C_34  and  C_36
REMARK                            x       y       z     vdW  Elec       q    Type
REMARK                         _______ _______ _______ _____ _____    ______ ____
ROOT
ATOM      1  O   UNL     1     110.673 130.252 136.494  0.00  0.00    +0.000 OA
ENDROOT
BRANCH   1   5
ATOM      2  O   UNL     1     111.770 127.554 136.555  0.00  0.00    +0.000 OA
ATOM      3  O   UNL     1     113.471 129.768 135.811  0.00  0.00    +0.000 OA
ATOM      4  O   UNL     1     113.980 128.419 135.852  0.00  0.00    +0.000 OA
ATOM      5  C   UNL     1     111.308 129.735 136.393  0.00  0.00    +0.000 A 
ATOM      6  C   UNL     1     111.206 128.892 136.530  0.00  0.00    +0.000 A 
ATOM      7  C   UNL     1     112.075 130.035 136.149  0.00  0.00    +0.000 A 
ATOM      8  C   UNL     1     111.873 128.362 136.421  0.00  0.00    +0.000 A 
ATOM      9  C   UNL     1     112.730 129.489 136.045  0.00  0.00    +0.000 A 
ATOM     10  C   UNL     1     112.610 128.650 136.187  0.00  0.00    +0.000 A 
ATOM     11  C   UNL     1     113.243 128.131 136.086  0.00  0.00    +0.000 A 
ATOM     12  C   UNL     1     112.403 127.035 136.454  0.00  0.00    +0.000 A 
ATOM     13  C   UNL     1     113.139 127.323 136.219  0.00  0.00    +0.000 A 
BRANCH  12  16
ATOM     14  O   UNL     1     111.152 124.556 135.778  0.00  0.00    +0.000 OA
ATOM     15  O   UNL     1     111.988 123.805 136.986  0.00  0.00    +0.000 OA
ATOM     16  C   UNL     1     112.299 126.227 136.587  0.00  0.00    +0.000 A 
ATOM     17  C   UNL     1     111.777 125.796 136.115  0.00  0.00    +0.000 A 
ATOM     18  C   UNL     1     112.717 125.852 137.191  0.00  0.00    +0.000 A 
ATOM     19  C   UNL     1     111.674 124.988 136.248  0.00  0.00    +0.000 A 
ATOM     20  C   UNL     1     112.614 125.045 137.323  0.00  0.00    +0.000 A 
ATOM     21  C   UNL     1     112.092 124.612 136.852  0.00  0.00    +0.000 A 
ENDBRANCH  12  16
ENDBRANCH   1   5
BRANCH   1  28
ATOM     22  O   UNL     1     110.926 130.435 137.889  0.00  0.00    +0.000 OA
ATOM     23  O   UNL     1     109.876 132.675 137.785  0.00  0.00    +0.000 OA
ATOM     24  O   UNL     1     110.479 132.111 139.213  0.00  0.00    +0.000 OA
ATOM     25  C   UNL     1     110.275 131.463 137.139  0.00  0.00    +0.000 C 
ATOM     26  C   UNL     1     110.226 131.928 137.820  0.00  0.00    +0.000 C 
ATOM     27  C   UNL     1     110.527 131.646 138.534  0.00  0.00    +0.000 C 
ATOM     28  C   UNL     1     110.625 130.716 137.174  0.00  0.00    +0.000 C 
ATOM     29  C   UNL     1     110.877 130.900 138.568  0.00  0.00    +0.000 C 
BRANCH  29  31
ATOM     30  O   UNL     1     110.872 129.929 139.617  0.00  0.00    +0.000 OA
ATOM     31  C   UNL     1     111.178 130.618 139.282  0.00  0.00    +0.000 C 
ENDBRANCH  29  31
BRANCH  25  32
ATOM     32  O   UNL     1     109.973 131.745 136.425  0.00  0.00    +0.000 OA
BRANCH  32  38
ATOM     33  O   UNL     1     108.610 131.285 136.729  0.00  0.00    +0.000 OA
ATOM     34  O   UNL     1     107.179 131.682 135.484  0.00  0.00    +0.000 OA
ATOM     35  O   UNL     1     109.131 132.383 134.974  0.00  0.00    +0.000 OA
ATOM     36  C   UNL     1     107.984 131.759 135.650  0.00  0.00    +0.000 C 
ATOM     37  C   UNL     1     108.782 131.962 135.592  0.00  0.00    +0.000 C 
ATOM     38  C   UNL     1     109.168 131.668 136.258  0.00  0.00    +0.000 C 
ATOM     39  C   UNL     1     107.878 131.341 136.354  0.00  0.00    +0.000 C 
BRANCH  36  41
ATOM     40  O   UNL     1     107.073 132.139 134.617  0.00  0.00    +0.000 OA
ATOM     41  C   UNL     1     107.836 132.134 134.930  0.00  0.00    +0.000 C 
ENDBRANCH  36  41
ENDBRANCH  32  38
ENDBRANCH  25  32
ENDBRANCH   1  28
TORSDOF 7
ENDMDL
MODEL 4
REMARK VINA RESULT:     -10.0      7.225      8.746
REMARK  Name = 101248035
REMARK  7 active torsions:
REMARK  status: ('A' for Active; 'I' for Inactive)
REMARK    1  A    between atoms: O_1  and  C_16
REMARK    2  A    between atoms: O_1  and  C_20
REMARK    3  A    between atoms: O_7  and  C_22
REMARK    4  A    between atoms: O_7  and  C_27
REMARK    5  A    between atoms: C_17  and  C_25
REMARK    6  A    between atoms: C_23  and  C_26
REMARK    7  A    between atoms: C_34  and  C_36
REMARK                            x       y       z     vdW  Elec       q    Type
REMARK                         _______ _______ _______ _____ _____    ______ ____
ROOT
ATOM      1  O   UNL     1     112.052 130.025 137.829  0.00  0.00    +0.000 OA
ENDROOT
BRANCH   1   5
ATOM      2  O   UNL     1     112.999 127.376 137.075  0.00  0.00    +0.000 OA
ATOM      3  O   UNL     1     114.110 129.708 135.781  0.00  0.00    +0.000 OA
ATOM      4  O   UNL     1     114.556 128.381 135.433  0.00  0.00    +0.000 OA
ATOM      5  C   UNL     1     112.542 129.543 137.372  0.00  0.00    +0.000 A 
ATOM      6  C   UNL     1     112.515 128.689 137.463  0.00  0.00    +0.000 A 
ATOM      7  C   UNL     1     113.082 129.892 136.802  0.00  0.00    +0.000 A 
ATOM      8  C   UNL     1     113.029 128.195 136.983  0.00  0.00    +0.000 A 
ATOM      9  C   UNL     1     113.588 129.382 136.331  0.00  0.00    +0.000 A 
ATOM     10  C   UNL     1     113.548 128.530 136.436  0.00  0.00    +0.000 A 
ATOM     11  C   UNL     1     114.036 128.046 135.981  0.00  0.00    +0.000 A 
ATOM     12  C   UNL     1     113.488 126.892 136.619  0.00  0.00    +0.000 A 
ATOM     13  C   UNL     1     114.007 127.227 136.072  0.00  0.00    +0.000 A 
BRANCH  12  16
ATOM     14  O   UNL     1     112.104 124.413 136.288  0.00  0.00    +0.000 OA
ATOM     15  O   UNL     1     113.368 123.614 136.986  0.00  0.00    +0.000 OA
ATOM     16  C   UNL     1     113.458 126.072 136.711  0.00  0.00    +0.000 A 
ATOM     17  C   UNL     1     112.796 125.653 136.454  0.00  0.00    +0.000 A 
ATOM     18  C   UNL     1     114.090 125.673 137.060  0.00  0.00    +0.000 A 
ATOM     19  C   UNL     1     112.766 124.833 136.545  0.00  0.00    +0.000 A 
ATOM     20  C   UNL     1     114.059 124.854 137.152  0.00  0.00    +0.000 A 
ATOM     21  C   UNL     1     113.398 124.434 136.894  0.00  0.00    +0.000 A 
ENDBRANCH  12  16
ENDBRANCH   1   5
BRANCH   1  28
ATOM     22  O   UNL     1     113.007 130.195 138.878  0.00  0.00    +0.000 OA
ATOM     23  O   UNL     1     111.166 130.428 140.516  0.00  0.00    +0.000 OA
ATOM     24  O   UNL     1     112.734 130.519 141.019  0.00  0.00    +0.000 OA
ATOM     25  C   UNL     1     111.609 130.227 139.172  0.00  0.00    +0.000 C 
ATOM     26  C   UNL     1     111.780 130.350 139.970  0.00  0.00    +0.000 C 
ATOM     27  C   UNL     1     112.564 130.396 140.221  0.00  0.00    +0.000 C 
ATOM     28  C   UNL     1     112.223 130.149 138.626  0.00  0.00    +0.000 C 
ATOM     29  C   UNL     1     113.178 130.318 139.675  0.00  0.00    +0.000 C 
BRANCH  29  31
ATOM     30  O   UNL     1     114.454 130.959 139.638  0.00  0.00    +0.000 OA
ATOM     31  C   UNL     1     113.961 130.364 139.927  0.00  0.00    +0.000 C 
ENDBRANCH  29  31
BRANCH  25  32
ATOM     32  O   UNL     1     110.825 130.181 138.921  0.00  0.00    +0.000 OA
BRANCH  32  38
ATOM     33  O   UNL     1     110.706 131.639 138.776  0.00  0.00    +0.000 OA
ATOM     34  O   UNL     1     109.003 132.400 138.246  0.00  0.00    +0.000 OA
ATOM     35  O   UNL     1     109.099 130.275 138.435  0.00  0.00    +0.000 OA
ATOM     36  C   UNL     1     109.422 131.709 138.415  0.00  0.00    +0.000 C 
ATOM     37  C   UNL     1     109.613 130.914 138.529  0.00  0.00    +0.000 C 
ATOM     38  C   UNL     1     110.405 130.872 138.752  0.00  0.00    +0.000 C 
ATOM     39  C   UNL     1     110.098 132.158 138.568  0.00  0.00    +0.000 C 
BRANCH  36  41
ATOM     40  O   UNL     1     108.081 132.080 138.092  0.00  0.00    +0.000 OA
ATOM     41  C   UNL     1     108.650 131.497 138.218  0.00  0.00    +0.000 C 
ENDBRANCH  36  41
ENDBRANCH  32  38
ENDBRANCH  25  32
ENDBRANCH   1  28
TORSDOF 7
ENDMDL
MODEL 5
REMARK VINA RESULT:     -10.0      5.650      9.032
REMARK  Name = 101248035
REMARK  7 active torsions:
REMARK  status: ('A' for Active; 'I' for Inactive)
REMARK    1  A    between atoms: O_1  and  C_16
REMARK    2  A    between atoms: O_1  and  C_20
REMARK    3  A    between atoms: O_7  and  C_22
REMARK    4  A    between atoms: O_7  and  C_27
REMARK    5  A    between atoms: C_17  and  C_25
REMARK    6  A    between atoms: C_23  and  C_26
REMARK    7  A    between atoms: C_34  and  C_36
REMARK                            x       y       z     vdW  Elec       q    Type
REMARK                         _______ _______ _______ _____ _____    ______ ____
ROOT
ATOM      1  O   UNL     1     111.519 126.994 138.110  0.00  0.00    +0.000 OA
ENDROOT
BRANCH   1   5
ATOM      2  O   UNL     1     113.132 128.686 139.849  0.00  0.00    +0.000 OA
ATOM      3  O   UNL     1     112.057 126.207 140.871  0.00  0.00    +0.000 OA
ATOM      4  O   UNL     1     112.859 127.069 141.703  0.00  0.00    +0.000 OA
ATOM      5  C   UNL     1     111.869 127.140 138.843  0.00  0.00    +0.000 A 
ATOM      6  C   UNL     1     112.330 127.855 138.968  0.00  0.00    +0.000 A 
ATOM      7  C   UNL     1     111.774 126.580 139.487  0.00  0.00    +0.000 A 
ATOM      8  C   UNL     1     112.690 127.998 139.735  0.00  0.00    +0.000 A 
ATOM      9  C   UNL     1     112.142 126.740 140.247  0.00  0.00    +0.000 A 
ATOM     10  C   UNL     1     112.599 127.459 140.353  0.00  0.00    +0.000 A 
ATOM     11  C   UNL     1     112.950 127.608 141.085  0.00  0.00    +0.000 A 
ATOM     12  C   UNL     1     113.483 128.835 140.581  0.00  0.00    +0.000 A 
ATOM     13  C   UNL     1     113.392 128.296 141.199  0.00  0.00    +0.000 A 
BRANCH  12  16
ATOM     14  O   UNL     1     113.737 131.457 141.688  0.00  0.00    +0.000 OA
ATOM     15  O   UNL     1     115.248 131.585 141.037  0.00  0.00    +0.000 OA
ATOM     16  C   UNL     1     113.924 129.522 140.695  0.00  0.00    +0.000 A 
ATOM     17  C   UNL     1     113.610 130.146 141.135  0.00  0.00    +0.000 A 
ATOM     18  C   UNL     1     114.679 129.586 140.369  0.00  0.00    +0.000 A 
ATOM     19  C   UNL     1     114.051 130.833 141.249  0.00  0.00    +0.000 A 
ATOM     20  C   UNL     1     115.120 130.274 140.483  0.00  0.00    +0.000 A 
ATOM     21  C   UNL     1     114.806 130.897 140.923  0.00  0.00    +0.000 A 
ENDBRANCH  12  16
ENDBRANCH   1   5
BRANCH   1  28
ATOM     22  O   UNL     1     112.606 126.196 137.637  0.00  0.00    +0.000 OA
ATOM     23  O   UNL     1     111.048 124.935 136.186  0.00  0.00    +0.000 OA
ATOM     24  O   UNL     1     112.654 124.558 136.197  0.00  0.00    +0.000 OA
ATOM     25  C   UNL     1     111.284 125.965 137.149  0.00  0.00    +0.000 C 
ATOM     26  C   UNL     1     111.568 125.355 136.670  0.00  0.00    +0.000 C 
ATOM     27  C   UNL     1     112.371 125.167 136.676  0.00  0.00    +0.000 C 
ATOM     28  C   UNL     1     111.803 126.386 137.632  0.00  0.00    +0.000 C 
ATOM     29  C   UNL     1     112.890 125.588 137.160  0.00  0.00    +0.000 C 
BRANCH  29  31
ATOM     30  O   UNL     1     114.251 125.964 136.944  0.00  0.00    +0.000 OA
ATOM     31  C   UNL     1     113.692 125.399 137.165  0.00  0.00    +0.000 C 
ENDBRANCH  29  31
BRANCH  25  32
ATOM     32  O   UNL     1     110.481 126.153 137.143  0.00  0.00    +0.000 OA
BRANCH  32  38
ATOM     33  O   UNL     1     110.612 127.022 135.964  0.00  0.00    +0.000 OA
ATOM     34  O   UNL     1     109.067 128.015 135.345  0.00  0.00    +0.000 OA
ATOM     35  O   UNL     1     108.798 126.775 137.062  0.00  0.00    +0.000 OA
ATOM     36  C   UNL     1     109.361 127.485 135.904  0.00  0.00    +0.000 C 
ATOM     37  C   UNL     1     109.413 126.969 136.547  0.00  0.00    +0.000 C 
ATOM     38  C   UNL     1     110.186 126.684 136.583  0.00  0.00    +0.000 C 
ATOM     39  C   UNL     1     110.103 127.517 135.544  0.00  0.00    +0.000 C 
BRANCH  36  41
ATOM     40  O   UNL     1     108.168 128.248 135.720  0.00  0.00    +0.000 OA
ATOM     41  C   UNL     1     108.565 127.618 136.074  0.00  0.00    +0.000 C 
ENDBRANCH  36  41
ENDBRANCH  32  38
ENDBRANCH  25  32
ENDBRANCH   1  28
TORSDOF 7
ENDMDL
MODEL 6
REMARK VINA RESULT:      -9.9      6.857      8.722
REMARK  Name = 101248035
REMARK  7 active torsions:
REMARK  status: ('A' for Active; 'I' for Inactive)
REMARK    1  A    between atoms: O_1  and  C_16
REMARK    2  A    between atoms: O_1  and  C_20
REMARK    3  A    between atoms: O_7  and  C_22
REMARK    4  A    between atoms: O_7  and  C_27
REMARK    5  A    between atoms: C_17  and  C_25
REMARK    6  A    between atoms: C_23  and  C_26
REMARK    7  A    between atoms: C_34  and  C_36
REMARK                            x       y       z     vdW  Elec       q    Type
REMARK                         _______ _______ _______ _____ _____    ______ ____
ROOT
ATOM      1  O   UNL     1     111.957 128.663 137.022  0.00  0.00    +0.000 OA
ENDROOT
BRANCH   1   5
ATOM      2  O   UNL     1     109.945 130.650 136.321  0.00  0.00    +0.000 OA
ATOM      3  O   UNL     1     111.899 131.259 138.360  0.00  0.00    +0.000 OA
ATOM      4  O   UNL     1     110.889 132.218 137.988  0.00  0.00    +0.000 OA
ATOM      5  C   UNL     1     111.621 129.410 137.127  0.00  0.00    +0.000 A 
ATOM      6  C   UNL     1     110.941 129.648 136.657  0.00  0.00    +0.000 A 
ATOM      7  C   UNL     1     111.948 129.954 137.705  0.00  0.00    +0.000 A 
ATOM      8  C   UNL     1     110.598 130.427 136.774  0.00  0.00    +0.000 A 
ATOM      9  C   UNL     1     111.591 130.729 137.807  0.00  0.00    +0.000 A 
ATOM     10  C   UNL     1     110.912 130.949 137.329  0.00  0.00    +0.000 A 
ATOM     11  C   UNL     1     110.574 131.695 137.432  0.00  0.00    +0.000 A 
ATOM     12  C   UNL     1     109.607 131.396 136.424  0.00  0.00    +0.000 A 
ATOM     13  C   UNL     1     109.922 131.918 136.979  0.00  0.00    +0.000 A 
BRANCH  12  16
ATOM     14  O   UNL     1     106.783 131.402 135.988  0.00  0.00    +0.000 OA
ATOM     15  O   UNL     1     106.997 132.288 134.613  0.00  0.00    +0.000 OA
ATOM     16  C   UNL     1     108.955 131.619 135.971  0.00  0.00    +0.000 A 
ATOM     17  C   UNL     1     108.195 131.399 136.206  0.00  0.00    +0.000 A 
ATOM     18  C   UNL     1     109.062 132.062 135.283  0.00  0.00    +0.000 A 
ATOM     19  C   UNL     1     107.542 131.622 135.754  0.00  0.00    +0.000 A 
ATOM     20  C   UNL     1     108.409 132.285 134.831  0.00  0.00    +0.000 A 
ATOM     21  C   UNL     1     107.650 132.065 135.066  0.00  0.00    +0.000 A 
ENDBRANCH  12  16
ENDBRANCH   1   5
BRANCH   1  28
ATOM     22  O   UNL     1     112.857 129.164 136.031  0.00  0.00    +0.000 OA
ATOM     23  O   UNL     1     114.285 127.162 136.317  0.00  0.00    +0.000 OA
ATOM     24  O   UNL     1     114.708 128.329 135.231  0.00  0.00    +0.000 OA
ATOM     25  C   UNL     1     113.120 127.913 136.670  0.00  0.00    +0.000 C 
ATOM     26  C   UNL     1     113.809 127.829 136.222  0.00  0.00    +0.000 C 
ATOM     27  C   UNL     1     114.020 128.413 135.679  0.00  0.00    +0.000 C 
ATOM     28  C   UNL     1     112.644 128.580 136.574  0.00  0.00    +0.000 C 
ATOM     29  C   UNL     1     113.544 129.081 135.583  0.00  0.00    +0.000 C 
BRANCH  29  31
ATOM     30  O   UNL     1     114.131 130.352 135.299  0.00  0.00    +0.000 OA
ATOM     31  C   UNL     1     113.756 129.664 135.041  0.00  0.00    +0.000 C 
ENDBRANCH  29  31
BRANCH  25  32
ATOM     32  O   UNL     1     112.909 127.329 137.212  0.00  0.00    +0.000 OA
BRANCH  32  38
ATOM     33  O   UNL     1     112.242 126.511 136.189  0.00  0.00    +0.000 OA
ATOM     34  O   UNL     1     111.452 124.817 136.700  0.00  0.00    +0.000 OA
ATOM     35  O   UNL     1     112.402 125.948 138.241  0.00  0.00    +0.000 OA
ATOM     36  C   UNL     1     111.865 125.484 136.954  0.00  0.00    +0.000 C 
ATOM     37  C   UNL     1     112.263 126.027 137.432  0.00  0.00    +0.000 C 
ATOM     38  C   UNL     1     112.495 126.661 136.959  0.00  0.00    +0.000 C 
ATOM     39  C   UNL     1     111.852 125.784 136.185  0.00  0.00    +0.000 C 
BRANCH  36  41
ATOM     40  O   UNL     1     111.445 124.234 137.502  0.00  0.00    +0.000 OA
ATOM     41  C   UNL     1     111.749 124.993 137.607  0.00  0.00    +0.000 C 
ENDBRANCH  36  41
ENDBRANCH  32  38
ENDBRANCH  25  32
ENDBRANCH   1  28
TORSDOF 7
ENDMDL
MODEL 7
REMARK VINA RESULT:      -9.9      6.665      8.593
REMARK  Name = 101248035
REMARK  7 active torsions:
REMARK  status: ('A' for Active; 'I' for Inactive)
REMARK    1  A    between atoms: O_1  and  C_16
REMARK    2  A    between atoms: O_1  and  C_20
REMARK    3  A    between atoms: O_7  and  C_22
REMARK    4  A    between atoms: O_7  and  C_27
REMARK    5  A    between atoms: C_17  and  C_25
REMARK    6  A    between atoms: C_23  and  C_26
REMARK    7  A    between atoms: C_34  and  C_36
REMARK                            x       y       z     vdW  Elec       q    Type
REMARK                         _______ _______ _______ _____ _____    ______ ____
ROOT
ATOM      1  O   UNL     1     111.538 129.813 137.290  0.00  0.00    +0.000 OA
ENDROOT
BRANCH   1   5
ATOM      2  O   UNL     1     112.927 127.278 136.930  0.00  0.00    +0.000 OA
ATOM      3  O   UNL     1     113.906 129.643 135.589  0.00  0.00    +0.000 OA
ATOM      4  O   UNL     1     114.569 128.371 135.434  0.00  0.00    +0.000 OA
ATOM      5  C   UNL     1     112.150 129.374 136.954  0.00  0.00    +0.000 A 
ATOM      6  C   UNL     1     112.222 128.533 137.121  0.00  0.00    +0.000 A 
ATOM      7  C   UNL     1     112.720 129.753 136.435  0.00  0.00    +0.000 A 
ATOM      8  C   UNL     1     112.863 128.084 136.766  0.00  0.00    +0.000 A 
ATOM      9  C   UNL     1     113.354 129.287 136.089  0.00  0.00    +0.000 A 
ATOM     10  C   UNL     1     113.410 128.449 136.267  0.00  0.00    +0.000 A 
ATOM     11  C   UNL     1     114.021 128.007 135.933  0.00  0.00    +0.000 A 
ATOM     12  C   UNL     1     113.538 126.836 136.595  0.00  0.00    +0.000 A 
ATOM     13  C   UNL     1     114.085 127.201 136.096  0.00  0.00    +0.000 A 
BRANCH  12  16
ATOM     14  O   UNL     1     112.508 124.179 136.383  0.00  0.00    +0.000 OA
ATOM     15  O   UNL     1     113.793 123.612 137.249  0.00  0.00    +0.000 OA
ATOM     16  C   UNL     1     113.602 126.030 136.758  0.00  0.00    +0.000 A 
ATOM     17  C   UNL     1     113.023 125.508 136.489  0.00  0.00    +0.000 A 
ATOM     18  C   UNL     1     114.245 125.747 137.191  0.00  0.00    +0.000 A 
ATOM     19  C   UNL     1     113.087 124.702 136.652  0.00  0.00    +0.000 A 
ATOM     20  C   UNL     1     114.308 124.941 137.354  0.00  0.00    +0.000 A 
ATOM     21  C   UNL     1     113.729 124.418 137.085  0.00  0.00    +0.000 A 
ENDBRANCH  12  16
ENDBRANCH   1   5
BRANCH   1  28
ATOM     22  O   UNL     1     110.644 129.740 136.177  0.00  0.00    +0.000 OA
ATOM     23  O   UNL     1     108.725 129.563 137.730  0.00  0.00    +0.000 OA
ATOM     24  O   UNL     1     108.472 129.549 136.101  0.00  0.00    +0.000 OA
ATOM     25  C   UNL     1     110.132 129.688 137.510  0.00  0.00    +0.000 C 
ATOM     26  C   UNL     1     109.365 129.622 137.213  0.00  0.00    +0.000 C 
ATOM     27  C   UNL     1     109.239 129.615 136.398  0.00  0.00    +0.000 C 
ATOM     28  C   UNL     1     110.772 129.747 136.993  0.00  0.00    +0.000 C 
ATOM     29  C   UNL     1     109.878 129.674 135.880  0.00  0.00    +0.000 C 
BRANCH  29  31
ATOM     30  O   UNL     1     109.936 130.331 134.612  0.00  0.00    +0.000 OA
ATOM     31  C   UNL     1     109.751 129.667 135.066  0.00  0.00    +0.000 C 
ENDBRANCH  29  31
BRANCH  25  32
ATOM     32  O   UNL     1     110.259 129.695 138.325  0.00  0.00    +0.000 OA
BRANCH  32  38
ATOM     33  O   UNL     1     110.030 131.145 138.425  0.00  0.00    +0.000 OA
ATOM     34  O   UNL     1     110.167 132.006 140.156  0.00  0.00    +0.000 OA
ATOM     35  O   UNL     1     110.512 129.899 140.091  0.00  0.00    +0.000 OA
ATOM     36  C   UNL     1     110.219 131.296 139.738  0.00  0.00    +0.000 C 
ATOM     37  C   UNL     1     110.324 130.498 139.555  0.00  0.00    +0.000 C 
ATOM     38  C   UNL     1     110.207 130.405 138.744  0.00  0.00    +0.000 C 
ATOM     39  C   UNL     1     110.037 131.696 139.039  0.00  0.00    +0.000 C 
BRANCH  36  41
ATOM     40  O   UNL     1     110.408 131.752 141.079  0.00  0.00    +0.000 OA
ATOM     41  C   UNL     1     110.375 131.136 140.532  0.00  0.00    +0.000 C 
ENDBRANCH  36  41
ENDBRANCH  32  38
ENDBRANCH  25  32
ENDBRANCH   1  28
TORSDOF 7
ENDMDL
MODEL 8
REMARK VINA RESULT:      -9.8      5.321      7.878
REMARK  Name = 101248035
REMARK  7 active torsions:
REMARK  status: ('A' for Active; 'I' for Inactive)
REMARK    1  A    between atoms: O_1  and  C_16
REMARK    2  A    between atoms: O_1  and  C_20
REMARK    3  A    between atoms: O_7  and  C_22
REMARK    4  A    between atoms: O_7  and  C_27
REMARK    5  A    between atoms: C_17  and  C_25
REMARK    6  A    between atoms: C_23  and  C_26
REMARK    7  A    between atoms: C_34  and  C_36
REMARK                            x       y       z     vdW  Elec       q    Type
REMARK                         _______ _______ _______ _____ _____    ______ ____
ROOT
ATOM      1  O   UNL     1     110.258 129.095 137.783  0.00  0.00    +0.000 OA
ENDROOT
BRANCH   1   5
ATOM      2  O   UNL     1     112.102 126.842 137.850  0.00  0.00    +0.000 OA
ATOM      3  O   UNL     1     109.718 126.780 139.480  0.00  0.00    +0.000 OA
ATOM      4  O   UNL     1     110.653 125.682 139.488  0.00  0.00    +0.000 OA
ATOM      5  C   UNL     1     110.469 128.351 138.071  0.00  0.00    +0.000 A 
ATOM      6  C   UNL     1     111.194 127.973 137.804  0.00  0.00    +0.000 A 
ATOM      7  C   UNL     1     109.966 127.948 138.639  0.00  0.00    +0.000 A 
ATOM      8  C   UNL     1     111.406 127.199 138.110  0.00  0.00    +0.000 A 
ATOM      9  C   UNL     1     110.195 127.174 138.934  0.00  0.00    +0.000 A 
ATOM     10  C   UNL     1     110.923 126.813 138.655  0.00  0.00    +0.000 A 
ATOM     11  C   UNL     1     111.136 126.069 138.942  0.00  0.00    +0.000 A 
ATOM     12  C   UNL     1     112.316 126.098 138.136  0.00  0.00    +0.000 A 
ATOM     13  C   UNL     1     111.833 125.712 138.682  0.00  0.00    +0.000 A 
BRANCH  12  16
ATOM     14  O   UNL     1     113.685 124.386 136.302  0.00  0.00    +0.000 OA
ATOM     15  O   UNL     1     115.103 124.668 137.097  0.00  0.00    +0.000 OA
ATOM     16  C   UNL     1     113.013 125.741 137.877  0.00  0.00    +0.000 A 
ATOM     17  C   UNL     1     113.000 125.242 137.219  0.00  0.00    +0.000 A 
ATOM     18  C   UNL     1     113.722 125.882 138.274  0.00  0.00    +0.000 A 
ATOM     19  C   UNL     1     113.697 124.884 136.959  0.00  0.00    +0.000 A 
ATOM     20  C   UNL     1     114.418 125.524 138.014  0.00  0.00    +0.000 A 
ATOM     21  C   UNL     1     114.406 125.026 137.357  0.00  0.00    +0.000 A 
ENDBRANCH  12  16
ENDBRANCH   1   5
BRANCH   1  28
ATOM     22  O   UNL     1     109.516 128.550 136.689  0.00  0.00    +0.000 OA
ATOM     23  O   UNL     1     109.878 130.634 135.405  0.00  0.00    +0.000 OA
ATOM     24  O   UNL     1     109.017 129.394 134.740  0.00  0.00    +0.000 OA
ATOM     25  C   UNL     1     110.068 129.864 136.595  0.00  0.00    +0.000 C 
ATOM     26  C   UNL     1     109.758 129.939 135.833  0.00  0.00    +0.000 C 
ATOM     27  C   UNL     1     109.327 129.319 135.501  0.00  0.00    +0.000 C 
ATOM     28  C   UNL     1     109.947 129.169 137.023  0.00  0.00    +0.000 C 
ATOM     29  C   UNL     1     109.206 128.624 135.929  0.00  0.00    +0.000 C 
BRANCH  29  31
ATOM     30  O   UNL     1     108.110 127.709 135.984  0.00  0.00    +0.000 OA
ATOM     31  C   UNL     1     108.776 128.005 135.597  0.00  0.00    +0.000 C 
ENDBRANCH  29  31
BRANCH  25  32
ATOM     32  O   UNL     1     110.499 130.484 136.927  0.00  0.00    +0.000 OA
BRANCH  32  38
ATOM     33  O   UNL     1     109.287 131.183 137.381  0.00  0.00    +0.000 OA
ATOM     34  O   UNL     1     109.464 132.887 138.289  0.00  0.00    +0.000 OA
ATOM     35  O   UNL     1     111.267 131.932 137.658  0.00  0.00    +0.000 OA
ATOM     36  C   UNL     1     109.859 132.260 137.925  0.00  0.00    +0.000 C 
ATOM     37  C   UNL     1     110.458 131.777 137.626  0.00  0.00    +0.000 C 
ATOM     38  C   UNL     1     110.104 131.112 137.290  0.00  0.00    +0.000 C 
ATOM     39  C   UNL     1     109.135 131.893 137.774  0.00  0.00    +0.000 C 
BRANCH  36  41
ATOM     40  O   UNL     1     110.189 133.503 138.549  0.00  0.00    +0.000 OA
ATOM     41  C   UNL     1     110.425 132.803 138.182  0.00  0.00    +0.000 C 
ENDBRANCH  36  41
ENDBRANCH  32  38
ENDBRANCH  25  32
ENDBRANCH   1  28
TORSDOF 7
ENDMDL
MODEL 9
REMARK VINA RESULT:      -9.8      6.927      8.731
REMARK  Name = 101248035
REMARK  7 active torsions:
REMARK  status: ('A' for Active; 'I' for Inactive)
REMARK    1  A    between atoms: O_1  and  C_16
REMARK    2  A    between atoms: O_1  and  C_20
REMARK    3  A    between atoms: O_7  and  C_22
REMARK    4  A    between atoms: O_7  and  C_27
REMARK    5  A    between atoms: C_17  and  C_25
REMARK    6  A    between atoms: C_23  and  C_26
REMARK    7  A    between atoms: C_34  and  C_36
REMARK                            x       y       z     vdW  Elec       q    Type
REMARK                         _______ _______ _______ _____ _____    ______ ____
ROOT
ATOM      1  O   UNL     1     112.260 129.672 137.793  0.00  0.00    +0.000 OA
ENDROOT
BRANCH   1   5
ATOM      2  O   UNL     1     112.428 126.765 137.718  0.00  0.00    +0.000 OA
ATOM      3  O   UNL     1     113.667 128.208 139.893  0.00  0.00    +0.000 OA
ATOM      4  O   UNL     1     113.730 126.769 139.823  0.00  0.00    +0.000 OA
ATOM      5  C   UNL     1     112.517 128.961 138.124  0.00  0.00    +0.000 A 
ATOM      6  C   UNL     1     112.334 128.214 137.740  0.00  0.00    +0.000 A 
ATOM      7  C   UNL     1     112.969 128.962 138.854  0.00  0.00    +0.000 A 
ATOM      8  C   UNL     1     112.606 127.478 138.091  0.00  0.00    +0.000 A 
ATOM      9  C   UNL     1     113.232 128.216 139.191  0.00  0.00    +0.000 A 
ATOM     10  C   UNL     1     113.040 127.480 138.793  0.00  0.00    +0.000 A 
ATOM     11  C   UNL     1     113.296 126.768 139.121  0.00  0.00    +0.000 A 
ATOM     12  C   UNL     1     112.684 126.052 138.046  0.00  0.00    +0.000 A 
ATOM     13  C   UNL     1     113.118 126.054 138.748  0.00  0.00    +0.000 A 
BRANCH  12  16
ATOM     14  O   UNL     1     113.428 123.927 136.286  0.00  0.00    +0.000 OA
ATOM     15  O   UNL     1     111.972 123.197 136.553  0.00  0.00    +0.000 OA
ATOM     16  C   UNL     1     112.506 125.338 137.673  0.00  0.00    +0.000 A 
ATOM     17  C   UNL     1     113.056 124.990 137.166  0.00  0.00    +0.000 A 
ATOM     18  C   UNL     1     111.778 124.973 137.807  0.00  0.00    +0.000 A 
ATOM     19  C   UNL     1     112.878 124.276 136.793  0.00  0.00    +0.000 A 
ATOM     20  C   UNL     1     111.601 124.260 137.433  0.00  0.00    +0.000 A 
ATOM     21  C   UNL     1     112.150 123.911 136.926  0.00  0.00    +0.000 A 
ENDBRANCH  12  16
ENDBRANCH   1   5
BRANCH   1  28
ATOM     22  O   UNL     1     113.339 129.759 136.861  0.00  0.00    +0.000 OA
ATOM     23  O   UNL     1     113.208 132.229 136.941  0.00  0.00    +0.000 OA
ATOM     24  O   UNL     1     114.331 131.494 135.983  0.00  0.00    +0.000 OA
ATOM     25  C   UNL     1     112.734 130.950 137.368  0.00  0.00    +0.000 C 
ATOM     26  C   UNL     1     113.252 131.406 136.915  0.00  0.00    +0.000 C 
ATOM     27  C   UNL     1     113.813 131.038 136.435  0.00  0.00    +0.000 C 
ATOM     28  C   UNL     1     112.777 130.127 137.341  0.00  0.00    +0.000 C 
ATOM     29  C   UNL     1     113.857 130.214 136.409  0.00  0.00    +0.000 C 
BRANCH  29  31
ATOM     30  O   UNL     1     114.176 129.354 135.313  0.00  0.00    +0.000 OA
ATOM     31  C   UNL     1     114.418 129.847 135.929  0.00  0.00    +0.000 C 
ENDBRANCH  29  31
BRANCH  25  32
ATOM     32  O   UNL     1     112.172 131.318 137.847  0.00  0.00    +0.000 OA
BRANCH  32  38
ATOM     33  O   UNL     1     111.212 131.463 136.743  0.00  0.00    +0.000 OA
ATOM     34  O   UNL     1     109.484 132.267 137.093  0.00  0.00    +0.000 OA
ATOM     35  O   UNL     1     110.824 132.090 138.746  0.00  0.00    +0.000 OA
ATOM     36  C   UNL     1     110.209 132.037 137.411  0.00  0.00    +0.000 C 
ATOM     37  C   UNL     1     110.827 131.903 137.942  0.00  0.00    +0.000 C 
ATOM     38  C   UNL     1     111.446 131.548 137.529  0.00  0.00    +0.000 C 
ATOM     39  C   UNL     1     110.448 131.765 136.669  0.00  0.00    +0.000 C 
BRANCH  36  41
ATOM     40  O   UNL     1     108.957 132.520 137.900  0.00  0.00    +0.000 OA
ATOM     41  C   UNL     1     109.758 132.367 138.018  0.00  0.00    +0.000 C 
ENDBRANCH  36  41
ENDBRANCH  32  38
ENDBRANCH  25  32
ENDBRANCH   1  28
TORSDOF 7
ENDMDL
MODEL 10
REMARK VINA RESULT:      -9.8      6.143      7.867
REMARK  Name = 101248035
REMARK  7 active torsions:
REMARK  status: ('A' for Active; 'I' for Inactive)
REMARK    1  A    between atoms: O_1  and  C_16
REMARK    2  A    between atoms: O_1  and  C_20
REMARK    3  A    between atoms: O_7  and  C_22
REMARK    4  A    between atoms: O_7  and  C_27
REMARK    5  A    between atoms: C_17  and  C_25
REMARK    6  A    between atoms: C_23  and  C_26
REMARK    7  A    between atoms: C_34  and  C_36
REMARK                            x       y       z     vdW  Elec       q    Type
REMARK                         _______ _______ _______ _____ _____    ______ ____
ROOT
ATOM      1  O   UNL     1     113.044 128.721 138.826  0.00  0.00    +0.000 OA
ENDROOT
BRANCH   1   5
ATOM      2  O   UNL     1     111.000 129.390 136.861  0.00  0.00    +0.000 OA
ATOM      3  O   UNL     1     113.184 127.654 136.111  0.00  0.00    +0.000 OA
ATOM      4  O   UNL     1     112.154 128.006 135.164  0.00  0.00    +0.000 OA
ATOM      5  C   UNL     1     112.735 128.656 138.064  0.00  0.00    +0.000 A 
ATOM      6  C   UNL     1     112.010 129.067 137.853  0.00  0.00    +0.000 A 
ATOM      7  C   UNL     1     113.135 128.175 137.474  0.00  0.00    +0.000 A 
ATOM      8  C   UNL     1     111.696 128.993 137.057  0.00  0.00    +0.000 A 
ATOM      9  C   UNL     1     112.806 128.113 136.683  0.00  0.00    +0.000 A 
ATOM     10  C   UNL     1     112.081 128.532 136.492  0.00  0.00    +0.000 A 
ATOM     11  C   UNL     1     111.770 128.468 135.730  0.00  0.00    +0.000 A 
ATOM     12  C   UNL     1     110.689 129.326 136.100  0.00  0.00    +0.000 A 
ATOM     13  C   UNL     1     111.074 128.865 135.534  0.00  0.00    +0.000 A 
BRANCH  12  16
ATOM     14  O   UNL     1     107.834 129.428 136.028  0.00  0.00    +0.000 OA
ATOM     15  O   UNL     1     107.905 130.915 135.316  0.00  0.00    +0.000 OA
ATOM     16  C   UNL     1     109.993 129.724 135.904  0.00  0.00    +0.000 A 
ATOM     17  C   UNL     1     109.261 129.377 136.064  0.00  0.00    +0.000 A 
ATOM     18  C   UNL     1     110.029 130.467 135.548  0.00  0.00    +0.000 A 
ATOM     19  C   UNL     1     108.565 129.774 135.868  0.00  0.00    +0.000 A 
ATOM     20  C   UNL     1     109.333 130.864 135.352  0.00  0.00    +0.000 A 
ATOM     21  C   UNL     1     108.601 130.518 135.512  0.00  0.00    +0.000 A 
ENDBRANCH  12  16
ENDBRANCH   1   5
BRANCH   1  28
ATOM     22  O   UNL     1     112.263 127.613 139.278  0.00  0.00    +0.000 OA
ATOM     23  O   UNL     1     113.726 127.392 141.263  0.00  0.00    +0.000 OA
ATOM     24  O   UNL     1     112.459 126.358 141.053  0.00  0.00    +0.000 OA
ATOM     25  C   UNL     1     113.385 128.057 140.044  0.00  0.00    +0.000 C 
ATOM     26  C   UNL     1     113.238 127.466 140.601  0.00  0.00    +0.000 C 
ATOM     27  C   UNL     1     112.604 126.949 140.496  0.00  0.00    +0.000 C 
ATOM     28  C   UNL     1     112.897 128.131 139.382  0.00  0.00    +0.000 C 
ATOM     29  C   UNL     1     112.117 127.022 139.834  0.00  0.00    +0.000 C 
BRANCH  29  31
ATOM     30  O   UNL     1     111.541 125.885 139.189  0.00  0.00    +0.000 OA
ATOM     31  C   UNL     1     111.483 126.505 139.730  0.00  0.00    +0.000 C 
ENDBRANCH  29  31
BRANCH  25  32
ATOM     32  O   UNL     1     114.019 128.574 140.149  0.00  0.00    +0.000 OA
BRANCH  32  38
ATOM     33  O   UNL     1     113.248 129.473 141.020  0.00  0.00    +0.000 OA
ATOM     34  O   UNL     1     114.032 131.159 141.570  0.00  0.00    +0.000 OA
ATOM     35  O   UNL     1     115.212 129.906 140.305  0.00  0.00    +0.000 OA
ATOM     36  C   UNL     1     114.135 130.464 141.136  0.00  0.00    +0.000 C 
ATOM     37  C   UNL     1     114.465 129.881 140.654  0.00  0.00    +0.000 C 
ATOM     38  C   UNL     1     113.916 129.269 140.583  0.00  0.00    +0.000 C 
ATOM     39  C   UNL     1     113.382 130.212 141.363  0.00  0.00    +0.000 C 
BRANCH  36  41
ATOM     40  O   UNL     1     114.864 131.662 141.408  0.00  0.00    +0.000 OA
ATOM     41  C   UNL     1     114.819 130.919 141.055  0.00  0.00    +0.000 C 
ENDBRANCH  36  41
ENDBRANCH  32  38
ENDBRANCH  25  32
ENDBRANCH   1  28
TORSDOF 7
ENDMDL
