MODEL 1
REMARK VINA RESULT:      -9.0      0.000      0.000
REMARK  Name = 42608092
REMARK  5 active torsions:
REMARK  status: ('A' for Active; 'I' for Inactive)
REMARK    1  A    between atoms: O_2  and  C_15
REMARK    2  A    between atoms: O_2  and  C_17
REMARK    3  A    between atoms: O_8  and  C_24
REMARK    4  A    between atoms: C_14  and  C_16
REMARK    5  A    between atoms: C_18  and  C_26
REMARK                            x       y       z     vdW  Elec       q    Type
REMARK                         _______ _______ _______ _____ _____    ______ ____
ROOT
ATOM      1  O   UNL     1     104.024 124.383 145.882  0.00  0.00    +0.000 OA
ATOM      2  O   UNL     1     107.164 125.460 146.208  0.00  0.00    +0.000 OA
ATOM      3  O   UNL     1     105.092 124.548 148.172  0.00  0.00    +0.000 OA
ATOM      4  C   UNL     1     106.041 125.140 145.384  0.00  0.00    +0.000 A 
ATOM      5  C   UNL     1     103.570 124.159 146.576  0.00  0.00    +0.000 C 
ATOM      6  C   UNL     1     104.832 124.659 145.976  0.00  0.00    +0.000 A 
ATOM      7  C   UNL     1     105.178 124.712 146.723  0.00  0.00    +0.000 A 
ATOM      8  C   UNL     1     103.929 124.214 147.355  0.00  0.00    +0.000 C 
ATOM      9  C   UNL     1     105.264 124.873 145.306  0.00  0.00    +0.000 A 
ATOM     10  C   UNL     1     106.386 125.193 146.131  0.00  0.00    +0.000 A 
ATOM     11  C   UNL     1     105.955 124.979 146.801  0.00  0.00    +0.000 A 
ATOM     12  C   UNL     1     104.739 124.492 147.428  0.00  0.00    +0.000 C 
ENDROOT
BRANCH   5  13
ATOM     13  C   UNL     1     102.793 123.893 146.496  0.00  0.00    +0.000 A 
ATOM     14  C   UNL     1     102.165 124.383 146.709  0.00  0.00    +0.000 A 
ATOM     15  C   UNL     1     102.645 123.136 146.202  0.00  0.00    +0.000 A 
ATOM     16  C   UNL     1     101.388 124.116 146.629  0.00  0.00    +0.000 A 
ATOM     17  C   UNL     1     101.869 122.869 146.121  0.00  0.00    +0.000 A 
ATOM     18  C   UNL     1     101.240 123.359 146.335  0.00  0.00    +0.000 A 
ENDBRANCH   5  13
BRANCH  11  19
ATOM     19  O   UNL     1     106.301 125.032 147.548  0.00  0.00    +0.000 OA
ATOM     20  C   UNL     1     106.211 125.717 147.997  0.00  0.00    +0.000 C 
ENDBRANCH  11  19
BRANCH   4  21
ATOM     21  O   UNL     1     106.473 125.354 144.714  0.00  0.00    +0.000 OA
BRANCH  21  30
ATOM     22  O   UNL     1     105.888 126.634 144.461  0.00  0.00    +0.000 OA
ATOM     23  O   UNL     1     105.795 126.113 142.043  0.00  0.00    +0.000 OA
ATOM     24  O   UNL     1     105.242 127.565 142.596  0.00  0.00    +0.000 OA
ATOM     25  O   UNL     1     106.411 125.007 143.102  0.00  0.00    +0.000 OA
ATOM     26  C   UNL     1     105.826 126.287 142.849  0.00  0.00    +0.000 C 
ATOM     27  C   UNL     1     105.550 127.013 143.126  0.00  0.00    +0.000 C 
ATOM     28  C   UNL     1     106.134 125.733 143.379  0.00  0.00    +0.000 C 
ATOM     29  C   UNL     1     105.581 127.186 143.932  0.00  0.00    +0.000 C 
ATOM     30  C   UNL     1     106.165 125.907 144.185  0.00  0.00    +0.000 C 
BRANCH  29  32
ATOM     31  O   UNL     1     105.729 128.325 144.782  0.00  0.00    +0.000 OA
ATOM     32  C   UNL     1     105.304 127.912 144.208  0.00  0.00    +0.000 C 
ENDBRANCH  29  32
ENDBRANCH  21  30
ENDBRANCH   4  21
TORSDOF 5
ENDMDL
MODEL 2
REMARK VINA RESULT:      -8.9      9.883     12.050
REMARK  Name = 42608092
REMARK  5 active torsions:
REMARK  status: ('A' for Active; 'I' for Inactive)
REMARK    1  A    between atoms: O_2  and  C_15
REMARK    2  A    between atoms: O_2  and  C_17
REMARK    3  A    between atoms: O_8  and  C_24
REMARK    4  A    between atoms: C_14  and  C_16
REMARK    5  A    between atoms: C_18  and  C_26
REMARK                            x       y       z     vdW  Elec       q    Type
REMARK                         _______ _______ _______ _____ _____    ______ ____
ROOT
ATOM      1  O   UNL     1     112.575 126.585 136.440  0.00  0.00    +0.000 OA
ATOM      2  O   UNL     1     109.637 127.657 135.280  0.00  0.00    +0.000 OA
ATOM      3  O   UNL     1     110.793 124.930 135.732  0.00  0.00    +0.000 OA
ATOM      4  C   UNL     1     110.941 127.930 135.797  0.00  0.00    +0.000 A 
ATOM      5  C   UNL     1     112.734 125.743 136.501  0.00  0.00    +0.000 C 
ATOM      6  C   UNL     1     111.815 126.851 136.140  0.00  0.00    +0.000 A 
ATOM      7  C   UNL     1     111.236 126.310 135.910  0.00  0.00    +0.000 A 
ATOM      8  C   UNL     1     112.131 125.178 136.261  0.00  0.00    +0.000 C 
ATOM      9  C   UNL     1     111.667 127.661 136.083  0.00  0.00    +0.000 A 
ATOM     10  C   UNL     1     110.363 127.388 135.567  0.00  0.00    +0.000 A 
ATOM     11  C   UNL     1     110.510 126.578 135.623  0.00  0.00    +0.000 A 
ATOM     12  C   UNL     1     111.377 125.465 135.964  0.00  0.00    +0.000 C 
ENDROOT
BRANCH   5  13
ATOM     13  C   UNL     1     113.460 125.477 136.787  0.00  0.00    +0.000 A 
ATOM     14  C   UNL     1     114.039 125.213 136.262  0.00  0.00    +0.000 A 
ATOM     15  C   UNL     1     113.608 125.476 137.599  0.00  0.00    +0.000 A 
ATOM     16  C   UNL     1     114.766 124.947 136.549  0.00  0.00    +0.000 A 
ATOM     17  C   UNL     1     114.334 125.211 137.886  0.00  0.00    +0.000 A 
ATOM     18  C   UNL     1     114.913 124.947 137.361  0.00  0.00    +0.000 A 
ENDBRANCH   5  13
BRANCH  11  19
ATOM     19  O   UNL     1     109.932 126.037 135.393  0.00  0.00    +0.000 OA
ATOM     20  C   UNL     1     109.897 125.776 134.612  0.00  0.00    +0.000 C 
ENDBRANCH  11  19
BRANCH   4  21
ATOM     21  O   UNL     1     110.794 128.740 135.740  0.00  0.00    +0.000 OA
BRANCH  21  30
ATOM     22  O   UNL     1     110.460 129.026 137.100  0.00  0.00    +0.000 OA
ATOM     23  O   UNL     1     111.888 131.045 137.026  0.00  0.00    +0.000 OA
ATOM     24  O   UNL     1     111.079 130.658 138.409  0.00  0.00    +0.000 OA
ATOM     25  O   UNL     1     111.746 130.086 135.691  0.00  0.00    +0.000 OA
ATOM     26  C   UNL     1     111.412 130.372 137.051  0.00  0.00    +0.000 C 
ATOM     27  C   UNL     1     111.007 130.178 137.742  0.00  0.00    +0.000 C 
ATOM     28  C   UNL     1     111.341 129.892 136.383  0.00  0.00    +0.000 C 
ATOM     29  C   UNL     1     110.531 129.505 137.767  0.00  0.00    +0.000 C 
ATOM     30  C   UNL     1     110.865 129.219 136.407  0.00  0.00    +0.000 C 
BRANCH  29  32
ATOM     31  O   UNL     1     109.350 129.033 138.420  0.00  0.00    +0.000 OA
ATOM     32  C   UNL     1     110.126 129.312 138.459  0.00  0.00    +0.000 C 
ENDBRANCH  29  32
ENDBRANCH  21  30
ENDBRANCH   4  21
TORSDOF 5
ENDMDL
MODEL 3
REMARK VINA RESULT:      -8.8      2.111      5.199
REMARK  Name = 42608092
REMARK  5 active torsions:
REMARK  status: ('A' for Active; 'I' for Inactive)
REMARK    1  A    between atoms: O_2  and  C_15
REMARK    2  A    between atoms: O_2  and  C_17
REMARK    3  A    between atoms: O_8  and  C_24
REMARK    4  A    between atoms: C_14  and  C_16
REMARK    5  A    between atoms: C_18  and  C_26
REMARK                            x       y       z     vdW  Elec       q    Type
REMARK                         _______ _______ _______ _____ _____    ______ ____
ROOT
ATOM      1  O   UNL     1     104.974 127.825 142.503  0.00  0.00    +0.000 OA
ATOM      2  O   UNL     1     107.739 125.961 142.457  0.00  0.00    +0.000 OA
ATOM      3  O   UNL     1     107.131 128.752 141.552  0.00  0.00    +0.000 OA
ATOM      4  C   UNL     1     106.355 126.120 142.778  0.00  0.00    +0.000 A 
ATOM      5  C   UNL     1     104.988 128.626 142.191  0.00  0.00    +0.000 C 
ATOM      6  C   UNL     1     105.691 127.353 142.487  0.00  0.00    +0.000 A 
ATOM      7  C   UNL     1     106.393 127.656 142.177  0.00  0.00    +0.000 A 
ATOM      8  C   UNL     1     105.718 128.943 141.868  0.00  0.00    +0.000 C 
ATOM      9  C   UNL     1     105.673 126.584 142.787  0.00  0.00    +0.000 A 
ATOM     10  C   UNL     1     107.056 126.425 142.467  0.00  0.00    +0.000 A 
ATOM     11  C   UNL     1     107.075 127.193 142.167  0.00  0.00    +0.000 A 
ATOM     12  C   UNL     1     106.425 128.455 141.861  0.00  0.00    +0.000 C 
ENDROOT
BRANCH   5  13
ATOM     13  C   UNL     1     104.304 129.087 142.202  0.00  0.00    +0.000 A 
ATOM     14  C   UNL     1     103.814 129.115 141.539  0.00  0.00    +0.000 A 
ATOM     15  C   UNL     1     104.110 129.521 142.877  0.00  0.00    +0.000 A 
ATOM     16  C   UNL     1     103.130 129.577 141.550  0.00  0.00    +0.000 A 
ATOM     17  C   UNL     1     103.427 129.983 142.889  0.00  0.00    +0.000 A 
ATOM     18  C   UNL     1     102.937 130.010 142.225  0.00  0.00    +0.000 A 
ENDBRANCH   5  13
BRANCH  11  19
ATOM     19  O   UNL     1     107.777 127.497 141.857  0.00  0.00    +0.000 OA
ATOM     20  C   UNL     1     108.283 127.939 142.335  0.00  0.00    +0.000 C 
ENDBRANCH  11  19
BRANCH   4  21
ATOM     21  O   UNL     1     106.336 125.352 143.078  0.00  0.00    +0.000 OA
BRANCH  21  30
ATOM     22  O   UNL     1     106.393 125.672 144.470  0.00  0.00    +0.000 OA
ATOM     23  O   UNL     1     104.721 123.910 144.943  0.00  0.00    +0.000 OA
ATOM     24  O   UNL     1     105.335 124.817 146.176  0.00  0.00    +0.000 OA
ATOM     25  O   UNL     1     105.222 124.177 143.394  0.00  0.00    +0.000 OA
ATOM     26  C   UNL     1     105.278 124.497 144.785  0.00  0.00    +0.000 C 
ATOM     27  C   UNL     1     105.586 124.951 145.401  0.00  0.00    +0.000 C 
ATOM     28  C   UNL     1     105.529 124.631 144.010  0.00  0.00    +0.000 C 
ATOM     29  C   UNL     1     106.143 125.538 145.244  0.00  0.00    +0.000 C 
ATOM     30  C   UNL     1     106.086 125.219 143.852  0.00  0.00    +0.000 C 
BRANCH  29  32
ATOM     31  O   UNL     1     107.265 126.096 145.931  0.00  0.00    +0.000 OA
ATOM     32  C   UNL     1     106.450 125.992 145.860  0.00  0.00    +0.000 C 
ENDBRANCH  29  32
ENDBRANCH  21  30
ENDBRANCH   4  21
TORSDOF 5
ENDMDL
MODEL 4
REMARK VINA RESULT:      -8.8      9.280     12.769
REMARK  Name = 42608092
REMARK  5 active torsions:
REMARK  status: ('A' for Active; 'I' for Inactive)
REMARK    1  A    between atoms: O_2  and  C_15
REMARK    2  A    between atoms: O_2  and  C_17
REMARK    3  A    between atoms: O_8  and  C_24
REMARK    4  A    between atoms: C_14  and  C_16
REMARK    5  A    between atoms: C_18  and  C_26
REMARK                            x       y       z     vdW  Elec       q    Type
REMARK                         _______ _______ _______ _____ _____    ______ ____
ROOT
ATOM      1  O   UNL     1     112.352 128.192 135.399  0.00  0.00    +0.000 OA
ATOM      2  O   UNL     1     109.229 127.039 135.200  0.00  0.00    +0.000 OA
ATOM      3  O   UNL     1     110.449 129.743 134.777  0.00  0.00    +0.000 OA
ATOM      4  C   UNL     1     110.618 126.820 135.451  0.00  0.00    +0.000 A 
ATOM      5  C   UNL     1     112.518 129.019 135.239  0.00  0.00    +0.000 C 
ATOM      6  C   UNL     1     111.544 127.904 135.345  0.00  0.00    +0.000 A 
ATOM      7  C   UNL     1     110.926 128.411 135.142  0.00  0.00    +0.000 A 
ATOM      8  C   UNL     1     111.875 129.548 135.028  0.00  0.00    +0.000 C 
ATOM      9  C   UNL     1     111.391 127.108 135.499  0.00  0.00    +0.000 A 
ATOM     10  C   UNL     1     110.001 127.328 135.248  0.00  0.00    +0.000 A 
ATOM     11  C   UNL     1     110.155 128.124 135.094  0.00  0.00    +0.000 A 
ATOM     12  C   UNL     1     111.073 129.242 134.979  0.00  0.00    +0.000 C 
ENDROOT
BRANCH   5  13
ATOM     13  C   UNL     1     113.291 129.305 135.288  0.00  0.00    +0.000 A 
ATOM     14  C   UNL     1     113.569 129.622 135.997  0.00  0.00    +0.000 A 
ATOM     15  C   UNL     1     113.785 129.273 134.628  0.00  0.00    +0.000 A 
ATOM     16  C   UNL     1     114.342 129.907 136.046  0.00  0.00    +0.000 A 
ATOM     17  C   UNL     1     114.557 129.559 134.676  0.00  0.00    +0.000 A 
ATOM     18  C   UNL     1     114.835 129.875 135.385  0.00  0.00    +0.000 A 
ENDBRANCH   5  13
BRANCH  11  19
ATOM     19  O   UNL     1     109.536 128.631 134.891  0.00  0.00    +0.000 OA
ATOM     20  C   UNL     1     109.134 129.047 135.478  0.00  0.00    +0.000 C 
ENDBRANCH  11  19
BRANCH   4  21
ATOM     21  O   UNL     1     110.465 126.024 135.605  0.00  0.00    +0.000 OA
BRANCH  21  30
ATOM     22  O   UNL     1     110.497 126.050 137.034  0.00  0.00    +0.000 OA
ATOM     23  O   UNL     1     111.830 123.964 137.041  0.00  0.00    +0.000 OA
ATOM     24  O   UNL     1     111.418 124.685 138.466  0.00  0.00    +0.000 OA
ATOM     25  O   UNL     1     111.353 124.634 135.610  0.00  0.00    +0.000 OA
ATOM     26  C   UNL     1     111.386 124.659 137.038  0.00  0.00    +0.000 C 
ATOM     27  C   UNL     1     111.179 125.020 137.751  0.00  0.00    +0.000 C 
ATOM     28  C   UNL     1     111.147 124.994 136.323  0.00  0.00    +0.000 C 
ATOM     29  C   UNL     1     110.735 125.715 137.749  0.00  0.00    +0.000 C 
ATOM     30  C   UNL     1     110.703 125.690 136.320  0.00  0.00    +0.000 C 
BRANCH  29  32
ATOM     31  O   UNL     1     109.760 126.349 138.579  0.00  0.00    +0.000 OA
ATOM     32  C   UNL     1     110.529 126.075 138.461  0.00  0.00    +0.000 C 
ENDBRANCH  29  32
ENDBRANCH  21  30
ENDBRANCH   4  21
TORSDOF 5
ENDMDL
MODEL 5
REMARK VINA RESULT:      -8.7      1.208      4.371
REMARK  Name = 42608092
REMARK  5 active torsions:
REMARK  status: ('A' for Active; 'I' for Inactive)
REMARK    1  A    between atoms: O_2  and  C_15
REMARK    2  A    between atoms: O_2  and  C_17
REMARK    3  A    between atoms: O_8  and  C_24
REMARK    4  A    between atoms: C_14  and  C_16
REMARK    5  A    between atoms: C_18  and  C_26
REMARK                            x       y       z     vdW  Elec       q    Type
REMARK                         _______ _______ _______ _____ _____    ______ ____
ROOT
ATOM      1  O   UNL     1     105.380 126.335 144.431  0.00  0.00    +0.000 OA
ATOM      2  O   UNL     1     106.488 124.613 147.064  0.00  0.00    +0.000 OA
ATOM      3  O   UNL     1     107.336 127.191 145.793  0.00  0.00    +0.000 OA
ATOM      4  C   UNL     1     105.579 124.760 145.971  0.00  0.00    +0.000 A 
ATOM      5  C   UNL     1     105.757 127.074 144.209  0.00  0.00    +0.000 C 
ATOM      6  C   UNL     1     105.673 125.898 145.111  0.00  0.00    +0.000 A 
ATOM      7  C   UNL     1     106.310 126.179 145.553  0.00  0.00    +0.000 A 
ATOM      8  C   UNL     1     106.421 127.367 144.669  0.00  0.00    +0.000 C 
ATOM      9  C   UNL     1     105.307 125.188 145.320  0.00  0.00    +0.000 A 
ATOM     10  C   UNL     1     106.216 125.042 146.412  0.00  0.00    +0.000 A 
ATOM     11  C   UNL     1     106.582 125.751 146.204  0.00  0.00    +0.000 A 
ATOM     12  C   UNL     1     106.699 126.916 145.346  0.00  0.00    +0.000 C 
ENDROOT
BRANCH   5  13
ATOM     13  C   UNL     1     105.483 127.500 143.557  0.00  0.00    +0.000 A 
ATOM     14  C   UNL     1     105.107 128.226 143.668  0.00  0.00    +0.000 A 
ATOM     15  C   UNL     1     105.585 127.200 142.796  0.00  0.00    +0.000 A 
ATOM     16  C   UNL     1     104.833 128.652 143.016  0.00  0.00    +0.000 A 
ATOM     17  C   UNL     1     105.312 127.625 142.144  0.00  0.00    +0.000 A 
ATOM     18  C   UNL     1     104.936 128.351 142.255  0.00  0.00    +0.000 A 
ENDBRANCH   5  13
BRANCH  11  19
ATOM     19  O   UNL     1     107.219 126.032 146.646  0.00  0.00    +0.000 OA
ATOM     20  C   UNL     1     107.085 126.489 147.319  0.00  0.00    +0.000 C 
ENDBRANCH  11  19
BRANCH   4  21
ATOM     21  O   UNL     1     105.213 124.050 146.180  0.00  0.00    +0.000 OA
BRANCH  21  30
ATOM     22  O   UNL     1     104.061 124.571 146.846  0.00  0.00    +0.000 OA
ATOM     23  O   UNL     1     102.643 122.895 145.704  0.00  0.00    +0.000 OA
ATOM     24  O   UNL     1     101.965 123.974 146.751  0.00  0.00    +0.000 OA
ATOM     25  O   UNL     1     104.268 122.933 145.419  0.00  0.00    +0.000 OA
ATOM     26  C   UNL     1     103.116 123.454 146.085  0.00  0.00    +0.000 C 
ATOM     27  C   UNL     1     102.777 123.994 146.608  0.00  0.00    +0.000 C 
ATOM     28  C   UNL     1     103.929 123.473 145.942  0.00  0.00    +0.000 C 
ATOM     29  C   UNL     1     103.250 124.552 146.989  0.00  0.00    +0.000 C 
ATOM     30  C   UNL     1     104.402 124.032 146.323  0.00  0.00    +0.000 C 
BRANCH  29  32
ATOM     31  O   UNL     1     103.272 125.248 148.237  0.00  0.00    +0.000 OA
ATOM     32  C   UNL     1     102.910 125.092 147.512  0.00  0.00    +0.000 C 
ENDBRANCH  29  32
ENDBRANCH  21  30
ENDBRANCH   4  21
TORSDOF 5
ENDMDL
MODEL 6
REMARK VINA RESULT:      -8.7      8.450     11.250
REMARK  Name = 42608092
REMARK  5 active torsions:
REMARK  status: ('A' for Active; 'I' for Inactive)
REMARK    1  A    between atoms: O_2  and  C_15
REMARK    2  A    between atoms: O_2  and  C_17
REMARK    3  A    between atoms: O_8  and  C_24
REMARK    4  A    between atoms: C_14  and  C_16
REMARK    5  A    between atoms: C_18  and  C_26
REMARK                            x       y       z     vdW  Elec       q    Type
REMARK                         _______ _______ _______ _____ _____    ______ ____
ROOT
ATOM      1  O   UNL     1     111.890 126.422 136.800  0.00  0.00    +0.000 OA
ATOM      2  O   UNL     1     114.421 125.904 138.909  0.00  0.00    +0.000 OA
ATOM      3  O   UNL     1     113.332 124.351 136.589  0.00  0.00    +0.000 OA
ATOM      4  C   UNL     1     113.327 126.705 138.457  0.00  0.00    +0.000 A 
ATOM      5  C   UNL     1     111.722 125.853 136.179  0.00  0.00    +0.000 C 
ATOM      6  C   UNL     1     112.544 126.280 137.338  0.00  0.00    +0.000 A 
ATOM      7  C   UNL     1     113.013 125.604 137.268  0.00  0.00    +0.000 A 
ATOM      8  C   UNL     1     112.209 125.149 136.105  0.00  0.00    +0.000 C 
ATOM      9  C   UNL     1     112.702 126.830 137.933  0.00  0.00    +0.000 A 
ATOM     10  C   UNL     1     113.795 126.029 138.385  0.00  0.00    +0.000 A 
ATOM     11  C   UNL     1     113.638 125.479 137.791  0.00  0.00    +0.000 A 
ATOM     12  C   UNL     1     112.859 125.024 136.653  0.00  0.00    +0.000 C 
ENDROOT
BRANCH   5  13
ATOM     13  C   UNL     1     111.096 125.981 135.657  0.00  0.00    +0.000 A 
ATOM     14  C   UNL     1     111.104 126.636 135.156  0.00  0.00    +0.000 A 
ATOM     15  C   UNL     1     110.461 125.453 135.636  0.00  0.00    +0.000 A 
ATOM     16  C   UNL     1     110.478 126.764 134.634  0.00  0.00    +0.000 A 
ATOM     17  C   UNL     1     109.835 125.580 135.115  0.00  0.00    +0.000 A 
ATOM     18  C   UNL     1     109.844 126.236 134.614  0.00  0.00    +0.000 A 
ENDBRANCH   5  13
BRANCH  11  19
ATOM     19  O   UNL     1     114.106 124.803 137.721  0.00  0.00    +0.000 OA
ATOM     20  C   UNL     1     114.812 124.833 137.295  0.00  0.00    +0.000 C 
ENDBRANCH  11  19
BRANCH   4  21
ATOM     21  O   UNL     1     113.485 127.255 139.051  0.00  0.00    +0.000 OA
BRANCH  21  30
ATOM     22  O   UNL     1     112.436 126.945 139.971  0.00  0.00    +0.000 OA
ATOM     23  O   UNL     1     111.953 129.358 140.235  0.00  0.00    +0.000 OA
ATOM     24  O   UNL     1     111.067 128.243 141.066  0.00  0.00    +0.000 OA
ATOM     25  O   UNL     1     113.163 128.864 139.227  0.00  0.00    +0.000 OA
ATOM     26  C   UNL     1     112.114 128.553 140.147  0.00  0.00    +0.000 C 
ATOM     27  C   UNL     1     111.671 127.996 140.562  0.00  0.00    +0.000 C 
ATOM     28  C   UNL     1     112.719 128.306 139.642  0.00  0.00    +0.000 C 
ATOM     29  C   UNL     1     111.832 127.191 140.474  0.00  0.00    +0.000 C 
ATOM     30  C   UNL     1     112.880 127.502 139.554  0.00  0.00    +0.000 C 
BRANCH  29  32
ATOM     31  O   UNL     1     111.763 125.993 141.250  0.00  0.00    +0.000 OA
ATOM     32  C   UNL     1     111.389 126.634 140.890  0.00  0.00    +0.000 C 
ENDBRANCH  29  32
ENDBRANCH  21  30
ENDBRANCH   4  21
TORSDOF 5
ENDMDL
MODEL 7
REMARK VINA RESULT:      -8.7     10.267     12.574
REMARK  Name = 42608092
REMARK  5 active torsions:
REMARK  status: ('A' for Active; 'I' for Inactive)
REMARK    1  A    between atoms: O_2  and  C_15
REMARK    2  A    between atoms: O_2  and  C_17
REMARK    3  A    between atoms: O_8  and  C_24
REMARK    4  A    between atoms: C_14  and  C_16
REMARK    5  A    between atoms: C_18  and  C_26
REMARK                            x       y       z     vdW  Elec       q    Type
REMARK                         _______ _______ _______ _____ _____    ______ ____
ROOT
ATOM      1  O   UNL     1     113.048 127.167 136.852  0.00  0.00    +0.000 OA
ATOM      2  O   UNL     1     112.810 130.408 136.103  0.00  0.00    +0.000 OA
ATOM      3  O   UNL     1     114.784 128.275 135.378  0.00  0.00    +0.000 OA
ATOM      4  C   UNL     1     112.304 129.248 136.767  0.00  0.00    +0.000 A 
ATOM      5  C   UNL     1     113.700 126.700 136.546  0.00  0.00    +0.000 C 
ATOM      6  C   UNL     1     112.995 128.002 136.654  0.00  0.00    +0.000 A 
ATOM      7  C   UNL     1     113.562 128.360 136.173  0.00  0.00    +0.000 A 
ATOM      8  C   UNL     1     114.291 127.073 136.045  0.00  0.00    +0.000 C 
ATOM      9  C   UNL     1     112.366 128.446 136.951  0.00  0.00    +0.000 A 
ATOM     10  C   UNL     1     112.871 129.606 136.287  0.00  0.00    +0.000 A 
ATOM     11  C   UNL     1     113.500 129.162 135.990  0.00  0.00    +0.000 A 
ATOM     12  C   UNL     1     114.221 127.909 135.858  0.00  0.00    +0.000 C 
ENDROOT
BRANCH   5  13
ATOM     13  C   UNL     1     113.760 125.898 136.731  0.00  0.00    +0.000 A 
ATOM     14  C   UNL     1     114.323 125.641 137.276  0.00  0.00    +0.000 A 
ATOM     15  C   UNL     1     113.255 125.353 136.371  0.00  0.00    +0.000 A 
ATOM     16  C   UNL     1     114.382 124.839 137.461  0.00  0.00    +0.000 A 
ATOM     17  C   UNL     1     113.314 124.552 136.555  0.00  0.00    +0.000 A 
ATOM     18  C   UNL     1     113.877 124.295 137.100  0.00  0.00    +0.000 A 
ENDBRANCH   5  13
BRANCH  11  19
ATOM     19  O   UNL     1     114.067 129.521 135.509  0.00  0.00    +0.000 OA
ATOM     20  C   UNL     1     113.999 129.479 134.689  0.00  0.00    +0.000 C 
ENDBRANCH  11  19
BRANCH   4  21
ATOM     21  O   UNL     1     111.675 129.692 137.064  0.00  0.00    +0.000 OA
BRANCH  21  30
ATOM     22  O   UNL     1     110.659 129.285 136.146  0.00  0.00    +0.000 OA
ATOM     23  O   UNL     1     109.048 129.095 138.016  0.00  0.00    +0.000 OA
ATOM     24  O   UNL     1     108.569 128.751 136.475  0.00  0.00    +0.000 OA
ATOM     25  O   UNL     1     110.601 129.565 138.310  0.00  0.00    +0.000 OA
ATOM     26  C   UNL     1     109.585 129.158 137.392  0.00  0.00    +0.000 C 
ATOM     27  C   UNL     1     109.345 128.987 136.622  0.00  0.00    +0.000 C 
ATOM     28  C   UNL     1     110.362 129.394 137.540  0.00  0.00    +0.000 C 
ATOM     29  C   UNL     1     109.882 129.050 135.999  0.00  0.00    +0.000 C 
ATOM     30  C   UNL     1     110.899 129.457 136.917  0.00  0.00    +0.000 C 
BRANCH  29  32
ATOM     31  O   UNL     1     109.834 129.392 134.612  0.00  0.00    +0.000 OA
ATOM     32  C   UNL     1     109.643 128.878 135.229  0.00  0.00    +0.000 C 
ENDBRANCH  29  32
ENDBRANCH  21  30
ENDBRANCH   4  21
TORSDOF 5
ENDMDL
MODEL 8
REMARK VINA RESULT:      -8.6      8.765     11.347
REMARK  Name = 42608092
REMARK  5 active torsions:
REMARK  status: ('A' for Active; 'I' for Inactive)
REMARK    1  A    between atoms: O_2  and  C_15
REMARK    2  A    between atoms: O_2  and  C_17
REMARK    3  A    between atoms: O_8  and  C_24
REMARK    4  A    between atoms: C_14  and  C_16
REMARK    5  A    between atoms: C_18  and  C_26
REMARK                            x       y       z     vdW  Elec       q    Type
REMARK                         _______ _______ _______ _____ _____    ______ ____
ROOT
ATOM      1  O   UNL     1     113.628 126.547 138.501  0.00  0.00    +0.000 OA
ATOM      2  O   UNL     1     111.517 127.749 140.786  0.00  0.00    +0.000 OA
ATOM      3  O   UNL     1     111.328 125.526 138.786  0.00  0.00    +0.000 OA
ATOM      4  C   UNL     1     112.785 127.784 140.129  0.00  0.00    +0.000 A 
ATOM      5  C   UNL     1     113.396 125.887 138.003  0.00  0.00    +0.000 C 
ATOM      6  C   UNL     1     113.077 126.850 139.087  0.00  0.00    +0.000 A 
ATOM      7  C   UNL     1     112.328 126.516 139.178  0.00  0.00    +0.000 A 
ATOM      8  C   UNL     1     112.616 125.538 138.097  0.00  0.00    +0.000 C 
ATOM      9  C   UNL     1     113.306 127.484 139.562  0.00  0.00    +0.000 A 
ATOM     10  C   UNL     1     112.037 127.449 140.219  0.00  0.00    +0.000 A 
ATOM     11  C   UNL     1     111.809 126.815 139.744  0.00  0.00    +0.000 A 
ATOM     12  C   UNL     1     112.079 125.855 138.689  0.00  0.00    +0.000 C 
ENDROOT
BRANCH   5  13
ATOM     13  C   UNL     1     113.918 125.589 137.438  0.00  0.00    +0.000 A 
ATOM     14  C   UNL     1     113.967 125.944 136.695  0.00  0.00    +0.000 A 
ATOM     15  C   UNL     1     114.390 124.937 137.616  0.00  0.00    +0.000 A 
ATOM     16  C   UNL     1     114.489 125.646 136.129  0.00  0.00    +0.000 A 
ATOM     17  C   UNL     1     114.912 124.639 137.051  0.00  0.00    +0.000 A 
ATOM     18  C   UNL     1     114.962 124.994 136.308  0.00  0.00    +0.000 A 
ENDBRANCH   5  13
BRANCH  11  19
ATOM     19  O   UNL     1     111.060 126.480 139.835  0.00  0.00    +0.000 OA
ATOM     20  C   UNL     1     110.432 126.739 139.366  0.00  0.00    +0.000 C 
ENDBRANCH  11  19
BRANCH   4  21
ATOM     21  O   UNL     1     113.014 128.419 140.604  0.00  0.00    +0.000 OA
BRANCH  21  30
ATOM     22  O   UNL     1     112.955 129.486 139.656  0.00  0.00    +0.000 OA
ATOM     23  O   UNL     1     115.148 130.313 140.451  0.00  0.00    +0.000 OA
ATOM     24  O   UNL     1     114.359 131.103 139.238  0.00  0.00    +0.000 OA
ATOM     25  O   UNL     1     114.476 128.970 141.134  0.00  0.00    +0.000 OA
ATOM     26  C   UNL     1     114.417 130.037 140.186  0.00  0.00    +0.000 C 
ATOM     27  C   UNL     1     114.022 130.432 139.579  0.00  0.00    +0.000 C 
ATOM     28  C   UNL     1     114.081 129.365 140.528  0.00  0.00    +0.000 C 
ATOM     29  C   UNL     1     113.291 130.157 139.314  0.00  0.00    +0.000 C 
ATOM     30  C   UNL     1     113.350 129.090 140.263  0.00  0.00    +0.000 C 
BRANCH  29  32
ATOM     31  O   UNL     1     112.117 130.799 138.814  0.00  0.00    +0.000 OA
ATOM     32  C   UNL     1     112.897 130.552 138.708  0.00  0.00    +0.000 C 
ENDBRANCH  29  32
ENDBRANCH  21  30
ENDBRANCH   4  21
TORSDOF 5
ENDMDL
MODEL 9
REMARK VINA RESULT:      -8.6     10.286     12.437
REMARK  Name = 42608092
REMARK  5 active torsions:
REMARK  status: ('A' for Active; 'I' for Inactive)
REMARK    1  A    between atoms: O_2  and  C_15
REMARK    2  A    between atoms: O_2  and  C_17
REMARK    3  A    between atoms: O_8  and  C_24
REMARK    4  A    between atoms: C_14  and  C_16
REMARK    5  A    between atoms: C_18  and  C_26
REMARK                            x       y       z     vdW  Elec       q    Type
REMARK                         _______ _______ _______ _____ _____    ______ ____
ROOT
ATOM      1  O   UNL     1     113.496 127.362 137.046  0.00  0.00    +0.000 OA
ATOM      2  O   UNL     1     111.583 130.024 136.429  0.00  0.00    +0.000 OA
ATOM      3  O   UNL     1     111.431 127.150 135.595  0.00  0.00    +0.000 OA
ATOM      4  C   UNL     1     112.726 129.436 137.053  0.00  0.00    +0.000 A 
ATOM      5  C   UNL     1     113.291 126.597 136.713  0.00  0.00    +0.000 C 
ATOM      6  C   UNL     1     112.997 128.043 136.882  0.00  0.00    +0.000 A 
ATOM      7  C   UNL     1     112.324 127.971 136.408  0.00  0.00    +0.000 A 
ATOM      8  C   UNL     1     112.592 126.522 136.221  0.00  0.00    +0.000 C 
ATOM      9  C   UNL     1     113.197 128.775 137.204  0.00  0.00    +0.000 A 
ATOM     10  C   UNL     1     112.054 129.363 136.580  0.00  0.00    +0.000 A 
ATOM     11  C   UNL     1     111.853 128.630 136.258  0.00  0.00    +0.000 A 
ATOM     12  C   UNL     1     112.105 127.214 136.067  0.00  0.00    +0.000 C 
ENDROOT
BRANCH   5  13
ATOM     13  C   UNL     1     113.764 125.939 136.866  0.00  0.00    +0.000 A 
ATOM     14  C   UNL     1     114.416 125.779 136.386  0.00  0.00    +0.000 A 
ATOM     15  C   UNL     1     113.586 125.440 137.499  0.00  0.00    +0.000 A 
ATOM     16  C   UNL     1     114.889 125.120 136.538  0.00  0.00    +0.000 A 
ATOM     17  C   UNL     1     114.058 124.782 137.652  0.00  0.00    +0.000 A 
ATOM     18  C   UNL     1     114.710 124.622 137.172  0.00  0.00    +0.000 A 
ENDBRANCH   5  13
BRANCH  11  19
ATOM     19  O   UNL     1     111.181 128.559 135.784  0.00  0.00    +0.000 OA
ATOM     20  C   UNL     1     111.243 128.633 134.966  0.00  0.00    +0.000 C 
ENDBRANCH  11  19
BRANCH   4  21
ATOM     21  O   UNL     1     112.926 130.168 137.375  0.00  0.00    +0.000 OA
BRANCH  21  30
ATOM     22  O   UNL     1     112.478 129.988 138.720  0.00  0.00    +0.000 OA
ATOM     23  O   UNL     1     114.594 130.962 139.556  0.00  0.00    +0.000 OA
ATOM     24  O   UNL     1     113.441 130.457 140.621  0.00  0.00    +0.000 OA
ATOM     25  O   UNL     1     114.337 130.818 137.933  0.00  0.00    +0.000 OA
ATOM     26  C   UNL     1     113.889 130.637 139.277  0.00  0.00    +0.000 C 
ATOM     27  C   UNL     1     113.312 130.385 139.810  0.00  0.00    +0.000 C 
ATOM     28  C   UNL     1     113.760 130.565 138.465  0.00  0.00    +0.000 C 
ATOM     29  C   UNL     1     112.606 130.060 139.531  0.00  0.00    +0.000 C 
ATOM     30  C   UNL     1     113.055 130.240 138.186  0.00  0.00    +0.000 C 
BRANCH  29  32
ATOM     31  O   UNL     1     111.235 129.978 139.924  0.00  0.00    +0.000 OA
ATOM     32  C   UNL     1     112.030 129.808 140.064  0.00  0.00    +0.000 C 
ENDBRANCH  29  32
ENDBRANCH  21  30
ENDBRANCH   4  21
TORSDOF 5
ENDMDL
MODEL 10
REMARK VINA RESULT:      -8.6      9.511     12.524
REMARK  Name = 42608092
REMARK  5 active torsions:
REMARK  status: ('A' for Active; 'I' for Inactive)
REMARK    1  A    between atoms: O_2  and  C_15
REMARK    2  A    between atoms: O_2  and  C_17
REMARK    3  A    between atoms: O_8  and  C_24
REMARK    4  A    between atoms: C_14  and  C_16
REMARK    5  A    between atoms: C_18  and  C_26
REMARK                            x       y       z     vdW  Elec       q    Type
REMARK                         _______ _______ _______ _____ _____    ______ ____
ROOT
ATOM      1  O   UNL     1     111.544 129.806 135.765  0.00  0.00    +0.000 OA
ATOM      2  O   UNL     1     108.231 130.162 135.906  0.00  0.00    +0.000 OA
ATOM      3  O   UNL     1     110.020 128.026 134.804  0.00  0.00    +0.000 OA
ATOM      4  C   UNL     1     109.544 130.652 136.183  0.00  0.00    +0.000 A 
ATOM      5  C   UNL     1     111.888 129.108 135.401  0.00  0.00    +0.000 C 
ATOM      6  C   UNL     1     110.689 129.889 135.796  0.00  0.00    +0.000 A 
ATOM      7  C   UNL     1     110.194 129.307 135.483  0.00  0.00    +0.000 A 
ATOM      8  C   UNL     1     111.374 128.502 135.074  0.00  0.00    +0.000 C 
ATOM      9  C   UNL     1     110.364 130.561 136.147  0.00  0.00    +0.000 A 
ATOM     10  C   UNL     1     109.051 130.070 135.869  0.00  0.00    +0.000 A 
ATOM     11  C   UNL     1     109.376 129.398 135.519  0.00  0.00    +0.000 A 
ATOM     12  C   UNL     1     110.521 128.603 135.116  0.00  0.00    +0.000 C 
ENDROOT
BRANCH   5  13
ATOM     13  C   UNL     1     112.708 129.020 135.366  0.00  0.00    +0.000 A 
ATOM     14  C   UNL     1     113.100 128.576 135.941  0.00  0.00    +0.000 A 
ATOM     15  C   UNL     1     113.135 129.376 134.757  0.00  0.00    +0.000 A 
ATOM     16  C   UNL     1     113.919 128.487 135.905  0.00  0.00    +0.000 A 
ATOM     17  C   UNL     1     113.954 129.288 134.722  0.00  0.00    +0.000 A 
ATOM     18  C   UNL     1     114.346 128.844 135.296  0.00  0.00    +0.000 A 
ENDBRANCH   5  13
BRANCH  11  19
ATOM     19  O   UNL     1     108.881 128.817 135.205  0.00  0.00    +0.000 OA
ATOM     20  C   UNL     1     108.671 128.163 135.662  0.00  0.00    +0.000 C 
ENDBRANCH  11  19
BRANCH   4  21
ATOM     21  O   UNL     1     109.218 131.325 136.533  0.00  0.00    +0.000 OA
BRANCH  21  30
ATOM     22  O   UNL     1     109.261 130.959 137.914  0.00  0.00    +0.000 OA
ATOM     23  O   UNL     1     110.220 133.172 138.471  0.00  0.00    +0.000 OA
ATOM     24  O   UNL     1     109.943 132.068 139.665  0.00  0.00    +0.000 OA
ATOM     25  O   UNL     1     109.858 132.800 136.904  0.00  0.00    +0.000 OA
ATOM     26  C   UNL     1     109.900 132.434 138.285  0.00  0.00    +0.000 C 
ATOM     27  C   UNL     1     109.762 131.882 138.882  0.00  0.00    +0.000 C 
ATOM     28  C   UNL     1     109.719 132.248 137.501  0.00  0.00    +0.000 C 
ATOM     29  C   UNL     1     109.442 131.145 138.697  0.00  0.00    +0.000 C 
ATOM     30  C   UNL     1     109.399 131.510 137.316  0.00  0.00    +0.000 C 
BRANCH  29  32
ATOM     31  O   UNL     1     108.610 130.146 139.291  0.00  0.00    +0.000 OA
ATOM     32  C   UNL     1     109.303 130.593 139.294  0.00  0.00    +0.000 C 
ENDBRANCH  29  32
ENDBRANCH  21  30
ENDBRANCH   4  21
TORSDOF 5
ENDMDL
