MODEL 1
REMARK VINA RESULT:     -10.7      0.000      0.000
REMARK  Name = 10327769
REMARK  8 active torsions:
REMARK  status: ('A' for Active; 'I' for Inactive)
REMARK    1  A    between atoms: O_1  and  C_21
REMARK    2  A    between atoms: O_1  and  C_24
REMARK    3  A    between atoms: O_4  and  C_25
REMARK    4  A    between atoms: O_4  and  C_38
REMARK    5  A    between atoms: O_12  and  C_37
REMARK    6  A    between atoms: O_12  and  C_43
REMARK    7  A    between atoms: C_26  and  C_31
REMARK    8  A    between atoms: C_40  and  C_47
REMARK                            x       y       z     vdW  Elec       q    Type
REMARK                         _______ _______ _______ _____ _____    ______ ____
ROOT
ATOM      1  O   UNL     1     112.622 127.981 139.392  0.00  0.00    +0.000 OA
ATOM      2  O   UNL     1     111.706 129.690 137.852  0.00  0.00    +0.000 OA
ATOM      3  O   UNL     1     112.084 130.749 138.756  0.00  0.00    +0.000 OA
ATOM      4  C   UNL     1     111.971 128.321 138.166  0.00  0.00    +0.000 A 
ATOM      5  C   UNL     1     112.276 127.751 138.679  0.00  0.00    +0.000 A 
ATOM      6  C   UNL     1     112.011 129.120 138.366  0.00  0.00    +0.000 A 
ATOM      7  C   UNL     1     112.357 129.350 139.079  0.00  0.00    +0.000 A 
ATOM      8  C   UNL     1     113.069 129.838 140.552  0.00  0.00    +0.000 A 
ATOM      9  C   UNL     1     112.662 128.781 139.592  0.00  0.00    +0.000 A 
ATOM     10  C   UNL     1     113.024 129.007 140.338  0.00  0.00    +0.000 A 
ATOM     11  C   UNL     1     112.392 130.186 139.276  0.00  0.00    +0.000 A 
ATOM     12  C   UNL     1     112.751 130.432 140.017  0.00  0.00    +0.000 A 
ENDROOT
BRANCH   5  15
ATOM     13  O   UNL     1     110.831 125.286 138.616  0.00  0.00    +0.000 OA
ATOM     14  O   UNL     1     112.112 124.554 137.878  0.00  0.00    +0.000 OA
ATOM     15  C   UNL     1     112.236 126.952 138.479  0.00  0.00    +0.000 A 
ATOM     16  C   UNL     1     111.554 126.519 138.647  0.00  0.00    +0.000 A 
ATOM     17  C   UNL     1     112.877 126.586 138.110  0.00  0.00    +0.000 A 
ATOM     18  C   UNL     1     111.513 125.720 138.447  0.00  0.00    +0.000 A 
ATOM     19  C   UNL     1     112.835 125.786 137.910  0.00  0.00    +0.000 A 
ATOM     20  C   UNL     1     112.154 125.353 138.078  0.00  0.00    +0.000 A 
ENDBRANCH   5  15
BRANCH   4  21
ATOM     21  O   UNL     1     111.625 128.091 137.452  0.00  0.00    +0.000 OA
BRANCH  21  28
ATOM     22  O   UNL     1     112.695 128.531 136.613  0.00  0.00    +0.000 OA
ATOM     23  O   UNL     1     111.060 129.180 134.871  0.00  0.00    +0.000 OA
ATOM     24  O   UNL     1     112.674 129.404 134.612  0.00  0.00    +0.000 OA
ATOM     25  C   UNL     1     111.343 128.635 136.163  0.00  0.00    +0.000 C 
ATOM     26  C   UNL     1     111.605 128.964 135.452  0.00  0.00    +0.000 C 
ATOM     27  C   UNL     1     112.412 129.076 135.323  0.00  0.00    +0.000 C 
ATOM     28  C   UNL     1     111.888 128.419 136.743  0.00  0.00    +0.000 C 
ATOM     29  C   UNL     1     112.957 128.859 135.903  0.00  0.00    +0.000 C 
BRANCH  29  31
ATOM     30  O   UNL     1     114.262 128.321 135.681  0.00  0.00    +0.000 OA
ATOM     31  C   UNL     1     113.764 128.972 135.773  0.00  0.00    +0.000 C 
ENDBRANCH  29  31
BRANCH  25  32
ATOM     32  O   UNL     1     110.536 128.523 136.292  0.00  0.00    +0.000 OA
BRANCH  32  37
ATOM     33  O   UNL     1     110.578 127.321 135.522  0.00  0.00    +0.000 OA
ATOM     34  O   UNL     1     108.931 128.277 136.588  0.00  0.00    +0.000 OA
ATOM     35  O   UNL     1     108.171 126.951 135.966  0.00  0.00    +0.000 OA
ATOM     36  O   UNL     1     109.016 125.871 135.048  0.00  0.00    +0.000 OA
ATOM     37  C   UNL     1     110.156 127.860 135.981  0.00  0.00    +0.000 C 
ATOM     38  C   UNL     1     109.353 127.738 136.129  0.00  0.00    +0.000 C 
ATOM     39  C   UNL     1     108.973 127.075 135.819  0.00  0.00    +0.000 C 
ATOM     40  C   UNL     1     109.396 126.534 135.359  0.00  0.00    +0.000 C 
ATOM     41  C   UNL     1     110.198 126.658 135.211  0.00  0.00    +0.000 C 
ATOM     42  C   UNL     1     110.620 126.117 134.752  0.00  0.00    +0.000 C 
ENDBRANCH  32  37
ENDBRANCH  25  32
ENDBRANCH  21  28
ENDBRANCH   4  21
BRANCH   8  43
ATOM     43  O   UNL     1     113.415 130.065 141.265  0.00  0.00    +0.000 OA
BRANCH  43  52
ATOM     44  O   UNL     1     112.388 129.727 142.200  0.00  0.00    +0.000 OA
ATOM     45  O   UNL     1     112.614 131.954 143.255  0.00  0.00    +0.000 OA
ATOM     46  O   UNL     1     111.511 130.873 143.838  0.00  0.00    +0.000 OA
ATOM     47  O   UNL     1     113.565 131.550 141.969  0.00  0.00    +0.000 OA
ATOM     48  C   UNL     1     112.538 131.212 142.903  0.00  0.00    +0.000 C 
ATOM     49  C   UNL     1     111.987 130.671 143.195  0.00  0.00    +0.000 C 
ATOM     50  C   UNL     1     113.014 131.009 142.260  0.00  0.00    +0.000 C 
ATOM     51  C   UNL     1     111.911 129.929 142.843  0.00  0.00    +0.000 C 
ATOM     52  C   UNL     1     112.939 130.268 141.908  0.00  0.00    +0.000 C 
ATOM     53  C   UNL     1     111.360 129.388 143.134  0.00  0.00    +0.000 C 
ENDBRANCH  43  52
ENDBRANCH   8  43
TORSDOF 8
ENDMDL
MODEL 2
REMARK VINA RESULT:     -10.7      1.289      2.440
REMARK  Name = 10327769
REMARK  8 active torsions:
REMARK  status: ('A' for Active; 'I' for Inactive)
REMARK    1  A    between atoms: O_1  and  C_21
REMARK    2  A    between atoms: O_1  and  C_24
REMARK    3  A    between atoms: O_4  and  C_25
REMARK    4  A    between atoms: O_4  and  C_38
REMARK    5  A    between atoms: O_12  and  C_37
REMARK    6  A    between atoms: O_12  and  C_43
REMARK    7  A    between atoms: C_26  and  C_31
REMARK    8  A    between atoms: C_40  and  C_47
REMARK                            x       y       z     vdW  Elec       q    Type
REMARK                         _______ _______ _______ _____ _____    ______ ____
ROOT
ATOM      1  O   UNL     1     111.361 129.626 139.279  0.00  0.00    +0.000 OA
ATOM      2  O   UNL     1     113.387 128.245 138.937  0.00  0.00    +0.000 OA
ATOM      3  O   UNL     1     114.037 128.869 140.064  0.00  0.00    +0.000 OA
ATOM      4  C   UNL     1     112.064 128.619 138.547  0.00  0.00    +0.000 A 
ATOM      5  C   UNL     1     111.388 129.079 138.662  0.00  0.00    +0.000 A 
ATOM      6  C   UNL     1     112.712 128.706 139.051  0.00  0.00    +0.000 A 
ATOM      7  C   UNL     1     112.684 129.252 139.668  0.00  0.00    +0.000 A 
ATOM      8  C   UNL     1     112.640 130.380 140.949  0.00  0.00    +0.000 A 
ATOM      9  C   UNL     1     112.010 129.712 139.782  0.00  0.00    +0.000 A 
ATOM     10  C   UNL     1     111.968 130.285 140.422  0.00  0.00    +0.000 A 
ATOM     11  C   UNL     1     113.366 129.333 140.186  0.00  0.00    +0.000 A 
ATOM     12  C   UNL     1     113.344 129.900 140.830  0.00  0.00    +0.000 A 
ENDROOT
BRANCH   5  15
ATOM     13  O   UNL     1     109.056 127.637 137.858  0.00  0.00    +0.000 OA
ATOM     14  O   UNL     1     108.797 128.729 136.648  0.00  0.00    +0.000 OA
ATOM     15  C   UNL     1     110.741 128.992 138.158  0.00  0.00    +0.000 A 
ATOM     16  C   UNL     1     110.222 128.358 138.260  0.00  0.00    +0.000 A 
ATOM     17  C   UNL     1     110.612 129.538 137.553  0.00  0.00    +0.000 A 
ATOM     18  C   UNL     1     109.575 128.271 137.756  0.00  0.00    +0.000 A 
ATOM     19  C   UNL     1     109.964 129.450 137.050  0.00  0.00    +0.000 A 
ATOM     20  C   UNL     1     109.445 128.817 137.152  0.00  0.00    +0.000 A 
ENDBRANCH   5  15
BRANCH   4  21
ATOM     21  O   UNL     1     112.092 128.072 137.930  0.00  0.00    +0.000 OA
BRANCH  21  28
ATOM     22  O   UNL     1     112.931 128.858 137.082  0.00  0.00    +0.000 OA
ATOM     23  O   UNL     1     113.991 126.794 136.220  0.00  0.00    +0.000 OA
ATOM     24  O   UNL     1     114.477 128.267 135.658  0.00  0.00    +0.000 OA
ATOM     25  C   UNL     1     113.041 127.433 137.075  0.00  0.00    +0.000 C 
ATOM     26  C   UNL     1     113.638 127.482 136.507  0.00  0.00    +0.000 C 
ATOM     27  C   UNL     1     113.880 128.219 136.227  0.00  0.00    +0.000 C 
ATOM     28  C   UNL     1     112.687 128.121 137.363  0.00  0.00    +0.000 C 
ATOM     29  C   UNL     1     113.527 128.907 136.514  0.00  0.00    +0.000 C 
BRANCH  29  31
ATOM     30  O   UNL     1     113.228 130.147 135.871  0.00  0.00    +0.000 OA
ATOM     31  C   UNL     1     113.771 129.643 136.233  0.00  0.00    +0.000 C 
ENDBRANCH  29  31
BRANCH  25  32
ATOM     32  O   UNL     1     112.798 126.696 137.355  0.00  0.00    +0.000 OA
BRANCH  32  37
ATOM     33  O   UNL     1     111.962 126.529 136.209  0.00  0.00    +0.000 OA
ATOM     34  O   UNL     1     112.452 125.155 137.832  0.00  0.00    +0.000 OA
ATOM     35  O   UNL     1     111.442 124.218 136.924  0.00  0.00    +0.000 OA
ATOM     36  O   UNL     1     110.779 124.821 135.539  0.00  0.00    +0.000 OA
ATOM     37  C   UNL     1     112.293 126.228 136.901  0.00  0.00    +0.000 C 
ATOM     38  C   UNL     1     112.120 125.457 137.141  0.00  0.00    +0.000 C 
ATOM     39  C   UNL     1     111.616 124.988 136.686  0.00  0.00    +0.000 C 
ATOM     40  C   UNL     1     111.284 125.290 135.993  0.00  0.00    +0.000 C 
ATOM     41  C   UNL     1     111.457 126.060 135.755  0.00  0.00    +0.000 C 
ATOM     42  C   UNL     1     111.125 126.362 135.062  0.00  0.00    +0.000 C 
ENDBRANCH  32  37
ENDBRANCH  25  32
ENDBRANCH  21  28
ENDBRANCH   4  21
BRANCH   8  43
ATOM     43  O   UNL     1     112.610 130.927 141.566  0.00  0.00    +0.000 OA
BRANCH  43  52
ATOM     44  O   UNL     1     112.197 130.022 142.591  0.00  0.00    +0.000 OA
ATOM     45  O   UNL     1     110.735 131.773 143.550  0.00  0.00    +0.000 OA
ATOM     46  O   UNL     1     110.810 130.284 144.256  0.00  0.00    +0.000 OA
ATOM     47  O   UNL     1     111.635 132.095 142.205  0.00  0.00    +0.000 OA
ATOM     48  C   UNL     1     111.222 131.189 143.231  0.00  0.00    +0.000 C 
ATOM     49  C   UNL     1     111.260 130.444 143.584  0.00  0.00    +0.000 C 
ATOM     50  C   UNL     1     111.672 131.350 142.558  0.00  0.00    +0.000 C 
ATOM     51  C   UNL     1     111.747 129.860 143.264  0.00  0.00    +0.000 C 
ATOM     52  C   UNL     1     112.160 130.767 142.238  0.00  0.00    +0.000 C 
ATOM     53  C   UNL     1     111.785 129.116 143.617  0.00  0.00    +0.000 C 
ENDBRANCH  43  52
ENDBRANCH   8  43
TORSDOF 8
ENDMDL
MODEL 3
REMARK VINA RESULT:     -10.6      2.262      5.146
REMARK  Name = 10327769
REMARK  8 active torsions:
REMARK  status: ('A' for Active; 'I' for Inactive)
REMARK    1  A    between atoms: O_1  and  C_21
REMARK    2  A    between atoms: O_1  and  C_24
REMARK    3  A    between atoms: O_4  and  C_25
REMARK    4  A    between atoms: O_4  and  C_38
REMARK    5  A    between atoms: O_12  and  C_37
REMARK    6  A    between atoms: O_12  and  C_43
REMARK    7  A    between atoms: C_26  and  C_31
REMARK    8  A    between atoms: C_40  and  C_47
REMARK                            x       y       z     vdW  Elec       q    Type
REMARK                         _______ _______ _______ _____ _____    ______ ____
ROOT
ATOM      1  O   UNL     1     111.413 129.799 136.880  0.00  0.00    +0.000 OA
ATOM      2  O   UNL     1     110.579 128.143 138.521  0.00  0.00    +0.000 OA
ATOM      3  O   UNL     1     109.446 128.980 138.832  0.00  0.00    +0.000 OA
ATOM      4  C   UNL     1     111.553 128.547 137.556  0.00  0.00    +0.000 A 
ATOM      5  C   UNL     1     111.831 129.100 137.009  0.00  0.00    +0.000 A 
ATOM      6  C   UNL     1     110.857 128.696 137.974  0.00  0.00    +0.000 A 
ATOM      7  C   UNL     1     110.440 129.395 137.845  0.00  0.00    +0.000 A 
ATOM      8  C   UNL     1     109.566 130.839 137.588  0.00  0.00    +0.000 A 
ATOM      9  C   UNL     1     110.717 129.947 137.299  0.00  0.00    +0.000 A 
ATOM     10  C   UNL     1     110.291 130.680 137.156  0.00  0.00    +0.000 A 
ATOM     11  C   UNL     1     109.716 129.537 138.287  0.00  0.00    +0.000 A 
ATOM     12  C   UNL     1     109.276 130.264 138.158  0.00  0.00    +0.000 A 
ENDROOT
BRANCH   5  15
ATOM     13  O   UNL     1     114.630 129.534 136.631  0.00  0.00    +0.000 OA
ATOM     14  O   UNL     1     114.615 128.508 135.339  0.00  0.00    +0.000 OA
ATOM     15  C   UNL     1     112.526 128.951 136.591  0.00  0.00    +0.000 A 
ATOM     16  C   UNL     1     113.231 129.317 136.820  0.00  0.00    +0.000 A 
ATOM     17  C   UNL     1     112.519 128.438 135.945  0.00  0.00    +0.000 A 
ATOM     18  C   UNL     1     113.926 129.168 136.403  0.00  0.00    +0.000 A 
ATOM     19  C   UNL     1     113.215 128.291 135.528  0.00  0.00    +0.000 A 
ATOM     20  C   UNL     1     113.919 128.655 135.756  0.00  0.00    +0.000 A 
ENDBRANCH   5  15
BRANCH   4  21
ATOM     21  O   UNL     1     111.971 127.848 137.685  0.00  0.00    +0.000 OA
BRANCH  21  28
ATOM     22  O   UNL     1     112.530 128.220 138.946  0.00  0.00    +0.000 OA
ATOM     23  O   UNL     1     112.294 125.887 139.739  0.00  0.00    +0.000 OA
ATOM     24  O   UNL     1     112.931 127.037 140.736  0.00  0.00    +0.000 OA
ATOM     25  C   UNL     1     112.132 126.868 138.711  0.00  0.00    +0.000 C 
ATOM     26  C   UNL     1     112.373 126.664 139.474  0.00  0.00    +0.000 C 
ATOM     27  C   UNL     1     112.691 127.240 139.973  0.00  0.00    +0.000 C 
ATOM     28  C   UNL     1     112.211 127.645 138.447  0.00  0.00    +0.000 C 
ATOM     29  C   UNL     1     112.770 128.017 139.708  0.00  0.00    +0.000 C 
BRANCH  29  31
ATOM     30  O   UNL     1     113.801 128.958 140.014  0.00  0.00    +0.000 OA
ATOM     31  C   UNL     1     113.088 128.592 140.208  0.00  0.00    +0.000 C 
ENDBRANCH  29  31
BRANCH  25  32
ATOM     32  O   UNL     1     111.814 126.292 138.213  0.00  0.00    +0.000 OA
BRANCH  32  37
ATOM     33  O   UNL     1     113.129 125.830 137.903  0.00  0.00    +0.000 OA
ATOM     34  O   UNL     1     111.173 125.109 137.257  0.00  0.00    +0.000 OA
ATOM     35  O   UNL     1     112.169 124.056 136.470  0.00  0.00    +0.000 OA
ATOM     36  O   UNL     1     113.805 124.185 136.637  0.00  0.00    +0.000 OA
ATOM     37  C   UNL     1     112.312 125.765 137.819  0.00  0.00    +0.000 C 
ATOM     38  C   UNL     1     111.991 125.174 137.341  0.00  0.00    +0.000 C 
ATOM     39  C   UNL     1     112.489 124.647 136.947  0.00  0.00    +0.000 C 
ATOM     40  C   UNL     1     113.308 124.712 137.031  0.00  0.00    +0.000 C 
ATOM     41  C   UNL     1     113.627 125.303 137.509  0.00  0.00    +0.000 C 
ATOM     42  C   UNL     1     114.446 125.368 137.593  0.00  0.00    +0.000 C 
ENDBRANCH  32  37
ENDBRANCH  25  32
ENDBRANCH  21  28
ENDBRANCH   4  21
BRANCH   8  43
ATOM     43  O   UNL     1     109.150 131.540 137.458  0.00  0.00    +0.000 OA
BRANCH  43  52
ATOM     44  O   UNL     1     109.009 131.563 136.036  0.00  0.00    +0.000 OA
ATOM     45  O   UNL     1     106.579 131.964 136.284  0.00  0.00    +0.000 OA
ATOM     46  O   UNL     1     107.247 131.854 134.779  0.00  0.00    +0.000 OA
ATOM     47  O   UNL     1     107.531 131.807 137.623  0.00  0.00    +0.000 OA
ATOM     48  C   UNL     1     107.389 131.830 136.201  0.00  0.00    +0.000 C 
ATOM     49  C   UNL     1     107.723 131.775 135.449  0.00  0.00    +0.000 C 
ATOM     50  C   UNL     1     107.865 131.752 136.870  0.00  0.00    +0.000 C 
ATOM     51  C   UNL     1     108.533 131.641 135.366  0.00  0.00    +0.000 C 
ATOM     52  C   UNL     1     108.675 131.618 136.788  0.00  0.00    +0.000 C 
ATOM     53  C   UNL     1     108.867 131.586 134.613  0.00  0.00    +0.000 C 
ENDBRANCH  43  52
ENDBRANCH   8  43
TORSDOF 8
ENDMDL
MODEL 4
REMARK VINA RESULT:     -10.5      1.808      2.912
REMARK  Name = 10327769
REMARK  8 active torsions:
REMARK  status: ('A' for Active; 'I' for Inactive)
REMARK    1  A    between atoms: O_1  and  C_21
REMARK    2  A    between atoms: O_1  and  C_24
REMARK    3  A    between atoms: O_4  and  C_25
REMARK    4  A    between atoms: O_4  and  C_38
REMARK    5  A    between atoms: O_12  and  C_37
REMARK    6  A    between atoms: O_12  and  C_43
REMARK    7  A    between atoms: C_26  and  C_31
REMARK    8  A    between atoms: C_40  and  C_47
REMARK                            x       y       z     vdW  Elec       q    Type
REMARK                         _______ _______ _______ _____ _____    ______ ____
ROOT
ATOM      1  O   UNL     1     111.286 130.161 139.273  0.00  0.00    +0.000 OA
ATOM      2  O   UNL     1     108.996 129.413 138.702  0.00  0.00    +0.000 OA
ATOM      3  O   UNL     1     108.464 130.046 139.884  0.00  0.00    +0.000 OA
ATOM      4  C   UNL     1     110.392 129.469 138.399  0.00  0.00    +0.000 A 
ATOM      5  C   UNL     1     111.155 129.718 138.589  0.00  0.00    +0.000 A 
ATOM      6  C   UNL     1     109.760 129.662 138.892  0.00  0.00    +0.000 A 
ATOM      7  C   UNL     1     109.891 130.105 139.576  0.00  0.00    +0.000 A 
ATOM      8  C   UNL     1     110.149 131.021 140.994  0.00  0.00    +0.000 A 
ATOM      9  C   UNL     1     110.653 130.354 139.766  0.00  0.00    +0.000 A 
ATOM     10  C   UNL     1     110.803 130.816 140.476  0.00  0.00    +0.000 A 
ATOM     11  C   UNL     1     109.224 130.300 140.082  0.00  0.00    +0.000 A 
ATOM     12  C   UNL     1     109.353 130.761 140.795  0.00  0.00    +0.000 A 
ENDROOT
BRANCH   5  15
ATOM     13  O   UNL     1     112.946 130.416 136.474  0.00  0.00    +0.000 OA
ATOM     14  O   UNL     1     113.683 128.946 136.613  0.00  0.00    +0.000 OA
ATOM     15  C   UNL     1     111.787 129.525 138.096  0.00  0.00    +0.000 A 
ATOM     16  C   UNL     1     112.051 130.067 137.532  0.00  0.00    +0.000 A 
ATOM     17  C   UNL     1     112.156 128.790 138.165  0.00  0.00    +0.000 A 
ATOM     18  C   UNL     1     112.682 129.873 137.038  0.00  0.00    +0.000 A 
ATOM     19  C   UNL     1     112.788 128.597 137.671  0.00  0.00    +0.000 A 
ATOM     20  C   UNL     1     113.051 129.139 137.108  0.00  0.00    +0.000 A 
ENDBRANCH   5  15
BRANCH   4  21
ATOM     21  O   UNL     1     110.261 129.026 137.715  0.00  0.00    +0.000 OA
BRANCH  21  28
ATOM     22  O   UNL     1     109.665 130.088 136.968  0.00  0.00    +0.000 OA
ATOM     23  O   UNL     1     108.179 128.461 135.841  0.00  0.00    +0.000 OA
ATOM     24  O   UNL     1     108.078 130.065 135.469  0.00  0.00    +0.000 OA
ATOM     25  C   UNL     1     109.221 128.743 136.778  0.00  0.00    +0.000 C 
ATOM     26  C   UNL     1     108.674 129.003 136.217  0.00  0.00    +0.000 C 
ATOM     27  C   UNL     1     108.624 129.805 136.031  0.00  0.00    +0.000 C 
ATOM     28  C   UNL     1     109.716 129.286 137.154  0.00  0.00    +0.000 C 
ATOM     29  C   UNL     1     109.119 130.348 136.407  0.00  0.00    +0.000 C 
BRANCH  29  31
ATOM     30  O   UNL     1     109.720 131.542 135.902  0.00  0.00    +0.000 OA
ATOM     31  C   UNL     1     109.068 131.150 136.220  0.00  0.00    +0.000 C 
ENDBRANCH  29  31
BRANCH  25  32
ATOM     32  O   UNL     1     109.271 127.941 136.964  0.00  0.00    +0.000 OA
BRANCH  32  37
ATOM     33  O   UNL     1     110.055 127.717 135.791  0.00  0.00    +0.000 OA
ATOM     34  O   UNL     1     109.438 126.353 137.380  0.00  0.00    +0.000 OA
ATOM     35  O   UNL     1     110.307 125.335 136.415  0.00  0.00    +0.000 OA
ATOM     36  O   UNL     1     111.007 125.904 135.033  0.00  0.00    +0.000 OA
ATOM     37  C   UNL     1     109.705 127.432 136.481  0.00  0.00    +0.000 C 
ATOM     38  C   UNL     1     109.788 126.638 136.690  0.00  0.00    +0.000 C 
ATOM     39  C   UNL     1     110.222 126.129 136.207  0.00  0.00    +0.000 C 
ATOM     40  C   UNL     1     110.573 126.414 135.516  0.00  0.00    +0.000 C 
ATOM     41  C   UNL     1     110.489 127.207 135.309  0.00  0.00    +0.000 C 
ATOM     42  C   UNL     1     110.839 127.492 134.617  0.00  0.00    +0.000 C 
ENDBRANCH  32  37
ENDBRANCH  25  32
ENDBRANCH  21  28
ENDBRANCH   4  21
BRANCH   8  43
ATOM     43  O   UNL     1     110.282 131.463 141.677  0.00  0.00    +0.000 OA
BRANCH  43  52
ATOM     44  O   UNL     1     110.453 130.360 142.569  0.00  0.00    +0.000 OA
ATOM     45  O   UNL     1     112.220 131.606 143.773  0.00  0.00    +0.000 OA
ATOM     46  O   UNL     1     111.801 130.087 144.264  0.00  0.00    +0.000 OA
ATOM     47  O   UNL     1     111.460 132.294 142.480  0.00  0.00    +0.000 OA
ATOM     48  C   UNL     1     111.631 131.190 143.372  0.00  0.00    +0.000 C 
ATOM     49  C   UNL     1     111.421 130.431 143.617  0.00  0.00    +0.000 C 
ATOM     50  C   UNL     1     111.251 131.534 142.725  0.00  0.00    +0.000 C 
ATOM     51  C   UNL     1     110.832 130.015 143.216  0.00  0.00    +0.000 C 
ATOM     52  C   UNL     1     110.662 131.120 142.324  0.00  0.00    +0.000 C 
ATOM     53  C   UNL     1     110.623 129.256 143.461  0.00  0.00    +0.000 C 
ENDBRANCH  43  52
ENDBRANCH   8  43
TORSDOF 8
ENDMDL
MODEL 5
REMARK VINA RESULT:     -10.5      1.878      6.488
REMARK  Name = 10327769
REMARK  8 active torsions:
REMARK  status: ('A' for Active; 'I' for Inactive)
REMARK    1  A    between atoms: O_1  and  C_21
REMARK    2  A    between atoms: O_1  and  C_24
REMARK    3  A    between atoms: O_4  and  C_25
REMARK    4  A    between atoms: O_4  and  C_38
REMARK    5  A    between atoms: O_12  and  C_37
REMARK    6  A    between atoms: O_12  and  C_43
REMARK    7  A    between atoms: C_26  and  C_31
REMARK    8  A    between atoms: C_40  and  C_47
REMARK                            x       y       z     vdW  Elec       q    Type
REMARK                         _______ _______ _______ _____ _____    ______ ____
ROOT
ATOM      1  O   UNL     1     112.771 128.356 138.721  0.00  0.00    +0.000 OA
ATOM      2  O   UNL     1     110.490 128.332 139.683  0.00  0.00    +0.000 OA
ATOM      3  O   UNL     1     110.021 127.475 138.621  0.00  0.00    +0.000 OA
ATOM      4  C   UNL     1     111.850 128.768 139.733  0.00  0.00    +0.000 A 
ATOM      5  C   UNL     1     112.610 128.776 139.413  0.00  0.00    +0.000 A 
ATOM      6  C   UNL     1     111.251 128.340 139.362  0.00  0.00    +0.000 A 
ATOM      7  C   UNL     1     111.411 127.920 138.670  0.00  0.00    +0.000 A 
ATOM      8  C   UNL     1     111.731 127.047 137.239  0.00  0.00    +0.000 A 
ATOM      9  C   UNL     1     112.171 127.928 138.350  0.00  0.00    +0.000 A 
ATOM     10  C   UNL     1     112.352 127.495 137.630  0.00  0.00    +0.000 A 
ATOM     11  C   UNL     1     110.778 127.478 138.293  0.00  0.00    +0.000 A 
ATOM     12  C   UNL     1     110.939 127.038 137.572  0.00  0.00    +0.000 A 
ENDROOT
BRANCH   5  15
ATOM     13  O   UNL     1     114.229 131.125 139.587  0.00  0.00    +0.000 OA
ATOM     14  O   UNL     1     115.007 130.492 140.898  0.00  0.00    +0.000 OA
ATOM     15  C   UNL     1     113.209 129.204 139.784  0.00  0.00    +0.000 A 
ATOM     16  C   UNL     1     113.420 129.951 139.500  0.00  0.00    +0.000 A 
ATOM     17  C   UNL     1     113.598 128.888 140.440  0.00  0.00    +0.000 A 
ATOM     18  C   UNL     1     114.019 130.379 139.872  0.00  0.00    +0.000 A 
ATOM     19  C   UNL     1     114.197 129.317 140.811  0.00  0.00    +0.000 A 
ATOM     20  C   UNL     1     114.408 130.062 140.527  0.00  0.00    +0.000 A 
ENDBRANCH   5  15
BRANCH   4  21
ATOM     21  O   UNL     1     111.689 129.188 140.425  0.00  0.00    +0.000 OA
BRANCH  21  28
ATOM     22  O   UNL     1     110.974 130.258 139.802  0.00  0.00    +0.000 OA
ATOM     23  O   UNL     1     109.453 130.375 141.751  0.00  0.00    +0.000 OA
ATOM     24  O   UNL     1     109.245 131.405 140.479  0.00  0.00    +0.000 OA
ATOM     25  C   UNL     1     110.571 129.781 141.088  0.00  0.00    +0.000 C 
ATOM     26  C   UNL     1     109.960 130.336 141.102  0.00  0.00    +0.000 C 
ATOM     27  C   UNL     1     109.857 130.851 140.465  0.00  0.00    +0.000 C 
ATOM     28  C   UNL     1     111.079 129.742 140.438  0.00  0.00    +0.000 C 
ATOM     29  C   UNL     1     110.364 130.811 139.816  0.00  0.00    +0.000 C 
BRANCH  29  31
ATOM     30  O   UNL     1     110.866 131.841 138.961  0.00  0.00    +0.000 OA
ATOM     31  C   UNL     1     110.260 131.327 139.180  0.00  0.00    +0.000 C 
ENDBRANCH  29  31
BRANCH  25  32
ATOM     32  O   UNL     1     110.675 129.267 141.724  0.00  0.00    +0.000 OA
BRANCH  32  37
ATOM     33  O   UNL     1     111.364 130.288 142.446  0.00  0.00    +0.000 OA
ATOM     34  O   UNL     1     110.730 128.290 143.053  0.00  0.00    +0.000 OA
ATOM     35  O   UNL     1     111.448 128.824 144.440  0.00  0.00    +0.000 OA
ATOM     36  O   UNL     1     112.109 130.334 144.498  0.00  0.00    +0.000 OA
ATOM     37  C   UNL     1     111.033 129.534 142.417  0.00  0.00    +0.000 C 
ATOM     38  C   UNL     1     111.061 129.045 143.082  0.00  0.00    +0.000 C 
ATOM     39  C   UNL     1     111.419 129.312 143.775  0.00  0.00    +0.000 C 
ATOM     40  C   UNL     1     111.750 130.067 143.804  0.00  0.00    +0.000 C 
ATOM     41  C   UNL     1     111.722 130.555 143.140  0.00  0.00    +0.000 C 
ATOM     42  C   UNL     1     112.053 131.311 143.169  0.00  0.00    +0.000 C 
ENDBRANCH  32  37
ENDBRANCH  25  32
ENDBRANCH  21  28
ENDBRANCH   4  21
BRANCH   8  43
ATOM     43  O   UNL     1     111.895 126.628 136.547  0.00  0.00    +0.000 OA
BRANCH  43  52
ATOM     44  O   UNL     1     112.878 125.690 136.989  0.00  0.00    +0.000 OA
ATOM     45  O   UNL     1     111.604 123.853 135.927  0.00  0.00    +0.000 OA
ATOM     46  O   UNL     1     113.012 123.527 136.722  0.00  0.00    +0.000 OA
ATOM     47  O   UNL     1     111.046 125.403 135.839  0.00  0.00    +0.000 OA
ATOM     48  C   UNL     1     112.029 124.465 136.281  0.00  0.00    +0.000 C 
ATOM     49  C   UNL     1     112.733 124.302 136.679  0.00  0.00    +0.000 C 
ATOM     50  C   UNL     1     111.750 125.240 136.237  0.00  0.00    +0.000 C 
ATOM     51  C   UNL     1     113.158 124.914 137.033  0.00  0.00    +0.000 C 
ATOM     52  C   UNL     1     112.174 125.853 136.591  0.00  0.00    +0.000 C 
ATOM     53  C   UNL     1     113.862 124.752 137.431  0.00  0.00    +0.000 C 
ENDBRANCH  43  52
ENDBRANCH   8  43
TORSDOF 8
ENDMDL
MODEL 6
REMARK VINA RESULT:     -10.5      2.425      4.775
REMARK  Name = 10327769
REMARK  8 active torsions:
REMARK  status: ('A' for Active; 'I' for Inactive)
REMARK    1  A    between atoms: O_1  and  C_21
REMARK    2  A    between atoms: O_1  and  C_24
REMARK    3  A    between atoms: O_4  and  C_25
REMARK    4  A    between atoms: O_4  and  C_38
REMARK    5  A    between atoms: O_12  and  C_37
REMARK    6  A    between atoms: O_12  and  C_43
REMARK    7  A    between atoms: C_26  and  C_31
REMARK    8  A    between atoms: C_40  and  C_47
REMARK                            x       y       z     vdW  Elec       q    Type
REMARK                         _______ _______ _______ _____ _____    ______ ____
ROOT
ATOM      1  O   UNL     1     111.676 129.832 143.229  0.00  0.00    +0.000 OA
ATOM      2  O   UNL     1     111.585 131.687 141.592  0.00  0.00    +0.000 OA
ATOM      3  O   UNL     1     111.672 132.663 142.651  0.00  0.00    +0.000 OA
ATOM      4  C   UNL     1     111.587 130.287 141.876  0.00  0.00    +0.000 A 
ATOM      5  C   UNL     1     111.617 129.668 142.422  0.00  0.00    +0.000 A 
ATOM      6  C   UNL     1     111.615 131.068 142.138  0.00  0.00    +0.000 A 
ATOM      7  C   UNL     1     111.674 131.232 142.944  0.00  0.00    +0.000 A 
ATOM      8  C   UNL     1     111.796 131.584 144.610  0.00  0.00    +0.000 A 
ATOM      9  C   UNL     1     111.704 130.614 143.489  0.00  0.00    +0.000 A 
ATOM     10  C   UNL     1     111.766 130.771 144.333  0.00  0.00    +0.000 A 
ATOM     11  C   UNL     1     111.703 132.051 143.203  0.00  0.00    +0.000 A 
ATOM     12  C   UNL     1     111.764 132.229 144.042  0.00  0.00    +0.000 A 
ENDROOT
BRANCH   5  15
ATOM     13  O   UNL     1     110.134 127.272 141.943  0.00  0.00    +0.000 OA
ATOM     14  O   UNL     1     111.500 126.540 141.376  0.00  0.00    +0.000 OA
ATOM     15  C   UNL     1     111.588 128.886 142.161  0.00  0.00    +0.000 A 
ATOM     16  C   UNL     1     110.876 128.470 142.183  0.00  0.00    +0.000 A 
ATOM     17  C   UNL     1     112.271 128.520 141.877  0.00  0.00    +0.000 A 
ATOM     18  C   UNL     1     110.847 127.688 141.921  0.00  0.00    +0.000 A 
ATOM     19  C   UNL     1     112.241 127.738 141.616  0.00  0.00    +0.000 A 
ATOM     20  C   UNL     1     111.530 127.322 141.638  0.00  0.00    +0.000 A 
ENDBRANCH   5  15
BRANCH   4  21
ATOM     21  O   UNL     1     111.528 130.123 141.070  0.00  0.00    +0.000 OA
BRANCH  21  28
ATOM     22  O   UNL     1     110.145 130.458 140.941  0.00  0.00    +0.000 OA
ATOM     23  O   UNL     1     110.575 131.364 138.679  0.00  0.00    +0.000 OA
ATOM     24  O   UNL     1     109.048 131.397 139.304  0.00  0.00    +0.000 OA
ATOM     25  C   UNL     1     111.052 130.743 139.875  0.00  0.00    +0.000 C 
ATOM     26  C   UNL     1     110.432 131.062 139.433  0.00  0.00    +0.000 C 
ATOM     27  C   UNL     1     109.669 131.078 139.746  0.00  0.00    +0.000 C 
ATOM     28  C   UNL     1     110.908 130.441 140.629  0.00  0.00    +0.000 C 
ATOM     29  C   UNL     1     109.525 130.776 140.500  0.00  0.00    +0.000 C 
BRANCH  29  31
ATOM     30  O   UNL     1     108.365 130.087 140.972  0.00  0.00    +0.000 OA
ATOM     31  C   UNL     1     108.762 130.792 140.812  0.00  0.00    +0.000 C 
ENDBRANCH  29  31
BRANCH  25  32
ATOM     32  O   UNL     1     111.815 130.727 139.562  0.00  0.00    +0.000 OA
BRANCH  32  37
ATOM     33  O   UNL     1     111.498 129.541 138.832  0.00  0.00    +0.000 OA
ATOM     34  O   UNL     1     113.274 130.808 138.796  0.00  0.00    +0.000 OA
ATOM     35  O   UNL     1     113.687 129.662 137.683  0.00  0.00    +0.000 OA
ATOM     36  O   UNL     1     112.640 128.434 137.336  0.00  0.00    +0.000 OA
ATOM     37  C   UNL     1     112.021 130.154 139.005  0.00  0.00    +0.000 C 
ATOM     38  C   UNL     1     112.751 130.195 138.623  0.00  0.00    +0.000 C 
ATOM     39  C   UNL     1     112.958 129.622 138.066  0.00  0.00    +0.000 C 
ATOM     40  C   UNL     1     112.434 129.008 137.893  0.00  0.00    +0.000 C 
ATOM     41  C   UNL     1     111.704 128.968 138.276  0.00  0.00    +0.000 C 
ATOM     42  C   UNL     1     111.180 128.354 138.102  0.00  0.00    +0.000 C 
ENDBRANCH  32  37
ENDBRANCH  25  32
ENDBRANCH  21  28
ENDBRANCH   4  21
BRANCH   8  43
ATOM     43  O   UNL     1     111.854 131.745 145.417  0.00  0.00    +0.000 OA
BRANCH  43  52
ATOM     44  O   UNL     1     110.459 131.943 145.655  0.00  0.00    +0.000 OA
ATOM     45  O   UNL     1     110.989 133.752 147.258  0.00  0.00    +0.000 OA
ATOM     46  O   UNL     1     109.417 133.348 146.961  0.00  0.00    +0.000 OA
ATOM     47  O   UNL     1     112.207 132.951 146.486  0.00  0.00    +0.000 OA
ATOM     48  C   UNL     1     110.812 133.149 146.724  0.00  0.00    +0.000 C 
ATOM     49  C   UNL     1     110.026 132.947 146.575  0.00  0.00    +0.000 C 
ATOM     50  C   UNL     1     111.421 132.748 146.338  0.00  0.00    +0.000 C 
ATOM     51  C   UNL     1     109.849 132.344 146.041  0.00  0.00    +0.000 C 
ATOM     52  C   UNL     1     111.245 132.146 145.803  0.00  0.00    +0.000 C 
ATOM     53  C   UNL     1     109.063 132.142 145.892  0.00  0.00    +0.000 C 
ENDBRANCH  43  52
ENDBRANCH   8  43
TORSDOF 8
ENDMDL
MODEL 7
REMARK VINA RESULT:     -10.4      5.112      7.332
REMARK  Name = 10327769
REMARK  8 active torsions:
REMARK  status: ('A' for Active; 'I' for Inactive)
REMARK    1  A    between atoms: O_1  and  C_21
REMARK    2  A    between atoms: O_1  and  C_24
REMARK    3  A    between atoms: O_4  and  C_25
REMARK    4  A    between atoms: O_4  and  C_38
REMARK    5  A    between atoms: O_12  and  C_37
REMARK    6  A    between atoms: O_12  and  C_43
REMARK    7  A    between atoms: C_26  and  C_31
REMARK    8  A    between atoms: C_40  and  C_47
REMARK                            x       y       z     vdW  Elec       q    Type
REMARK                         _______ _______ _______ _____ _____    ______ ____
ROOT
ATOM      1  O   UNL     1     109.344 131.500 145.808  0.00  0.00    +0.000 OA
ATOM      2  O   UNL     1     110.309 131.843 143.555  0.00  0.00    +0.000 OA
ATOM      3  O   UNL     1     111.145 132.913 144.044  0.00  0.00    +0.000 OA
ATOM      4  C   UNL     1     109.418 131.144 144.426  0.00  0.00    +0.000 A 
ATOM      5  C   UNL     1     109.096 131.029 145.178  0.00  0.00    +0.000 A 
ATOM      6  C   UNL     1     109.987 131.729 144.306  0.00  0.00    +0.000 A 
ATOM      7  C   UNL     1     110.235 132.199 144.937  0.00  0.00    +0.000 A 
ATOM      8  C   UNL     1     110.754 133.180 146.234  0.00  0.00    +0.000 A 
ATOM      9  C   UNL     1     109.913 132.085 145.687  0.00  0.00    +0.000 A 
ATOM     10  C   UNL     1     110.162 132.569 146.354  0.00  0.00    +0.000 A 
ATOM     11  C   UNL     1     110.828 132.805 144.799  0.00  0.00    +0.000 A 
ATOM     12  C   UNL     1     111.090 133.299 145.451  0.00  0.00    +0.000 A 
ENDROOT
BRANCH   5  15
ATOM     13  O   UNL     1     108.412 128.367 145.958  0.00  0.00    +0.000 OA
ATOM     14  O   UNL     1     106.822 128.687 145.657  0.00  0.00    +0.000 OA
ATOM     15  C   UNL     1     108.527 130.444 145.297  0.00  0.00    +0.000 A 
ATOM     16  C   UNL     1     108.754 129.698 145.568  0.00  0.00    +0.000 A 
ATOM     17  C   UNL     1     107.732 130.604 145.146  0.00  0.00    +0.000 A 
ATOM     18  C   UNL     1     108.185 129.113 145.688  0.00  0.00    +0.000 A 
ATOM     19  C   UNL     1     107.164 130.018 145.266  0.00  0.00    +0.000 A 
ATOM     20  C   UNL     1     107.390 129.273 145.537  0.00  0.00    +0.000 A 
ENDBRANCH   5  15
BRANCH   4  21
ATOM     21  O   UNL     1     109.171 130.673 143.795  0.00  0.00    +0.000 OA
BRANCH  21  28
ATOM     22  O   UNL     1     110.367 129.895 143.716  0.00  0.00    +0.000 OA
ATOM     23  O   UNL     1     110.113 129.755 141.258  0.00  0.00    +0.000 OA
ATOM     24  O   UNL     1     111.393 129.023 141.997  0.00  0.00    +0.000 OA
ATOM     25  C   UNL     1     109.641 130.214 142.527  0.00  0.00    +0.000 C 
ATOM     26  C   UNL     1     110.197 129.802 142.077  0.00  0.00    +0.000 C 
ATOM     27  C   UNL     1     110.837 129.436 142.447  0.00  0.00    +0.000 C 
ATOM     28  C   UNL     1     109.726 130.261 143.346  0.00  0.00    +0.000 C 
ATOM     29  C   UNL     1     110.922 129.482 143.267  0.00  0.00    +0.000 C 
BRANCH  29  31
ATOM     30  O   UNL     1     111.434 128.554 144.225  0.00  0.00    +0.000 OA
ATOM     31  C   UNL     1     111.563 129.116 143.636  0.00  0.00    +0.000 C 
ENDBRANCH  29  31
BRANCH  25  32
ATOM     32  O   UNL     1     109.002 130.580 142.157  0.00  0.00    +0.000 OA
BRANCH  32  37
ATOM     33  O   UNL     1     108.317 129.328 142.097  0.00  0.00    +0.000 OA
ATOM     34  O   UNL     1     107.687 131.329 141.498  0.00  0.00    +0.000 OA
ATOM     35  O   UNL     1     106.345 130.451 141.110  0.00  0.00    +0.000 OA
ATOM     36  O   UNL     1     106.318 128.824 141.379  0.00  0.00    +0.000 OA
ATOM     37  C   UNL     1     108.331 130.141 141.962  0.00  0.00    +0.000 C 
ATOM     38  C   UNL     1     107.674 130.516 141.633  0.00  0.00    +0.000 C 
ATOM     39  C   UNL     1     107.003 130.077 141.439  0.00  0.00    +0.000 C 
ATOM     40  C   UNL     1     106.989 129.263 141.574  0.00  0.00    +0.000 C 
ATOM     41  C   UNL     1     107.646 128.889 141.903  0.00  0.00    +0.000 C 
ATOM     42  C   UNL     1     107.632 128.074 142.038  0.00  0.00    +0.000 C 
ENDBRANCH  32  37
ENDBRANCH  25  32
ENDBRANCH  21  28
ENDBRANCH   4  21
BRANCH   8  43
ATOM     43  O   UNL     1     111.000 133.649 146.867  0.00  0.00    +0.000 OA
BRANCH  43  52
ATOM     44  O   UNL     1     112.168 132.901 147.210  0.00  0.00    +0.000 OA
ATOM     45  O   UNL     1     111.705 133.279 149.612  0.00  0.00    +0.000 OA
ATOM     46  O   UNL     1     113.028 132.405 149.154  0.00  0.00    +0.000 OA
ATOM     47  O   UNL     1     110.691 133.901 148.468  0.00  0.00    +0.000 OA
ATOM     48  C   UNL     1     111.860 133.153 148.811  0.00  0.00    +0.000 C 
ATOM     49  C   UNL     1     112.521 132.716 148.582  0.00  0.00    +0.000 C 
ATOM     50  C   UNL     1     111.353 133.464 148.239  0.00  0.00    +0.000 C 
ATOM     51  C   UNL     1     112.676 132.590 147.782  0.00  0.00    +0.000 C 
ATOM     52  C   UNL     1     111.507 133.338 147.439  0.00  0.00    +0.000 C 
ATOM     53  C   UNL     1     113.337 132.153 147.553  0.00  0.00    +0.000 C 
ENDBRANCH  43  52
ENDBRANCH   8  43
TORSDOF 8
ENDMDL
MODEL 8
REMARK VINA RESULT:     -10.4      2.177      4.090
REMARK  Name = 10327769
REMARK  8 active torsions:
REMARK  status: ('A' for Active; 'I' for Inactive)
REMARK    1  A    between atoms: O_1  and  C_21
REMARK    2  A    between atoms: O_1  and  C_24
REMARK    3  A    between atoms: O_4  and  C_25
REMARK    4  A    between atoms: O_4  and  C_38
REMARK    5  A    between atoms: O_12  and  C_37
REMARK    6  A    between atoms: O_12  and  C_43
REMARK    7  A    between atoms: C_26  and  C_31
REMARK    8  A    between atoms: C_40  and  C_47
REMARK                            x       y       z     vdW  Elec       q    Type
REMARK                         _______ _______ _______ _____ _____    ______ ____
ROOT
ATOM      1  O   UNL     1     111.577 129.570 143.107  0.00  0.00    +0.000 OA
ATOM      2  O   UNL     1     111.741 131.357 141.401  0.00  0.00    +0.000 OA
ATOM      3  O   UNL     1     111.844 132.366 142.427  0.00  0.00    +0.000 OA
ATOM      4  C   UNL     1     111.609 129.974 141.736  0.00  0.00    +0.000 A 
ATOM      5  C   UNL     1     111.555 129.378 142.305  0.00  0.00    +0.000 A 
ATOM      6  C   UNL     1     111.687 130.761 141.970  0.00  0.00    +0.000 A 
ATOM      7  C   UNL     1     111.709 130.953 142.772  0.00  0.00    +0.000 A 
ATOM      8  C   UNL     1     111.757 131.363 144.429  0.00  0.00    +0.000 A 
ATOM      9  C   UNL     1     111.654 130.358 143.340  0.00  0.00    +0.000 A 
ATOM     10  C   UNL     1     111.677 130.544 144.179  0.00  0.00    +0.000 A 
ATOM     11  C   UNL     1     111.790 131.777 143.003  0.00  0.00    +0.000 A 
ATOM     12  C   UNL     1     111.814 131.984 143.836  0.00  0.00    +0.000 A 
ENDROOT
BRANCH   5  15
ATOM     13  O   UNL     1     109.908 127.192 141.480  0.00  0.00    +0.000 OA
ATOM     14  O   UNL     1     111.243 126.229 141.368  0.00  0.00    +0.000 OA
ATOM     15  C   UNL     1     111.477 128.591 142.071  0.00  0.00    +0.000 A 
ATOM     16  C   UNL     1     110.731 128.285 141.892  0.00  0.00    +0.000 A 
ATOM     17  C   UNL     1     112.145 128.109 142.015  0.00  0.00    +0.000 A 
ATOM     18  C   UNL     1     110.654 127.498 141.658  0.00  0.00    +0.000 A 
ATOM     19  C   UNL     1     112.066 127.322 141.781  0.00  0.00    +0.000 A 
ATOM     20  C   UNL     1     111.322 127.016 141.602  0.00  0.00    +0.000 A 
ENDBRANCH   5  15
BRANCH   4  21
ATOM     21  O   UNL     1     111.587 129.782 140.934  0.00  0.00    +0.000 OA
BRANCH  21  28
ATOM     22  O   UNL     1     112.980 129.997 140.700  0.00  0.00    +0.000 OA
ATOM     23  O   UNL     1     112.474 130.787 138.410  0.00  0.00    +0.000 OA
ATOM     24  O   UNL     1     114.036 130.739 138.939  0.00  0.00    +0.000 OA
ATOM     25  C   UNL     1     112.030 130.284 139.673  0.00  0.00    +0.000 C 
ATOM     26  C   UNL     1     112.642 130.523 139.173  0.00  0.00    +0.000 C 
ATOM     27  C   UNL     1     113.423 130.499 139.438  0.00  0.00    +0.000 C 
ATOM     28  C   UNL     1     112.199 130.021 140.436  0.00  0.00    +0.000 C 
ATOM     29  C   UNL     1     113.592 130.236 140.202  0.00  0.00    +0.000 C 
BRANCH  29  31
ATOM     30  O   UNL     1     114.714 129.493 140.683  0.00  0.00    +0.000 OA
ATOM     31  C   UNL     1     114.373 130.212 140.466  0.00  0.00    +0.000 C 
ENDBRANCH  29  31
BRANCH  25  32
ATOM     32  O   UNL     1     111.249 130.308 139.407  0.00  0.00    +0.000 OA
BRANCH  32  37
ATOM     33  O   UNL     1     111.446 129.076 138.712  0.00  0.00    +0.000 OA
ATOM     34  O   UNL     1     109.685 130.353 138.885  0.00  0.00    +0.000 OA
ATOM     35  O   UNL     1     109.099 129.143 137.929  0.00  0.00    +0.000 OA
ATOM     36  O   UNL     1     110.078 127.887 137.495  0.00  0.00    +0.000 OA
ATOM     37  C   UNL     1     110.956 129.703 138.929  0.00  0.00    +0.000 C 
ATOM     38  C   UNL     1     110.174 129.726 138.668  0.00  0.00    +0.000 C 
ATOM     39  C   UNL     1     109.881 129.121 138.190  0.00  0.00    +0.000 C 
ATOM     40  C   UNL     1     110.371 128.493 137.973  0.00  0.00    +0.000 C 
ATOM     41  C   UNL     1     111.153 128.471 138.234  0.00  0.00    +0.000 C 
ATOM     42  C   UNL     1     111.642 127.842 138.017  0.00  0.00    +0.000 C 
ENDBRANCH  32  37
ENDBRANCH  25  32
ENDBRANCH  21  28
ENDBRANCH   4  21
BRANCH   8  43
ATOM     43  O   UNL     1     111.779 131.552 145.231  0.00  0.00    +0.000 OA
BRANCH  43  52
ATOM     44  O   UNL     1     110.374 131.727 145.428  0.00  0.00    +0.000 OA
ATOM     45  O   UNL     1     110.821 133.660 146.907  0.00  0.00    +0.000 OA
ATOM     46  O   UNL     1     109.267 133.191 146.610  0.00  0.00    +0.000 OA
ATOM     47  O   UNL     1     112.076 132.840 146.218  0.00  0.00    +0.000 OA
ATOM     48  C   UNL     1     110.672 133.015 146.414  0.00  0.00    +0.000 C 
ATOM     49  C   UNL     1     109.895 132.781 146.265  0.00  0.00    +0.000 C 
ATOM     50  C   UNL     1     111.300 132.606 146.069  0.00  0.00    +0.000 C 
ATOM     51  C   UNL     1     109.746 132.136 145.772  0.00  0.00    +0.000 C 
ATOM     52  C   UNL     1     111.151 131.962 145.576  0.00  0.00    +0.000 C 
ATOM     53  C   UNL     1     108.969 131.902 145.623  0.00  0.00    +0.000 C 
ENDBRANCH  43  52
ENDBRANCH   8  43
TORSDOF 8
ENDMDL
MODEL 9
REMARK VINA RESULT:     -10.4      2.638      5.518
REMARK  Name = 10327769
REMARK  8 active torsions:
REMARK  status: ('A' for Active; 'I' for Inactive)
REMARK    1  A    between atoms: O_1  and  C_21
REMARK    2  A    between atoms: O_1  and  C_24
REMARK    3  A    between atoms: O_4  and  C_25
REMARK    4  A    between atoms: O_4  and  C_38
REMARK    5  A    between atoms: O_12  and  C_37
REMARK    6  A    between atoms: O_12  and  C_43
REMARK    7  A    between atoms: C_26  and  C_31
REMARK    8  A    between atoms: C_40  and  C_47
REMARK                            x       y       z     vdW  Elec       q    Type
REMARK                         _______ _______ _______ _____ _____    ______ ____
ROOT
ATOM      1  O   UNL     1     112.567 128.401 137.681  0.00  0.00    +0.000 OA
ATOM      2  O   UNL     1     110.128 128.480 138.100  0.00  0.00    +0.000 OA
ATOM      3  O   UNL     1     110.131 127.108 138.545  0.00  0.00    +0.000 OA
ATOM      4  C   UNL     1     111.332 129.121 137.672  0.00  0.00    +0.000 A 
ATOM      5  C   UNL     1     112.145 129.094 137.533  0.00  0.00    +0.000 A 
ATOM      6  C   UNL     1     110.941 128.454 137.960  0.00  0.00    +0.000 A 
ATOM      7  C   UNL     1     111.363 127.760 138.109  0.00  0.00    +0.000 A 
ATOM      8  C   UNL     1     112.224 126.320 138.420  0.00  0.00    +0.000 A 
ATOM      9  C   UNL     1     112.175 127.734 137.969  0.00  0.00    +0.000 A 
ATOM     10  C   UNL     1     112.626 127.017 138.120  0.00  0.00    +0.000 A 
ATOM     11  C   UNL     1     110.944 127.072 138.408  0.00  0.00    +0.000 A 
ATOM     12  C   UNL     1     111.377 126.347 138.565  0.00  0.00    +0.000 A 
ENDROOT
BRANCH   5  15
ATOM     13  O   UNL     1     113.500 131.565 138.009  0.00  0.00    +0.000 OA
ATOM     14  O   UNL     1     113.708 131.764 136.384  0.00  0.00    +0.000 OA
ATOM     15  C   UNL     1     112.536 129.761 137.245  0.00  0.00    +0.000 A 
ATOM     16  C   UNL     1     112.823 130.330 137.771  0.00  0.00    +0.000 A 
ATOM     17  C   UNL     1     112.640 129.861 136.433  0.00  0.00    +0.000 A 
ATOM     18  C   UNL     1     113.213 130.997 137.483  0.00  0.00    +0.000 A 
ATOM     19  C   UNL     1     113.031 130.529 136.146  0.00  0.00    +0.000 A 
ATOM     20  C   UNL     1     113.317 131.096 136.671  0.00  0.00    +0.000 A 
ENDBRANCH   5  15
BRANCH   4  21
ATOM     21  O   UNL     1     110.910 129.814 137.524  0.00  0.00    +0.000 OA
BRANCH  21  28
ATOM     22  O   UNL     1     110.243 129.326 136.359  0.00  0.00    +0.000 OA
ATOM     23  O   UNL     1     108.253 130.682 136.931  0.00  0.00    +0.000 OA
ATOM     24  O   UNL     1     108.248 129.742 135.575  0.00  0.00    +0.000 OA
ATOM     25  C   UNL     1     109.582 130.248 137.228  0.00  0.00    +0.000 C 
ATOM     26  C   UNL     1     108.916 130.230 136.741  0.00  0.00    +0.000 C 
ATOM     27  C   UNL     1     108.914 129.760 136.063  0.00  0.00    +0.000 C 
ATOM     28  C   UNL     1     110.245 129.796 137.037  0.00  0.00    +0.000 C 
ATOM     29  C   UNL     1     109.578 129.308 135.872  0.00  0.00    +0.000 C 
BRANCH  29  31
ATOM     30  O   UNL     1     110.149 128.949 134.612  0.00  0.00    +0.000 OA
ATOM     31  C   UNL     1     109.575 128.838 135.194  0.00  0.00    +0.000 C 
ENDBRANCH  29  31
BRANCH  25  32
ATOM     32  O   UNL     1     109.584 130.718 137.906  0.00  0.00    +0.000 OA
BRANCH  32  37
ATOM     33  O   UNL     1     109.879 131.870 137.115  0.00  0.00    +0.000 OA
ATOM     34  O   UNL     1     109.788 131.608 139.280  0.00  0.00    +0.000 OA
ATOM     35  O   UNL     1     110.187 133.206 139.176  0.00  0.00    +0.000 OA
ATOM     36  O   UNL     1     110.380 133.914 137.698  0.00  0.00    +0.000 OA
ATOM     37  C   UNL     1     109.783 131.517 137.854  0.00  0.00    +0.000 C 
ATOM     38  C   UNL     1     109.885 131.962 138.542  0.00  0.00    +0.000 C 
ATOM     39  C   UNL     1     110.084 132.760 138.490  0.00  0.00    +0.000 C 
ATOM     40  C   UNL     1     110.181 133.115 137.750  0.00  0.00    +0.000 C 
ATOM     41  C   UNL     1     110.079 132.669 137.064  0.00  0.00    +0.000 C 
ATOM     42  C   UNL     1     110.175 133.024 136.324  0.00  0.00    +0.000 C 
ENDBRANCH  32  37
ENDBRANCH  25  32
ENDBRANCH  21  28
ENDBRANCH   4  21
BRANCH   8  43
ATOM     43  O   UNL     1     112.648 125.627 138.567  0.00  0.00    +0.000 OA
BRANCH  43  52
ATOM     44  O   UNL     1     112.338 124.804 137.442  0.00  0.00    +0.000 OA
ATOM     45  O   UNL     1     114.753 124.432 137.048  0.00  0.00    +0.000 OA
ATOM     46  O   UNL     1     113.638 123.732 136.053  0.00  0.00    +0.000 OA
ATOM     47  O   UNL     1     114.258 125.380 138.304  0.00  0.00    +0.000 OA
ATOM     48  C   UNL     1     113.948 124.556 137.179  0.00  0.00    +0.000 C 
ATOM     49  C   UNL     1     113.391 124.206 136.681  0.00  0.00    +0.000 C 
ATOM     50  C   UNL     1     113.700 125.030 137.807  0.00  0.00    +0.000 C 
ATOM     51  C   UNL     1     112.585 124.329 136.813  0.00  0.00    +0.000 C 
ATOM     52  C   UNL     1     112.896 125.154 137.939  0.00  0.00    +0.000 C 
ATOM     53  C   UNL     1     112.028 123.979 136.315  0.00  0.00    +0.000 C 
ENDBRANCH  43  52
ENDBRANCH   8  43
TORSDOF 8
ENDMDL
MODEL 10
REMARK VINA RESULT:     -10.4      6.832     10.123
REMARK  Name = 10327769
REMARK  8 active torsions:
REMARK  status: ('A' for Active; 'I' for Inactive)
REMARK    1  A    between atoms: O_1  and  C_21
REMARK    2  A    between atoms: O_1  and  C_24
REMARK    3  A    between atoms: O_4  and  C_25
REMARK    4  A    between atoms: O_4  and  C_38
REMARK    5  A    between atoms: O_12  and  C_37
REMARK    6  A    between atoms: O_12  and  C_43
REMARK    7  A    between atoms: C_26  and  C_31
REMARK    8  A    between atoms: C_40  and  C_47
REMARK                            x       y       z     vdW  Elec       q    Type
REMARK                         _______ _______ _______ _____ _____    ______ ____
ROOT
ATOM      1  O   UNL     1     105.539 126.303 144.183  0.00  0.00    +0.000 OA
ATOM      2  O   UNL     1     107.250 127.204 145.730  0.00  0.00    +0.000 OA
ATOM      3  O   UNL     1     107.106 126.061 146.599  0.00  0.00    +0.000 OA
ATOM      4  C   UNL     1     106.476 127.325 144.535  0.00  0.00    +0.000 A 
ATOM      5  C   UNL     1     105.905 127.024 144.019  0.00  0.00    +0.000 A 
ATOM      6  C   UNL     1     106.679 126.903 145.214  0.00  0.00    +0.000 A 
ATOM      7  C   UNL     1     106.313 126.182 145.378  0.00  0.00    +0.000 A 
ATOM      8  C   UNL     1     105.564 124.689 145.728  0.00  0.00    +0.000 A 
ATOM      9  C   UNL     1     105.744 125.883 144.863  0.00  0.00    +0.000 A 
ATOM     10  C   UNL     1     105.355 125.132 145.022  0.00  0.00    +0.000 A 
ATOM     11  C   UNL     1     106.535 125.753 146.089  0.00  0.00    +0.000 A 
ATOM     12  C   UNL     1     106.158 125.002 146.265  0.00  0.00    +0.000 A 
ENDROOT
BRANCH   5  15
ATOM     13  O   UNL     1     106.413 127.721 141.294  0.00  0.00    +0.000 OA
ATOM     14  O   UNL     1     105.093 128.710 141.300  0.00  0.00    +0.000 OA
ATOM     15  C   UNL     1     105.702 127.446 143.340  0.00  0.00    +0.000 A 
ATOM     16  C   UNL     1     106.159 127.372 142.656  0.00  0.00    +0.000 A 
ATOM     17  C   UNL     1     105.041 127.940 143.343  0.00  0.00    +0.000 A 
ATOM     18  C   UNL     1     105.956 127.794 141.977  0.00  0.00    +0.000 A 
ATOM     19  C   UNL     1     104.838 128.361 142.663  0.00  0.00    +0.000 A 
ATOM     20  C   UNL     1     105.295 128.288 141.980  0.00  0.00    +0.000 A 
ENDBRANCH   5  15
BRANCH   4  21
ATOM     21  O   UNL     1     106.841 128.046 144.371  0.00  0.00    +0.000 OA
BRANCH  21  28
ATOM     22  O   UNL     1     106.146 128.784 145.378  0.00  0.00    +0.000 OA
ATOM     23  O   UNL     1     108.140 130.211 145.710  0.00  0.00    +0.000 OA
ATOM     24  O   UNL     1     106.780 130.473 146.606  0.00  0.00    +0.000 OA
ATOM     25  C   UNL     1     107.491 129.128 145.040  0.00  0.00    +0.000 C 
ATOM     26  C   UNL     1     107.475 129.735 145.599  0.00  0.00    +0.000 C 
ATOM     27  C   UNL     1     106.795 129.865 146.047  0.00  0.00    +0.000 C 
ATOM     28  C   UNL     1     106.826 128.652 144.929  0.00  0.00    +0.000 C 
ATOM     29  C   UNL     1     106.130 129.390 145.936  0.00  0.00    +0.000 C 
BRANCH  29  31
ATOM     30  O   UNL     1     104.739 129.707 146.011  0.00  0.00    +0.000 OA
ATOM     31  C   UNL     1     105.450 129.521 146.385  0.00  0.00    +0.000 C 
ENDBRANCH  29  31
BRANCH  25  32
ATOM     32  O   UNL     1     108.171 128.997 144.593  0.00  0.00    +0.000 OA
BRANCH  32  37
ATOM     33  O   UNL     1     107.805 130.066 143.718  0.00  0.00    +0.000 OA
ATOM     34  O   UNL     1     109.588 128.809 143.769  0.00  0.00    +0.000 OA
ATOM     35  O   UNL     1     109.931 129.784 142.483  0.00  0.00    +0.000 OA
ATOM     36  O   UNL     1     108.856 130.947 142.020  0.00  0.00    +0.000 OA
ATOM     37  C   UNL     1     108.342 129.485 143.949  0.00  0.00    +0.000 C 
ATOM     38  C   UNL     1     109.051 129.390 143.538  0.00  0.00    +0.000 C 
ATOM     39  C   UNL     1     109.222 129.878 142.895  0.00  0.00    +0.000 C 
ATOM     40  C   UNL     1     108.685 130.460 142.663  0.00  0.00    +0.000 C 
ATOM     41  C   UNL     1     107.976 130.553 143.075  0.00  0.00    +0.000 C 
ATOM     42  C   UNL     1     107.438 131.135 142.844  0.00  0.00    +0.000 C 
ENDBRANCH  32  37
ENDBRANCH  25  32
ENDBRANCH  21  28
ENDBRANCH   4  21
BRANCH   8  43
ATOM     43  O   UNL     1     105.196 123.968 145.889  0.00  0.00    +0.000 OA
BRANCH  43  52
ATOM     44  O   UNL     1     104.157 124.515 146.704  0.00  0.00    +0.000 OA
ATOM     45  O   UNL     1     102.593 122.790 145.867  0.00  0.00    +0.000 OA
ATOM     46  O   UNL     1     102.075 123.911 146.960  0.00  0.00    +0.000 OA
ATOM     47  O   UNL     1     104.153 122.818 145.331  0.00  0.00    +0.000 OA
ATOM     48  C   UNL     1     103.114 123.365 146.146  0.00  0.00    +0.000 C 
ATOM     49  C   UNL     1     102.855 123.926 146.693  0.00  0.00    +0.000 C 
ATOM     50  C   UNL     1     103.894 123.379 145.878  0.00  0.00    +0.000 C 
ATOM     51  C   UNL     1     103.377 124.501 146.972  0.00  0.00    +0.000 C 
ATOM     52  C   UNL     1     104.416 123.954 146.157  0.00  0.00    +0.000 C 
ATOM     53  C   UNL     1     103.118 125.062 147.519  0.00  0.00    +0.000 C 
ENDBRANCH  43  52
ENDBRANCH   8  43
TORSDOF 8
ENDMDL
