MODEL 1
REMARK VINA RESULT:      -9.2      0.000      0.000
REMARK  Name = 101244286
REMARK  5 active torsions:
REMARK  status: ('A' for Active; 'I' for Inactive)
REMARK    1  A    between atoms: O_2  and  C_16
REMARK    2  A    between atoms: O_2  and  C_23
REMARK    3  A    between atoms: O_10  and  C_28
REMARK    4  A    between atoms: C_17  and  C_24
REMARK    5  A    between atoms: C_18  and  C_21
REMARK                            x       y       z     vdW  Elec       q    Type
REMARK                         _______ _______ _______ _____ _____    ______ ____
ROOT
ATOM      1  C   UNL     1     105.179 125.004 147.168  0.00  0.00    +0.000 A 
ATOM      2  C   UNL     1     106.302 125.697 146.619  0.00  0.00    +0.000 A 
ATOM      3  C   UNL     1     105.489 125.563 146.646  0.00  0.00    +0.000 A 
ATOM      4  C   UNL     1     105.683 124.579 147.663  0.00  0.00    +0.000 A 
ATOM      5  C   UNL     1     106.806 125.271 147.115  0.00  0.00    +0.000 A 
ATOM      6  C   UNL     1     106.497 124.712 147.637  0.00  0.00    +0.000 A 
ENDROOT
BRANCH   1  11
ATOM      7  O   UNL     1     104.022 124.313 146.691  0.00  0.00    +0.000 OA
ATOM      8  O   UNL     1     104.237 125.852 148.224  0.00  0.00    +0.000 OA
ATOM      9  O   UNL     1     101.425 124.903 147.812  0.00  0.00    +0.000 OA
ATOM     10  O   UNL     1     101.676 122.895 145.706  0.00  0.00    +0.000 OA
ATOM     11  C   UNL     1     104.365 124.871 147.194  0.00  0.00    +0.000 C 
ATOM     12  C   UNL     1     103.894 125.295 147.721  0.00  0.00    +0.000 C 
ATOM     13  C   UNL     1     103.080 125.162 147.748  0.00  0.00    +0.000 C 
ATOM     14  C   UNL     1     102.737 124.604 147.244  0.00  0.00    +0.000 A 
ATOM     15  C   UNL     1     103.209 124.180 146.716  0.00  0.00    +0.000 A 
ATOM     16  C   UNL     1     101.889 124.474 147.280  0.00  0.00    +0.000 A 
ATOM     17  C   UNL     1     102.864 123.597 146.188  0.00  0.00    +0.000 A 
ATOM     18  C   UNL     1     101.526 123.895 146.760  0.00  0.00    +0.000 A 
ATOM     19  C   UNL     1     102.016 123.453 146.210  0.00  0.00    +0.000 A 
ENDBRANCH   1  11
BRANCH   5  20
ATOM     20  O   UNL     1     107.620 125.405 147.088  0.00  0.00    +0.000 OA
ATOM     21  C   UNL     1     108.097 125.174 147.721  0.00  0.00    +0.000 C 
ENDBRANCH   5  20
BRANCH   2  22
ATOM     22  O   UNL     1     106.611 126.255 146.097  0.00  0.00    +0.000 OA
BRANCH  22  30
ATOM     23  O   UNL     1     106.302 125.644 144.843  0.00  0.00    +0.000 OA
ATOM     24  O   UNL     1     105.454 127.809 143.997  0.00  0.00    +0.000 OA
ATOM     25  O   UNL     1     106.046 127.698 145.533  0.00  0.00    +0.000 OA
ATOM     26  O   UNL     1     105.428 126.477 143.024  0.00  0.00    +0.000 OA
ATOM     27  C   UNL     1     105.737 127.087 144.279  0.00  0.00    +0.000 C 
ATOM     28  C   UNL     1     106.033 127.033 145.047  0.00  0.00    +0.000 C 
ATOM     29  C   UNL     1     105.724 126.422 143.793  0.00  0.00    +0.000 C 
ATOM     30  C   UNL     1     106.315 126.311 145.329  0.00  0.00    +0.000 C 
ATOM     31  C   UNL     1     106.006 125.700 144.075  0.00  0.00    +0.000 C 
BRANCH  31  34
ATOM     32  O   UNL     1     106.655 124.841 143.135  0.00  0.00    +0.000 OA
ATOM     33  O   UNL     1     105.319 124.559 143.556  0.00  0.00    +0.000 OA
ATOM     34  C   UNL     1     105.993 125.033 143.588  0.00  0.00    +0.000 C 
ENDBRANCH  31  34
ENDBRANCH  22  30
ENDBRANCH   2  22
TORSDOF 5
ENDMDL
MODEL 2
REMARK VINA RESULT:      -9.2      1.277      2.153
REMARK  Name = 101244286
REMARK  5 active torsions:
REMARK  status: ('A' for Active; 'I' for Inactive)
REMARK    1  A    between atoms: O_2  and  C_16
REMARK    2  A    between atoms: O_2  and  C_23
REMARK    3  A    between atoms: O_10  and  C_28
REMARK    4  A    between atoms: C_17  and  C_24
REMARK    5  A    between atoms: C_18  and  C_21
REMARK                            x       y       z     vdW  Elec       q    Type
REMARK                         _______ _______ _______ _____ _____    ______ ____
ROOT
ATOM      1  C   UNL     1     105.044 124.845 148.505  0.00  0.00    +0.000 A 
ATOM      2  C   UNL     1     106.299 124.742 147.829  0.00  0.00    +0.000 A 
ATOM      3  C   UNL     1     105.480 124.831 147.805  0.00  0.00    +0.000 A 
ATOM      4  C   UNL     1     105.429 124.770 149.231  0.00  0.00    +0.000 A 
ATOM      5  C   UNL     1     106.684 124.667 148.556  0.00  0.00    +0.000 A 
ATOM      6  C   UNL     1     106.249 124.680 149.257  0.00  0.00    +0.000 A 
ENDROOT
BRANCH   1  11
ATOM      7  O   UNL     1     103.749 124.305 148.233  0.00  0.00    +0.000 OA
ATOM      8  O   UNL     1     104.355 126.278 148.945  0.00  0.00    +0.000 OA
ATOM      9  O   UNL     1     101.396 125.935 148.625  0.00  0.00    +0.000 OA
ATOM     10  O   UNL     1     101.118 123.188 147.672  0.00  0.00    +0.000 OA
ATOM     11  C   UNL     1     104.224 124.934 148.479  0.00  0.00    +0.000 C 
ATOM     12  C   UNL     1     103.880 125.650 148.699  0.00  0.00    +0.000 C 
ATOM     13  C   UNL     1     103.060 125.739 148.673  0.00  0.00    +0.000 C 
ATOM     14  C   UNL     1     102.584 125.110 148.426  0.00  0.00    +0.000 A 
ATOM     15  C   UNL     1     102.930 124.394 148.206  0.00  0.00    +0.000 A 
ATOM     16  C   UNL     1     101.732 125.214 148.403  0.00  0.00    +0.000 A 
ATOM     17  C   UNL     1     102.446 123.732 147.948  0.00  0.00    +0.000 A 
ATOM     18  C   UNL     1     101.232 124.564 148.148  0.00  0.00    +0.000 A 
ATOM     19  C   UNL     1     101.591 123.818 147.919  0.00  0.00    +0.000 A 
ENDBRANCH   1  11
BRANCH   5  20
ATOM     20  O   UNL     1     107.504 124.578 148.581  0.00  0.00    +0.000 OA
ATOM     21  C   UNL     1     107.878 124.402 149.295  0.00  0.00    +0.000 C 
ENDBRANCH   5  20
BRANCH   2  22
ATOM     22  O   UNL     1     106.734 124.728 147.129  0.00  0.00    +0.000 OA
BRANCH  22  30
ATOM     23  O   UNL     1     106.812 126.124 146.835  0.00  0.00    +0.000 OA
ATOM     24  O   UNL     1     106.186 125.664 144.485  0.00  0.00    +0.000 OA
ATOM     25  O   UNL     1     106.316 124.421 145.563  0.00  0.00    +0.000 OA
ATOM     26  O   UNL     1     106.473 127.213 144.974  0.00  0.00    +0.000 OA
ATOM     27  C   UNL     1     106.395 125.817 145.269  0.00  0.00    +0.000 C 
ATOM     28  C   UNL     1     106.460 125.195 145.807  0.00  0.00    +0.000 C 
ATOM     29  C   UNL     1     106.538 126.591 145.513  0.00  0.00    +0.000 C 
ATOM     30  C   UNL     1     106.669 125.349 146.590  0.00  0.00    +0.000 C 
ATOM     31  C   UNL     1     106.747 126.745 146.296  0.00  0.00    +0.000 C 
BRANCH  31  34
ATOM     32  O   UNL     1     107.659 127.820 146.528  0.00  0.00    +0.000 OA
ATOM     33  O   UNL     1     106.267 127.994 146.796  0.00  0.00    +0.000 OA
ATOM     34  C   UNL     1     106.891 127.520 146.540  0.00  0.00    +0.000 C 
ENDBRANCH  31  34
ENDBRANCH  22  30
ENDBRANCH   2  22
TORSDOF 5
ENDMDL
MODEL 3
REMARK VINA RESULT:      -9.1      9.148     12.387
REMARK  Name = 101244286
REMARK  5 active torsions:
REMARK  status: ('A' for Active; 'I' for Inactive)
REMARK    1  A    between atoms: O_2  and  C_16
REMARK    2  A    between atoms: O_2  and  C_23
REMARK    3  A    between atoms: O_10  and  C_28
REMARK    4  A    between atoms: C_17  and  C_24
REMARK    5  A    between atoms: C_18  and  C_21
REMARK                            x       y       z     vdW  Elec       q    Type
REMARK                         _______ _______ _______ _____ _____    ______ ____
ROOT
ATOM      1  C   UNL     1     113.107 127.170 136.779  0.00  0.00    +0.000 A 
ATOM      2  C   UNL     1     112.205 126.076 136.592  0.00  0.00    +0.000 A 
ATOM      3  C   UNL     1     112.338 126.886 136.680  0.00  0.00    +0.000 A 
ATOM      4  C   UNL     1     113.742 126.644 136.791  0.00  0.00    +0.000 A 
ATOM      5  C   UNL     1     112.842 125.550 136.604  0.00  0.00    +0.000 A 
ATOM      6  C   UNL     1     113.610 125.834 136.703  0.00  0.00    +0.000 A 
ENDROOT
BRANCH   1  11
ATOM      7  O   UNL     1     113.166 128.331 137.611  0.00  0.00    +0.000 OA
ATOM      8  O   UNL     1     113.515 128.087 135.470  0.00  0.00    +0.000 OA
ATOM      9  O   UNL     1     113.845 130.894 136.464  0.00  0.00    +0.000 OA
ATOM     10  O   UNL     1     113.283 130.685 139.322  0.00  0.00    +0.000 OA
ATOM     11  C   UNL     1     113.239 127.979 136.867  0.00  0.00    +0.000 C 
ATOM     12  C   UNL     1     113.442 128.438 136.213  0.00  0.00    +0.000 C 
ATOM     13  C   UNL     1     113.574 129.248 136.301  0.00  0.00    +0.000 C 
ATOM     14  C   UNL     1     113.502 129.599 137.045  0.00  0.00    +0.000 A 
ATOM     15  C   UNL     1     113.298 129.140 137.699  0.00  0.00    +0.000 A 
ATOM     16  C   UNL     1     113.642 130.443 137.124  0.00  0.00    +0.000 A 
ATOM     17  C   UNL     1     113.220 129.493 138.478  0.00  0.00    +0.000 A 
ATOM     18  C   UNL     1     113.568 130.814 137.895  0.00  0.00    +0.000 A 
ATOM     19  C   UNL     1     113.356 130.337 138.578  0.00  0.00    +0.000 A 
ENDBRANCH   1  11
BRANCH   5  20
ATOM     20  O   UNL     1     112.708 124.741 136.516  0.00  0.00    +0.000 OA
ATOM     21  C   UNL     1     113.348 124.220 136.476  0.00  0.00    +0.000 C 
ENDBRANCH   5  20
BRANCH   2  22
ATOM     22  O   UNL     1     111.438 125.793 136.493  0.00  0.00    +0.000 OA
BRANCH  22  30
ATOM     23  O   UNL     1     110.979 125.908 137.841  0.00  0.00    +0.000 OA
ATOM     24  O   UNL     1     108.819 126.803 137.030  0.00  0.00    +0.000 OA
ATOM     25  O   UNL     1     109.998 126.390 135.952  0.00  0.00    +0.000 OA
ATOM     26  O   UNL     1     109.081 126.620 138.649  0.00  0.00    +0.000 OA
ATOM     27  C   UNL     1     109.539 126.505 137.300  0.00  0.00    +0.000 C 
ATOM     28  C   UNL     1     110.128 126.298 136.761  0.00  0.00    +0.000 C 
ATOM     29  C   UNL     1     109.670 126.414 138.109  0.00  0.00    +0.000 C 
ATOM     30  C   UNL     1     110.848 126.000 137.031  0.00  0.00    +0.000 C 
ATOM     31  C   UNL     1     110.390 126.115 138.380  0.00  0.00    +0.000 C 
BRANCH  31  34
ATOM     32  O   UNL     1     110.393 125.292 139.547  0.00  0.00    +0.000 OA
ATOM     33  O   UNL     1     110.779 126.664 139.640  0.00  0.00    +0.000 OA
ATOM     34  C   UNL     1     110.521 126.024 139.190  0.00  0.00    +0.000 C 
ENDBRANCH  31  34
ENDBRANCH  22  30
ENDBRANCH   2  22
TORSDOF 5
ENDMDL
MODEL 4
REMARK VINA RESULT:      -9.1     11.913     13.336
REMARK  Name = 101244286
REMARK  5 active torsions:
REMARK  status: ('A' for Active; 'I' for Inactive)
REMARK    1  A    between atoms: O_2  and  C_16
REMARK    2  A    between atoms: O_2  and  C_23
REMARK    3  A    between atoms: O_10  and  C_28
REMARK    4  A    between atoms: C_17  and  C_24
REMARK    5  A    between atoms: C_18  and  C_21
REMARK                            x       y       z     vdW  Elec       q    Type
REMARK                         _______ _______ _______ _____ _____    ______ ____
ROOT
ATOM      1  C   UNL     1     113.798 128.584 136.057  0.00  0.00    +0.000 A 
ATOM      2  C   UNL     1     114.127 129.876 136.571  0.00  0.00    +0.000 A 
ATOM      3  C   UNL     1     113.817 129.120 136.684  0.00  0.00    +0.000 A 
ATOM      4  C   UNL     1     114.089 128.803 135.318  0.00  0.00    +0.000 A 
ATOM      5  C   UNL     1     114.418 130.096 135.830  0.00  0.00    +0.000 A 
ATOM      6  C   UNL     1     114.399 129.559 135.203  0.00  0.00    +0.000 A 
ENDROOT
BRANCH   1  11
ATOM      7  O   UNL     1     113.954 127.237 136.512  0.00  0.00    +0.000 OA
ATOM      8  O   UNL     1     112.246 128.251 135.607  0.00  0.00    +0.000 OA
ATOM      9  O   UNL     1     111.757 125.375 136.286  0.00  0.00    +0.000 OA
ATOM     10  O   UNL     1     114.292 124.499 137.443  0.00  0.00    +0.000 OA
ATOM     11  C   UNL     1     113.487 127.828 136.171  0.00  0.00    +0.000 C 
ATOM     12  C   UNL     1     112.712 127.661 135.946  0.00  0.00    +0.000 C 
ATOM     13  C   UNL     1     112.402 126.905 136.061  0.00  0.00    +0.000 C 
ATOM     14  C   UNL     1     112.868 126.315 136.401  0.00  0.00    +0.000 A 
ATOM     15  C   UNL     1     113.645 126.482 136.626  0.00  0.00    +0.000 A 
ATOM     16  C   UNL     1     112.535 125.532 136.515  0.00  0.00    +0.000 A 
ATOM     17  C   UNL     1     114.140 125.876 136.981  0.00  0.00    +0.000 A 
ATOM     18  C   UNL     1     113.015 124.914 136.868  0.00  0.00    +0.000 A 
ATOM     19  C   UNL     1     113.823 125.086 137.103  0.00  0.00    +0.000 A 
ENDBRANCH   1  11
BRANCH   5  20
ATOM     20  O   UNL     1     114.728 130.852 135.717  0.00  0.00    +0.000 OA
ATOM     21  C   UNL     1     115.262 130.991 135.103  0.00  0.00    +0.000 C 
ENDBRANCH   5  20
BRANCH   2  22
ATOM     22  O   UNL     1     114.147 130.412 137.197  0.00  0.00    +0.000 OA
BRANCH  22  30
ATOM     23  O   UNL     1     112.801 130.892 137.195  0.00  0.00    +0.000 OA
ATOM     24  O   UNL     1     112.677 130.556 139.644  0.00  0.00    +0.000 OA
ATOM     25  O   UNL     1     114.064 130.188 138.829  0.00  0.00    +0.000 OA
ATOM     26  O   UNL     1     111.373 131.149 138.825  0.00  0.00    +0.000 OA
ATOM     27  C   UNL     1     112.719 130.668 138.827  0.00  0.00    +0.000 C 
ATOM     28  C   UNL     1     113.412 130.484 138.421  0.00  0.00    +0.000 C 
ATOM     29  C   UNL     1     112.067 130.964 138.419  0.00  0.00    +0.000 C 
ATOM     30  C   UNL     1     113.454 130.596 137.604  0.00  0.00    +0.000 C 
ATOM     31  C   UNL     1     112.108 131.076 137.602  0.00  0.00    +0.000 C 
BRANCH  31  34
ATOM     32  O   UNL     1     111.408 132.178 137.021  0.00  0.00    +0.000 OA
ATOM     33  O   UNL     1     110.851 130.865 136.957  0.00  0.00    +0.000 OA
ATOM     34  C   UNL     1     111.455 131.373 137.193  0.00  0.00    +0.000 C 
ENDBRANCH  31  34
ENDBRANCH  22  30
ENDBRANCH   2  22
TORSDOF 5
ENDMDL
MODEL 5
REMARK VINA RESULT:      -9.0     11.507     12.841
REMARK  Name = 101244286
REMARK  5 active torsions:
REMARK  status: ('A' for Active; 'I' for Inactive)
REMARK    1  A    between atoms: O_2  and  C_16
REMARK    2  A    between atoms: O_2  and  C_23
REMARK    3  A    between atoms: O_10  and  C_28
REMARK    4  A    between atoms: C_17  and  C_24
REMARK    5  A    between atoms: C_18  and  C_21
REMARK                            x       y       z     vdW  Elec       q    Type
REMARK                         _______ _______ _______ _____ _____    ______ ____
ROOT
ATOM      1  C   UNL     1     113.027 128.324 135.957  0.00  0.00    +0.000 A 
ATOM      2  C   UNL     1     113.151 129.737 136.134  0.00  0.00    +0.000 A 
ATOM      3  C   UNL     1     112.708 129.044 136.202  0.00  0.00    +0.000 A 
ATOM      4  C   UNL     1     113.789 128.296 135.644  0.00  0.00    +0.000 A 
ATOM      5  C   UNL     1     113.914 129.709 135.821  0.00  0.00    +0.000 A 
ATOM      6  C   UNL     1     114.233 128.988 135.576  0.00  0.00    +0.000 A 
ENDROOT
BRANCH   1  11
ATOM      7  O   UNL     1     111.944 127.500 135.519  0.00  0.00    +0.000 OA
ATOM      8  O   UNL     1     113.414 127.204 137.105  0.00  0.00    +0.000 OA
ATOM      9  O   UNL     1     111.439 124.970 136.819  0.00  0.00    +0.000 OA
ATOM     10  O   UNL     1     109.733 125.836 134.612  0.00  0.00    +0.000 OA
ATOM     11  C   UNL     1     112.583 127.632 136.026  0.00  0.00    +0.000 C 
ATOM     12  C   UNL     1     112.776 127.072 136.599  0.00  0.00    +0.000 C 
ATOM     13  C   UNL     1     112.332 126.380 136.668  0.00  0.00    +0.000 C 
ATOM     14  C   UNL     1     111.693 126.248 136.161  0.00  0.00    +0.000 A 
ATOM     15  C   UNL     1     111.500 126.809 135.587  0.00  0.00    +0.000 A 
ATOM     16  C   UNL     1     111.238 125.525 136.242  0.00  0.00    +0.000 A 
ATOM     17  C   UNL     1     110.838 126.683 135.054  0.00  0.00    +0.000 A 
ATOM     18  C   UNL     1     110.572 125.382 135.718  0.00  0.00    +0.000 A 
ATOM     19  C   UNL     1     110.370 125.965 135.120  0.00  0.00    +0.000 A 
ENDBRANCH   1  11
BRANCH   5  20
ATOM     20  O   UNL     1     114.357 130.401 135.753  0.00  0.00    +0.000 OA
ATOM     21  C   UNL     1     115.052 130.404 135.307  0.00  0.00    +0.000 C 
ENDBRANCH   5  20
BRANCH   2  22
ATOM     22  O   UNL     1     112.832 130.456 136.379  0.00  0.00    +0.000 OA
BRANCH  22  30
ATOM     23  O   UNL     1     113.030 130.339 137.789  0.00  0.00    +0.000 OA
ATOM     24  O   UNL     1     110.745 131.206 138.182  0.00  0.00    +0.000 OA
ATOM     25  O   UNL     1     111.309 131.035 136.641  0.00  0.00    +0.000 OA
ATOM     26  O   UNL     1     111.705 130.799 139.461  0.00  0.00    +0.000 OA
ATOM     27  C   UNL     1     111.507 130.917 138.051  0.00  0.00    +0.000 C 
ATOM     28  C   UNL     1     111.788 130.831 137.280  0.00  0.00    +0.000 C 
ATOM     29  C   UNL     1     111.986 130.714 138.690  0.00  0.00    +0.000 C 
ATOM     30  C   UNL     1     112.550 130.542 137.149  0.00  0.00    +0.000 C 
ATOM     31  C   UNL     1     112.747 130.425 138.559  0.00  0.00    +0.000 C 
BRANCH  31  34
ATOM     32  O   UNL     1     113.773 130.765 139.495  0.00  0.00    +0.000 OA
ATOM     33  O   UNL     1     113.162 129.475 139.543  0.00  0.00    +0.000 OA
ATOM     34  C   UNL     1     113.228 130.221 139.199  0.00  0.00    +0.000 C 
ENDBRANCH  31  34
ENDBRANCH  22  30
ENDBRANCH   2  22
TORSDOF 5
ENDMDL
MODEL 6
REMARK VINA RESULT:      -9.0      9.696     12.129
REMARK  Name = 101244286
REMARK  5 active torsions:
REMARK  status: ('A' for Active; 'I' for Inactive)
REMARK    1  A    between atoms: O_2  and  C_16
REMARK    2  A    between atoms: O_2  and  C_23
REMARK    3  A    between atoms: O_10  and  C_28
REMARK    4  A    between atoms: C_17  and  C_24
REMARK    5  A    between atoms: C_18  and  C_21
REMARK                            x       y       z     vdW  Elec       q    Type
REMARK                         _______ _______ _______ _____ _____    ______ ____
ROOT
ATOM      1  C   UNL     1     111.121 127.026 135.907  0.00  0.00    +0.000 A 
ATOM      2  C   UNL     1     110.414 128.191 136.336  0.00  0.00    +0.000 A 
ATOM      3  C   UNL     1     110.755 127.459 136.505  0.00  0.00    +0.000 A 
ATOM      4  C   UNL     1     111.147 127.324 135.139  0.00  0.00    +0.000 A 
ATOM      5  C   UNL     1     110.439 128.489 135.567  0.00  0.00    +0.000 A 
ATOM      6  C   UNL     1     110.806 128.056 134.968  0.00  0.00    +0.000 A 
ENDROOT
BRANCH   1  11
ATOM      7  O   UNL     1     112.248 126.253 136.328  0.00  0.00    +0.000 OA
ATOM      8  O   UNL     1     110.234 125.644 135.746  0.00  0.00    +0.000 OA
ATOM      9  O   UNL     1     112.038 123.378 136.510  0.00  0.00    +0.000 OA
ATOM     10  O   UNL     1     114.554 124.697 137.190  0.00  0.00    +0.000 OA
ATOM     11  C   UNL     1     111.462 126.294 136.077  0.00  0.00    +0.000 C 
ATOM     12  C   UNL     1     111.019 125.603 135.997  0.00  0.00    +0.000 C 
ATOM     13  C   UNL     1     111.360 124.871 136.168  0.00  0.00    +0.000 C 
ATOM     14  C   UNL     1     112.145 124.831 136.419  0.00  0.00    +0.000 A 
ATOM     15  C   UNL     1     112.589 125.522 136.499  0.00  0.00    +0.000 A 
ATOM     16  C   UNL     1     112.489 124.064 136.594  0.00  0.00    +0.000 A 
ATOM     17  C   UNL     1     113.407 125.493 136.760  0.00  0.00    +0.000 A 
ATOM     18  C   UNL     1     113.306 124.015 136.855  0.00  0.00    +0.000 A 
ATOM     19  C   UNL     1     113.768 124.734 136.939  0.00  0.00    +0.000 A 
ENDBRANCH   1  11
BRANCH   5  20
ATOM     20  O   UNL     1     110.098 129.221 135.398  0.00  0.00    +0.000 OA
ATOM     21  C   UNL     1     109.967 129.443 134.613  0.00  0.00    +0.000 C 
ENDBRANCH   5  20
BRANCH   2  22
ATOM     22  O   UNL     1     110.048 128.624 136.934  0.00  0.00    +0.000 OA
BRANCH  22  30
ATOM     23  O   UNL     1     111.209 129.085 137.629  0.00  0.00    +0.000 OA
ATOM     24  O   UNL     1     110.119 128.572 139.791  0.00  0.00    +0.000 OA
ATOM     25  O   UNL     1     109.322 128.282 138.376  0.00  0.00    +0.000 OA
ATOM     26  O   UNL     1     111.643 129.205 139.764  0.00  0.00    +0.000 OA
ATOM     27  C   UNL     1     110.482 128.743 139.070  0.00  0.00    +0.000 C 
ATOM     28  C   UNL     1     110.083 128.598 138.363  0.00  0.00    +0.000 C 
ATOM     29  C   UNL     1     111.244 129.059 139.057  0.00  0.00    +0.000 C 
ATOM     30  C   UNL     1     110.446 128.769 137.642  0.00  0.00    +0.000 C 
ATOM     31  C   UNL     1     111.607 129.230 138.336  0.00  0.00    +0.000 C 
BRANCH  31  34
ATOM     32  O   UNL     1     113.024 129.046 138.367  0.00  0.00    +0.000 OA
ATOM     33  O   UNL     1     112.476 130.362 138.265  0.00  0.00    +0.000 OA
ATOM     34  C   UNL     1     112.369 129.547 138.323  0.00  0.00    +0.000 C 
ENDBRANCH  31  34
ENDBRANCH  22  30
ENDBRANCH   2  22
TORSDOF 5
ENDMDL
MODEL 7
REMARK VINA RESULT:      -8.8      1.573      4.454
REMARK  Name = 101244286
REMARK  5 active torsions:
REMARK  status: ('A' for Active; 'I' for Inactive)
REMARK    1  A    between atoms: O_2  and  C_16
REMARK    2  A    between atoms: O_2  and  C_23
REMARK    3  A    between atoms: O_10  and  C_28
REMARK    4  A    between atoms: C_17  and  C_24
REMARK    5  A    between atoms: C_18  and  C_21
REMARK                            x       y       z     vdW  Elec       q    Type
REMARK                         _______ _______ _______ _____ _____    ______ ____
ROOT
ATOM      1  C   UNL     1     106.567 126.125 147.394  0.00  0.00    +0.000 A 
ATOM      2  C   UNL     1     105.859 125.098 148.093  0.00  0.00    +0.000 A 
ATOM      3  C   UNL     1     105.855 125.773 147.618  0.00  0.00    +0.000 A 
ATOM      4  C   UNL     1     107.283 125.802 147.645  0.00  0.00    +0.000 A 
ATOM      5  C   UNL     1     106.576 124.775 148.344  0.00  0.00    +0.000 A 
ATOM      6  C   UNL     1     107.288 125.127 148.120  0.00  0.00    +0.000 A 
ENDROOT
BRANCH   1  11
ATOM      7  O   UNL     1     106.313 127.522 147.233  0.00  0.00    +0.000 OA
ATOM      8  O   UNL     1     107.052 126.031 145.820  0.00  0.00    +0.000 OA
ATOM      9  O   UNL     1     106.794 128.790 144.682  0.00  0.00    +0.000 OA
ATOM     10  O   UNL     1     105.791 130.371 146.924  0.00  0.00    +0.000 OA
ATOM     11  C   UNL     1     106.562 126.800 146.920  0.00  0.00    +0.000 C 
ATOM     12  C   UNL     1     106.804 126.753 146.133  0.00  0.00    +0.000 C 
ATOM     13  C   UNL     1     106.799 127.428 145.658  0.00  0.00    +0.000 C 
ATOM     14  C   UNL     1     106.550 128.151 145.972  0.00  0.00    +0.000 A 
ATOM     15  C   UNL     1     106.308 128.197 146.759  0.00  0.00    +0.000 A 
ATOM     16  C   UNL     1     106.549 128.846 145.468  0.00  0.00    +0.000 A 
ATOM     17  C   UNL     1     106.047 128.943 147.097  0.00  0.00    +0.000 A 
ATOM     18  C   UNL     1     106.292 129.601 145.788  0.00  0.00    +0.000 A 
ATOM     19  C   UNL     1     106.039 129.650 146.608  0.00  0.00    +0.000 A 
ENDBRANCH   1  11
BRANCH   5  20
ATOM     20  O   UNL     1     106.580 124.100 148.818  0.00  0.00    +0.000 OA
ATOM     21  C   UNL     1     107.193 123.980 149.358  0.00  0.00    +0.000 C 
ENDBRANCH   5  20
BRANCH   2  22
ATOM     22  O   UNL     1     105.148 124.747 148.317  0.00  0.00    +0.000 OA
BRANCH  22  30
ATOM     23  O   UNL     1     104.728 124.216 147.058  0.00  0.00    +0.000 OA
ATOM     24  O   UNL     1     102.435 125.049 147.471  0.00  0.00    +0.000 OA
ATOM     25  O   UNL     1     103.619 125.303 148.592  0.00  0.00    +0.000 OA
ATOM     26  O   UNL     1     102.780 124.240 146.075  0.00  0.00    +0.000 OA
ATOM     27  C   UNL     1     103.199 124.772 147.333  0.00  0.00    +0.000 C 
ATOM     28  C   UNL     1     103.791 124.899 147.894  0.00  0.00    +0.000 C 
ATOM     29  C   UNL     1     103.371 124.367 146.636  0.00  0.00    +0.000 C 
ATOM     30  C   UNL     1     104.555 124.621 147.757  0.00  0.00    +0.000 C 
ATOM     31  C   UNL     1     104.136 124.089 146.498  0.00  0.00    +0.000 C 
BRANCH  31  34
ATOM     32  O   UNL     1     104.458 124.105 145.106  0.00  0.00    +0.000 OA
ATOM     33  O   UNL     1     104.332 122.861 145.796  0.00  0.00    +0.000 OA
ATOM     34  C   UNL     1     104.309 123.685 145.800  0.00  0.00    +0.000 C 
ENDBRANCH  31  34
ENDBRANCH  22  30
ENDBRANCH   2  22
TORSDOF 5
ENDMDL
MODEL 8
REMARK VINA RESULT:      -8.8      9.972     11.783
REMARK  Name = 101244286
REMARK  5 active torsions:
REMARK  status: ('A' for Active; 'I' for Inactive)
REMARK    1  A    between atoms: O_2  and  C_16
REMARK    2  A    between atoms: O_2  and  C_23
REMARK    3  A    between atoms: O_10  and  C_28
REMARK    4  A    between atoms: C_17  and  C_24
REMARK    5  A    between atoms: C_18  and  C_21
REMARK                            x       y       z     vdW  Elec       q    Type
REMARK                         _______ _______ _______ _____ _____    ______ ____
ROOT
ATOM      1  C   UNL     1     111.548 127.616 138.024  0.00  0.00    +0.000 A 
ATOM      2  C   UNL     1     111.932 126.386 138.644  0.00  0.00    +0.000 A 
ATOM      3  C   UNL     1     111.609 126.793 138.003  0.00  0.00    +0.000 A 
ATOM      4  C   UNL     1     111.809 128.031 138.686  0.00  0.00    +0.000 A 
ATOM      5  C   UNL     1     112.194 126.803 139.307  0.00  0.00    +0.000 A 
ATOM      6  C   UNL     1     112.132 127.625 139.328  0.00  0.00    +0.000 A 
ENDROOT
BRANCH   1  11
ATOM      7  O   UNL     1     110.406 128.034 137.272  0.00  0.00    +0.000 OA
ATOM      8  O   UNL     1     112.535 128.401 136.961  0.00  0.00    +0.000 OA
ATOM      9  O   UNL     1     110.753 129.648 134.901  0.00  0.00    +0.000 OA
ATOM     10  O   UNL     1     108.068 128.877 135.754  0.00  0.00    +0.000 OA
ATOM     11  C   UNL     1     111.224 128.021 137.382  0.00  0.00    +0.000 C 
ATOM     12  C   UNL     1     111.718 128.414 136.851  0.00  0.00    +0.000 C 
ATOM     13  C   UNL     1     111.394 128.820 136.209  0.00  0.00    +0.000 C 
ATOM     14  C   UNL     1     110.576 128.832 136.099  0.00  0.00    +0.000 A 
ATOM     15  C   UNL     1     110.083 128.439 136.631  0.00  0.00    +0.000 A 
ATOM     16  C   UNL     1     110.251 129.258 135.428  0.00  0.00    +0.000 A 
ATOM     17  C   UNL     1     109.230 128.445 136.528  0.00  0.00    +0.000 A 
ATOM     18  C   UNL     1     109.400 129.275 135.308  0.00  0.00    +0.000 A 
ATOM     19  C   UNL     1     108.886 128.866 135.861  0.00  0.00    +0.000 A 
ENDBRANCH   1  11
BRANCH   5  20
ATOM     20  O   UNL     1     112.516 126.396 139.948  0.00  0.00    +0.000 OA
ATOM     21  C   UNL     1     112.618 126.781 140.671  0.00  0.00    +0.000 C 
ENDBRANCH   5  20
BRANCH   2  22
ATOM     22  O   UNL     1     111.994 125.565 138.622  0.00  0.00    +0.000 OA
BRANCH  22  30
ATOM     23  O   UNL     1     113.178 125.391 137.841  0.00  0.00    +0.000 OA
ATOM     24  O   UNL     1     112.014 123.705 136.452  0.00  0.00    +0.000 OA
ATOM     25  O   UNL     1     111.218 124.441 137.696  0.00  0.00    +0.000 OA
ATOM     26  O   UNL     1     113.586 124.093 136.135  0.00  0.00    +0.000 OA
ATOM     27  C   UNL     1     112.402 124.267 136.915  0.00  0.00    +0.000 C 
ATOM     28  C   UNL     1     112.003 124.635 137.537  0.00  0.00    +0.000 C 
ATOM     29  C   UNL     1     113.187 124.461 136.756  0.00  0.00    +0.000 C 
ATOM     30  C   UNL     1     112.391 125.197 138.000  0.00  0.00    +0.000 C 
ATOM     31  C   UNL     1     113.575 125.023 137.219  0.00  0.00    +0.000 C 
BRANCH  31  34
ATOM     32  O   UNL     1     114.970 124.832 137.463  0.00  0.00    +0.000 OA
ATOM     33  O   UNL     1     114.539 125.795 136.500  0.00  0.00    +0.000 OA
ATOM     34  C   UNL     1     114.362 125.217 137.061  0.00  0.00    +0.000 C 
ENDBRANCH  31  34
ENDBRANCH  22  30
ENDBRANCH   2  22
TORSDOF 5
ENDMDL
MODEL 9
REMARK VINA RESULT:      -8.8      8.132     11.338
REMARK  Name = 101244286
REMARK  5 active torsions:
REMARK  status: ('A' for Active; 'I' for Inactive)
REMARK    1  A    between atoms: O_2  and  C_16
REMARK    2  A    between atoms: O_2  and  C_23
REMARK    3  A    between atoms: O_10  and  C_28
REMARK    4  A    between atoms: C_17  and  C_24
REMARK    5  A    between atoms: C_18  and  C_21
REMARK                            x       y       z     vdW  Elec       q    Type
REMARK                         _______ _______ _______ _____ _____    ______ ____
ROOT
ATOM      1  C   UNL     1     111.108 126.249 136.439  0.00  0.00    +0.000 A 
ATOM      2  C   UNL     1     111.689 125.510 137.515  0.00  0.00    +0.000 A 
ATOM      3  C   UNL     1     111.433 126.226 137.196  0.00  0.00    +0.000 A 
ATOM      4  C   UNL     1     111.037 125.556 135.999  0.00  0.00    +0.000 A 
ATOM      5  C   UNL     1     111.617 124.815 137.074  0.00  0.00    +0.000 A 
ATOM      6  C   UNL     1     111.292 124.838 136.317  0.00  0.00    +0.000 A 
ENDROOT
BRANCH   1  11
ATOM      7  O   UNL     1     110.075 127.218 136.241  0.00  0.00    +0.000 OA
ATOM      8  O   UNL     1     112.151 127.184 135.566  0.00  0.00    +0.000 OA
ATOM      9  O   UNL     1     110.616 129.613 134.718  0.00  0.00    +0.000 OA
ATOM     10  O   UNL     1     107.959 129.180 135.850  0.00  0.00    +0.000 OA
ATOM     11  C   UNL     1     110.853 126.967 136.122  0.00  0.00    +0.000 C 
ATOM     12  C   UNL     1     111.374 127.434 135.685  0.00  0.00    +0.000 C 
ATOM     13  C   UNL     1     111.119 128.152 135.368  0.00  0.00    +0.000 C 
ATOM     14  C   UNL     1     110.341 128.403 135.488  0.00  0.00    +0.000 A 
ATOM     15  C   UNL     1     109.820 127.935 135.925  0.00  0.00    +0.000 A 
ATOM     16  C   UNL     1     110.087 129.152 135.153  0.00  0.00    +0.000 A 
ATOM     17  C   UNL     1     109.009 128.185 136.056  0.00  0.00    +0.000 A 
ATOM     18  C   UNL     1     109.280 129.418 135.274  0.00  0.00    +0.000 A 
ATOM     19  C   UNL     1     108.736 128.932 135.728  0.00  0.00    +0.000 A 
ENDBRANCH   1  11
BRANCH   5  20
ATOM     20  O   UNL     1     111.873 124.098 137.393  0.00  0.00    +0.000 OA
ATOM     21  C   UNL     1     112.034 123.460 136.894  0.00  0.00    +0.000 C 
ENDBRANCH   5  20
BRANCH   2  22
ATOM     22  O   UNL     1     112.014 125.487 138.271  0.00  0.00    +0.000 OA
BRANCH  22  30
ATOM     23  O   UNL     1     110.837 125.679 139.058  0.00  0.00    +0.000 OA
ATOM     24  O   UNL     1     112.044 127.320 140.463  0.00  0.00    +0.000 OA
ATOM     25  O   UNL     1     112.819 126.580 139.208  0.00  0.00    +0.000 OA
ATOM     26  O   UNL     1     110.464 126.966 140.781  0.00  0.00    +0.000 OA
ATOM     27  C   UNL     1     111.641 126.773 139.995  0.00  0.00    +0.000 C 
ATOM     28  C   UNL     1     112.030 126.404 139.367  0.00  0.00    +0.000 C 
ATOM     29  C   UNL     1     110.852 126.597 140.154  0.00  0.00    +0.000 C 
ATOM     30  C   UNL     1     111.627 125.857 138.899  0.00  0.00    +0.000 C 
ATOM     31  C   UNL     1     110.450 126.050 139.685  0.00  0.00    +0.000 C 
BRANCH  31  34
ATOM     32  O   UNL     1     109.059 126.323 139.501  0.00  0.00    +0.000 OA
ATOM     33  O   UNL     1     109.470 125.246 140.345  0.00  0.00    +0.000 OA
ATOM     34  C   UNL     1     109.659 125.872 139.844  0.00  0.00    +0.000 C 
ENDBRANCH  31  34
ENDBRANCH  22  30
ENDBRANCH   2  22
TORSDOF 5
ENDMDL
MODEL 10
REMARK VINA RESULT:      -8.8     10.408     12.330
REMARK  Name = 101244286
REMARK  5 active torsions:
REMARK  status: ('A' for Active; 'I' for Inactive)
REMARK    1  A    between atoms: O_2  and  C_16
REMARK    2  A    between atoms: O_2  and  C_23
REMARK    3  A    between atoms: O_10  and  C_28
REMARK    4  A    between atoms: C_17  and  C_24
REMARK    5  A    between atoms: C_18  and  C_21
REMARK                            x       y       z     vdW  Elec       q    Type
REMARK                         _______ _______ _______ _____ _____    ______ ____
ROOT
ATOM      1  C   UNL     1     112.899 127.986 137.047  0.00  0.00    +0.000 A 
ATOM      2  C   UNL     1     112.292 129.226 136.676  0.00  0.00    +0.000 A 
ATOM      3  C   UNL     1     112.361 128.409 136.585  0.00  0.00    +0.000 A 
ATOM      4  C   UNL     1     113.367 128.380 137.599  0.00  0.00    +0.000 A 
ATOM      5  C   UNL     1     112.762 129.621 137.229  0.00  0.00    +0.000 A 
ATOM      6  C   UNL     1     113.299 129.198 137.690  0.00  0.00    +0.000 A 
ENDROOT
BRANCH   1  11
ATOM      7  O   UNL     1     112.405 126.668 137.295  0.00  0.00    +0.000 OA
ATOM      8  O   UNL     1     114.155 127.353 136.185  0.00  0.00    +0.000 OA
ATOM      9  O   UNL     1     113.813 124.377 136.239  0.00  0.00    +0.000 OA
ATOM     10  O   UNL     1     111.383 123.990 137.811  0.00  0.00    +0.000 OA
ATOM     11  C   UNL     1     112.966 127.169 136.955  0.00  0.00    +0.000 C 
ATOM     12  C   UNL     1     113.594 126.853 136.525  0.00  0.00    +0.000 C 
ATOM     13  C   UNL     1     113.662 126.035 136.433  0.00  0.00    +0.000 C 
ATOM     14  C   UNL     1     113.100 125.534 136.773  0.00  0.00    +0.000 A 
ATOM     15  C   UNL     1     112.472 125.852 137.204  0.00  0.00    +0.000 A 
ATOM     16  C   UNL     1     113.181 124.685 136.671  0.00  0.00    +0.000 A 
ATOM     17  C   UNL     1     111.882 125.341 137.562  0.00  0.00    +0.000 A 
ATOM     18  C   UNL     1     112.600 124.159 137.022  0.00  0.00    +0.000 A 
ATOM     19  C   UNL     1     111.946 124.488 137.471  0.00  0.00    +0.000 A 
ENDBRANCH   1  11
BRANCH   5  20
ATOM     20  O   UNL     1     112.693 130.438 137.319  0.00  0.00    +0.000 OA
ATOM     21  C   UNL     1     113.289 130.861 137.703  0.00  0.00    +0.000 C 
ENDBRANCH   5  20
BRANCH   2  22
ATOM     22  O   UNL     1     111.756 129.649 136.215  0.00  0.00    +0.000 OA
BRANCH  22  30
ATOM     23  O   UNL     1     110.551 129.287 136.893  0.00  0.00    +0.000 OA
ATOM     24  O   UNL     1     109.410 129.003 134.714  0.00  0.00    +0.000 OA
ATOM     25  O   UNL     1     110.995 129.460 134.763  0.00  0.00    +0.000 OA
ATOM     26  O   UNL     1     108.586 128.736 136.118  0.00  0.00    +0.000 OA
ATOM     27  C   UNL     1     109.791 129.098 135.441  0.00  0.00    +0.000 C 
ATOM     28  C   UNL     1     110.583 129.326 135.464  0.00  0.00    +0.000 C 
ATOM     29  C   UNL     1     109.378 128.964 136.142  0.00  0.00    +0.000 C 
ATOM     30  C   UNL     1     110.963 129.421 136.190  0.00  0.00    +0.000 C 
ATOM     31  C   UNL     1     109.758 129.058 136.868  0.00  0.00    +0.000 C 
BRANCH  31  34
ATOM     32  O   UNL     1     109.265 128.157 137.861  0.00  0.00    +0.000 OA
ATOM     33  O   UNL     1     109.015 129.558 137.981  0.00  0.00    +0.000 OA
ATOM     34  C   UNL     1     109.346 128.925 137.571  0.00  0.00    +0.000 C 
ENDBRANCH  31  34
ENDBRANCH  22  30
ENDBRANCH   2  22
TORSDOF 5
ENDMDL
